REMARK  Name = ZINC59118003
REMARK  9 active torsions:
REMARK  status: ('A' for Active; 'I' for Inactive)
REMARK    1  A    between atoms: C_1  and  C_2
REMARK    2  A    between atoms: C_2  and  C_3
REMARK    3  A    between atoms: C_3  and  C_4
REMARK    4  A    between atoms: C_3  and  C_5
REMARK    5  A    between atoms: C_3  and  C_6
REMARK    6  A    between atoms: N_14  and  C_18
REMARK    7  A    between atoms: C_18  and  C_19
REMARK    8  A    between atoms: N_21  and  C_22
REMARK    9  A    between atoms: C_22  and  C_23
REMARK                            x       y       z     vdW  Elec       q    Type
REMARK                         _______ _______ _______ _____ _____    ______ ____
ROOT
ATOM      1  C   UNL     1       4.640  -7.570  -1.350  0.00  0.00    +0.213 C 
ENDROOT
BRANCH   1  10
ATOM      2  C   UNL     1       1.344  -1.829  -1.022  0.00  0.00    -0.005 C 
ATOM      3  C   UNL     1       2.307  -2.261   0.087  0.00  0.00    +0.006 C 
ATOM      4  C   UNL     1       2.328  -3.789   0.176  0.00  0.00    +0.035 C 
ATOM      5  C   UNL     1       2.772  -4.371  -1.161  0.00  0.00    +0.113 C 
ATOM      6  C   UNL     1       1.834  -3.932  -2.280  0.00  0.00    +0.035 C 
ATOM      7  C   UNL     1       1.814  -2.403  -2.360  0.00  0.00    +0.006 C 
ATOM      8  C   UNL     1       2.834  -5.879  -1.086  0.00  0.00    +0.247 C 
ATOM      9  O   UNL     1       1.919  -6.641  -0.858  0.00  0.00    -0.273 OA
ATOM     10  N   UNL     1       4.122  -6.199  -1.327  0.00  0.00    -0.215 N 
ATOM     11  C   UNL     1       4.870  -5.110  -1.540  0.00  0.00    +0.310 C 
ATOM     12  O   UNL     1       6.061  -5.143  -1.779  0.00  0.00    -0.252 OA
ATOM     13  N   UNL     1       4.153  -3.972  -1.462  0.00  0.00    -0.285 N 
ATOM     14  H   UNL     1       4.484  -3.068  -1.581  0.00  0.00    +0.151 HD
BRANCH   2  15
ATOM     15  C   UNL     1       1.314  -0.302  -1.105  0.00  0.00    -0.032 C 
ATOM     16  C   UNL     1       0.350   0.130  -2.212  0.00  0.00    +0.011 C 
ATOM     17  C   UNL     1       2.717   0.220  -1.419  0.00  0.00    +0.011 C 
BRANCH  15  19
ATOM     18  C   UNL     1       0.814   1.800   0.150  0.00  0.00    +0.004 C 
ATOM     19  C   UNL     1       0.844   0.272   0.233  0.00  0.00    +0.003 C 
ENDBRANCH  15  19
ENDBRANCH   2  15
ENDBRANCH   1  10
BRANCH   1  20
ATOM     20  C   UNL     1       4.537  -8.122  -2.749  0.00  0.00    +0.231 C 
ATOM     21  O   UNL     1       4.077  -7.438  -3.638  0.00  0.00    -0.274 OA
ATOM     22  N   UNL     1       4.956  -9.376  -3.011  0.00  0.00    -0.310 N 
ATOM     23  H   UNL     1       5.324  -9.923  -2.300  0.00  0.00    +0.149 HD
BRANCH  22  24
ATOM     24  C   UNL     1       4.856  -9.912  -4.371  0.00  0.00    +0.141 C 
BRANCH  24  25
ATOM     25  C   UNL     1       5.388 -11.322  -4.395  0.00  0.00    -0.014 A 
ATOM     26  C   UNL     1       6.733 -11.559  -4.646  0.00  0.00    +0.010 A 
ATOM     27  C   UNL     1       7.181 -12.868  -4.659  0.00  0.00    +0.042 A 
ATOM     28  C   UNL     1       6.274 -13.896  -4.422  0.00  0.00    +0.099 A 
ATOM     29  N   UNL     1       4.998 -13.628  -4.187  0.00  0.00    -0.349 N 
ATOM     30  C   UNL     1       4.545 -12.389  -4.162  0.00  0.00    +0.089 A 
ATOM     31  N   UNL     1       6.710 -15.216  -4.433  0.00  0.00    -0.317 N 
ATOM     32  C   UNL     1       8.127 -15.476  -4.546  0.00  0.00    +0.106 C 
ATOM     33  C   UNL     1       8.519 -15.580  -6.041  0.00  0.00    +0.019 C 
ATOM     34  C   UNL     1       7.993 -16.824  -6.622  0.00  0.00    +0.002 C 
ATOM     35  C   UNL     1       6.470 -16.923  -6.623  0.00  0.00    +0.002 C 
ATOM     36  C   UNL     1       6.003 -17.458  -5.291  0.00  0.00    +0.019 C 
ATOM     37  C   UNL     1       5.707 -16.293  -4.323  0.00  0.00    +0.106 C 
ATOM     38  H   UNL     1       4.383 -14.360  -4.024  0.00  0.00    +0.167 HD
ENDBRANCH  24  25
ENDBRANCH  22  24
ENDBRANCH   1  20
TORSDOF 6
