REMARK  Name = ZINC48839558
REMARK  5 active torsions:
REMARK  status: ('A' for Active; 'I' for Inactive)
REMARK    1  A    between atoms: C_4  and  S_10
REMARK    2  A    between atoms: C_6  and  C_7
REMARK    3  A    between atoms: S_10  and  N_13
REMARK    4  A    between atoms: N_13  and  C_14
REMARK    5  A    between atoms: C_20  and  N_22
REMARK                            x       y       z     vdW  Elec       q    Type
REMARK                         _______ _______ _______ _____ _____    ______ ____
ROOT
ATOM      1  S   UNL     1       4.050  -0.843  -0.005  0.00  0.00    +0.060 S 
ATOM      2  O   UNL     1       3.733  -2.220  -0.155  0.00  0.00    -0.153 OA
ATOM      3  O   UNL     1       3.089   0.119   0.407  0.00  0.00    -0.153 OA
ENDROOT
BRANCH   1   7
ATOM      4  C   UNL     1       7.481  -0.632   2.959  0.00  0.00    +0.016 A 
ATOM      5  C   UNL     1       7.524  -1.525   1.909  0.00  0.00    +0.023 A 
ATOM      6  C   UNL     1       6.476  -1.588   1.006  0.00  0.00    +0.067 A 
ATOM      7  C   UNL     1       5.378  -0.755   1.150  0.00  0.00    +0.124 A 
ATOM      8  C   UNL     1       5.322   0.142   2.195  0.00  0.00    +0.045 A 
ATOM      9  C   UNL     1       6.377   0.210   3.110  0.00  0.00    +0.065 A 
ATOM     10 CL   UNL     1       6.539  -2.715  -0.314  0.00  0.00    -0.082 Cl
BRANCH   9  11
ATOM     11  C   UNL     1       6.323   1.167   4.231  0.00  0.00    +0.387 C 
ATOM     12  O   UNL     1       7.247   1.225   5.030  0.00  0.00    -0.241 OA
ATOM     13  O   UNL     1       5.355   1.904   4.361  0.00  0.00    -0.241 OA
ENDBRANCH   9  11
ENDBRANCH   1   7
BRANCH   1  14
ATOM     14  N   UNL     1       4.637  -0.331  -1.466  0.00  0.00    -0.188 NA
ATOM     15  H   UNL     1       4.700  -0.952  -2.208  0.00  0.00    +0.148 HD
BRANCH  14  16
ATOM     16  C   UNL     1       5.062   1.061  -1.637  0.00  0.00    +0.062 C 
ATOM     17  C   UNL     1       3.906   1.880  -2.214  0.00  0.00    +0.019 C 
ATOM     18  C   UNL     1       3.498   1.301  -3.570  0.00  0.00    +0.001 C 
ATOM     19  C   UNL     1       4.690   1.356  -4.528  0.00  0.00    -0.001 C 
ATOM     20  C   UNL     1       5.846   0.537  -3.951  0.00  0.00    -0.015 C 
ATOM     21  C   UNL     1       6.254   1.116  -2.595  0.00  0.00    -0.056 C 
BRANCH  21  22
ATOM     22  N   UNL     1       7.364   0.330  -2.041  0.00  0.00    +0.381 N 
ATOM     23  H   UNL     1       7.072  -0.629  -1.923  0.00  0.00    -0.090 HD
ATOM     24  H   UNL     1       8.150   0.366  -2.672  0.00  0.00    -0.090 HD
ATOM     25  H   UNL     1       7.633   0.712  -1.146  0.00  0.00    -0.090 HD
ENDBRANCH  21  22
ENDBRANCH  14  16
ENDBRANCH   1  14
TORSDOF 5
