REMARK  Name = ZINC25061932
REMARK  6 active torsions:
REMARK  status: ('A' for Active; 'I' for Inactive)
REMARK    1  A    between atoms: C_1  and  C_2
REMARK    2  A    between atoms: C_2  and  C_4
REMARK    3  A    between atoms: C_2  and  N_17
REMARK    4  A    between atoms: N_6  and  C_7
REMARK    5  A    between atoms: N_20  and  S_23
REMARK    6  A    between atoms: S_23  and  C_26
REMARK                            x       y       z     vdW  Elec       q    Type
REMARK                         _______ _______ _______ _____ _____    ______ ____
ROOT
ATOM      1  N   UNL     1      -2.566   7.888  -2.241  0.00  0.00    +0.389 N 
ATOM      2  C   UNL     1      -2.302   9.318  -2.453  0.00  0.00    -0.060 C 
ATOM      3  C   UNL     1      -2.818   9.730  -3.836  0.00  0.00    +0.091 C 
ATOM      4  N   UNL     1      -4.230   9.335  -3.944  0.00  0.00    -0.180 NA
ATOM      5  C   UNL     1      -4.593   7.949  -3.614  0.00  0.00    +0.091 C 
ATOM      6  C   UNL     1      -4.008   7.607  -2.239  0.00  0.00    -0.060 C 
ATOM      7  H   UNL     1      -2.119   7.337  -3.082  0.00  0.00    -0.081 HD
ENDROOT
BRANCH   4   8
ATOM      8  S   UNL     1      -5.382  10.423  -4.426  0.00  0.00    +0.062 S 
ATOM      9  O   UNL     1      -6.594  10.040  -3.791  0.00  0.00    -0.153 OA
ATOM     10  O   UNL     1      -4.813  11.715  -4.265  0.00  0.00    -0.153 OA
BRANCH   8  11
ATOM     11  C   UNL     1      -5.625  10.192  -6.156  0.00  0.00    +0.124 A 
ATOM     12  C   UNL     1      -6.833   9.710  -6.626  0.00  0.00    +0.030 A 
ATOM     13  C   UNL     1      -7.025   9.533  -7.983  0.00  0.00    +0.002 A 
ATOM     14  C   UNL     1      -6.007   9.828  -8.871  0.00  0.00    +0.002 A 
ATOM     15  C   UNL     1      -4.798  10.306  -8.402  0.00  0.00    +0.022 A 
ATOM     16  C   UNL     1      -4.606  10.488  -7.043  0.00  0.00    +0.067 A 
ATOM     17 CL   UNL     1      -3.087  11.086  -6.453  0.00  0.00    -0.082 Cl
ENDBRANCH   8  11
ENDBRANCH   4   8
BRANCH   1  19
ATOM     18  C   UNL     1      -2.745   7.902   0.201  0.00  0.00    -0.004 C 
ATOM     19  C   UNL     1      -1.935   7.414  -1.002  0.00  0.00    +0.016 C 
BRANCH  19  20
ATOM     20  C   UNL     1      -1.896   5.907  -1.003  0.00  0.00    +0.200 C 
ATOM     21  O   UNL     1      -2.525   5.285  -1.831  0.00  0.00    -0.278 OA
ATOM     22  N   UNL     1      -1.160   5.252  -0.083  0.00  0.00    -0.311 N 
ATOM     23  H   UNL     1      -0.589   5.817   0.669  0.00  0.00    +0.149 HD
BRANCH  22  24
ATOM     24  C   UNL     1      -1.122   3.788  -0.084  0.00  0.00    +0.035 C 
ATOM     25  C   UNL     1      -0.567   3.293  -1.421  0.00  0.00    +0.029 C 
ATOM     26  C   UNL     1      -0.526   1.764  -1.422  0.00  0.00    -0.008 C 
ATOM     27  C   UNL     1       0.374   1.276  -0.285  0.00  0.00    +0.007 C 
ATOM     28  C   UNL     1      -0.181   1.771   1.053  0.00  0.00    -0.008 C 
ATOM     29  C   UNL     1      -0.222   3.300   1.054  0.00  0.00    +0.029 C 
ATOM     30  C   UNL     1      -1.596   1.223   1.252  0.00  0.00    +0.007 C 
ATOM     31  C   UNL     1      -2.496   1.711   0.115  0.00  0.00    -0.008 C 
ATOM     32  C   UNL     1      -1.941   1.216  -1.223  0.00  0.00    +0.007 C 
ATOM     33  C   UNL     1      -2.536   3.240   0.115  0.00  0.00    +0.029 C 
ENDBRANCH  22  24
ENDBRANCH  19  20
ENDBRANCH   1  19
TORSDOF 5
