REMARK  Name = ZINC40344436
REMARK  11 active torsions:
REMARK  status: ('A' for Active; 'I' for Inactive)
REMARK    1  A    between atoms: C_1  and  O_2
REMARK    2  A    between atoms: O_2  and  C_3
REMARK    3  A    between atoms: C_6  and  C_9
REMARK    4  A    between atoms: N_17  and  C_31
REMARK    5  A    between atoms: C_18  and  C_20
REMARK    6  A    between atoms: C_22  and  O_29
REMARK    7  A    between atoms: C_23  and  O_28
REMARK    8  A    between atoms: C_24  and  O_26
REMARK    9  A    between atoms: O_26  and  C_27
REMARK   10  A    between atoms: O_29  and  C_30
REMARK   11  A    between atoms: C_31  and  C_32
REMARK                            x       y       z     vdW  Elec       q    Type
REMARK                         _______ _______ _______ _____ _____    ______ ____
ROOT
ATOM      1  C   UNL     1       3.053  -2.590   4.585  0.00  0.00    +0.099 A 
ATOM      2  C   UNL     1       2.544  -3.786   5.102  0.00  0.00    +0.035 A 
ATOM      3  C   UNL     1       3.351  -4.106   6.176  0.00  0.00    +0.126 A 
ATOM      4  N   UNL     1       4.287  -3.114   6.256  0.00  0.00    -0.272 N 
ATOM      5  H   UNL     1       4.995  -3.067   6.918  0.00  0.00    +0.189 HD
ATOM      6  N   UNL     1       4.094  -2.254   5.320  0.00  0.00    -0.173 NA
ATOM      7  C   UNL     1       2.868  -5.359   6.767  0.00  0.00    +0.266 C 
ATOM      8  O   UNL     1       3.365  -5.909   7.731  0.00  0.00    -0.268 OA
ATOM      9  N   UNL     1       1.796  -5.812   6.092  0.00  0.00    -0.283 N 
ATOM     10  C   UNL     1       1.507  -4.872   5.002  0.00  0.00    +0.142 C 
ENDROOT
BRANCH   1  14
ATOM     11  C   UNL     1       1.533  -0.443   1.241  0.00  0.00    +0.120 A 
ATOM     12  C   UNL     1       2.074   0.245   2.318  0.00  0.00    +0.046 A 
ATOM     13  C   UNL     1       2.567  -0.449   3.404  0.00  0.00    +0.013 A 
ATOM     14  C   UNL     1       2.522  -1.841   3.418  0.00  0.00    +0.003 A 
ATOM     15  C   UNL     1       1.979  -2.529   2.335  0.00  0.00    +0.013 A 
ATOM     16  C   UNL     1       1.482  -1.830   1.255  0.00  0.00    +0.046 A 
BRANCH  11  18
ATOM     17  C   UNL     1       1.132   1.668   0.225  0.00  0.00    +0.277 C 
ATOM     18  O   UNL     1       1.048   0.243   0.173  0.00  0.00    -0.495 OA
ENDBRANCH  11  18
ENDBRANCH   1  14
BRANCH  10  19
ATOM     19  C   UNL     1       0.128  -4.289   5.171  0.00  0.00    -0.015 A 
ATOM     20  C   UNL     1      -0.300  -3.882   6.421  0.00  0.00    +0.055 A 
ATOM     21  C   UNL     1      -1.569  -3.346   6.582  0.00  0.00    +0.165 A 
ATOM     22  C   UNL     1      -2.410  -3.217   5.484  0.00  0.00    +0.201 A 
ATOM     23  C   UNL     1      -1.976  -3.626   4.228  0.00  0.00    +0.165 A 
ATOM     24  C   UNL     1      -0.705  -4.157   4.075  0.00  0.00    +0.055 A 
BRANCH  23  25
ATOM     25  O   UNL     1      -2.796  -3.502   3.151  0.00  0.00    -0.491 OA
ATOM     26  C   UNL     1      -2.284  -3.943   1.891  0.00  0.00    +0.277 C 
ENDBRANCH  23  25
BRANCH  22  27
ATOM     27  O   UNL     1      -3.656  -2.691   5.637  0.00  0.00    -0.501 OA
ATOM     28  H   UNL     1      -3.694  -1.731   5.529  0.00  0.00    +0.292 HD
ENDBRANCH  22  27
BRANCH  21  29
ATOM     29  O   UNL     1      -1.988  -2.947   7.812  0.00  0.00    -0.491 OA
ATOM     30  C   UNL     1      -1.071  -3.110   8.896  0.00  0.00    +0.277 C 
ENDBRANCH  21  29
ENDBRANCH  10  19
BRANCH   9  31
ATOM     31  C   UNL     1       1.047  -7.035   6.392  0.00  0.00    +0.140 C 
BRANCH  31  32
ATOM     32  C   UNL     1       1.570  -8.180   5.524  0.00  0.00    +0.136 C 
ATOM     33  C   UNL     1       0.727  -9.450   5.769  0.00  0.00    +0.035 C 
ATOM     34  C   UNL     1       1.803 -10.570   5.746  0.00  0.00    +0.031 C 
ATOM     35  C   UNL     1       3.011  -9.830   6.375  0.00  0.00    +0.160 C 
ATOM     36  O   UNL     1       2.924  -8.482   5.881  0.00  0.00    -0.375 OA
ENDBRANCH  31  32
ENDBRANCH   9  31
TORSDOF 8
