REMARK  Name = ZINC21237637
REMARK  8 active torsions:
REMARK  status: ('A' for Active; 'I' for Inactive)
REMARK    1  A    between atoms: C_1  and  O_2
REMARK    2  A    between atoms: O_2  and  C_3
REMARK    3  A    between atoms: C_6  and  C_13
REMARK    4  A    between atoms: C_7  and  O_11
REMARK    5  A    between atoms: C_8  and  O_9
REMARK    6  A    between atoms: O_9  and  C_10
REMARK    7  A    between atoms: O_11  and  C_12
REMARK    8  A    between atoms: C_24  and  C_27
REMARK                            x       y       z     vdW  Elec       q    Type
REMARK                         _______ _______ _______ _____ _____    ______ ____
ROOT
ATOM      1  C   UNL     1      -6.733   5.141   0.019  0.00  0.00    +0.066 C 
ATOM      2  C   UNL     1      -7.641   4.699  -1.131  0.00  0.00    +0.109 C 
ATOM      3  C   UNL     1      -6.866   4.756  -2.421  0.00  0.00    +0.218 C 
ATOM      4  O   UNL     1      -7.429   5.053  -3.453  0.00  0.00    -0.275 OA
ATOM      5  N   UNL     1      -5.550   4.478  -2.431  0.00  0.00    -0.289 N 
ATOM      6  C   UNL     1      -4.894   4.113  -1.283  0.00  0.00    +0.018 C 
ATOM      7  C   UNL     1      -5.415   4.410  -0.074  0.00  0.00    +0.020 C 
ATOM      8  C   UNL     1      -4.756   4.052   1.114  0.00  0.00    +0.162 C 
ATOM      9  O   UNL     1      -5.261   4.327   2.184  0.00  0.00    -0.292 OA
ATOM     10  C   UNL     1      -3.434   3.333   1.081  0.00  0.00    +0.088 C 
ATOM     11  C   UNL     1      -2.693   3.712  -0.205  0.00  0.00    +0.032 C 
ATOM     12  C   UNL     1      -3.585   3.372  -1.401  0.00  0.00    +0.059 C 
ATOM     13  H   UNL     1      -4.982   4.541  -3.371  0.00  0.00    +0.155 HD
ENDROOT
BRANCH  11  14
ATOM     14  C   UNL     1      -1.406   2.933  -0.296  0.00  0.00    -0.042 A 
ATOM     15  C   UNL     1      -1.436   1.551  -0.331  0.00  0.00    +0.005 A 
ATOM     16  C   UNL     1      -0.257   0.835  -0.409  0.00  0.00    +0.022 A 
ATOM     17  C   UNL     1       0.955   1.502  -0.464  0.00  0.00    +0.059 A 
ATOM     18  C   UNL     1       0.985   2.885  -0.434  0.00  0.00    +0.060 A 
ATOM     19  C   UNL     1      -0.197   3.600  -0.350  0.00  0.00    +0.025 A 
ATOM     20 CL   UNL     1       2.503   3.723  -0.504  0.00  0.00    -0.082 Cl
ATOM     21 CL   UNL     1       2.436   0.603  -0.569  0.00  0.00    -0.082 Cl
ENDBRANCH  11  14
BRANCH   1  25
ATOM     22  C   UNL     1      -6.047   9.357  -0.247  0.00  0.00    +0.165 A 
ATOM     23  C   UNL     1      -5.541   8.504  -1.217  0.00  0.00    +0.050 A 
ATOM     24  C   UNL     1      -5.765   7.143  -1.129  0.00  0.00    +0.011 A 
ATOM     25  C   UNL     1      -6.492   6.626  -0.073  0.00  0.00    +0.006 A 
ATOM     26  C   UNL     1      -7.006   7.472   0.898  0.00  0.00    +0.169 A 
ATOM     27  C   UNL     1      -6.779   8.841   0.815  0.00  0.00    +0.204 A 
BRANCH  22  29
ATOM     28  C   UNL     1      -5.065  11.156  -1.454  0.00  0.00    +0.277 C 
ATOM     29  O   UNL     1      -5.826  10.696  -0.335  0.00  0.00    -0.491 OA
ENDBRANCH  22  29
BRANCH  27  30
ATOM     30  O   UNL     1      -7.276   9.674   1.770  0.00  0.00    -0.488 OA
ATOM     31  C   UNL     1      -8.585  10.203   1.550  0.00  0.00    +0.277 C 
ENDBRANCH  27  30
BRANCH  26  32
ATOM     32  O   UNL     1      -7.726   6.962   1.933  0.00  0.00    -0.491 OA
ATOM     33  C   UNL     1      -7.027   6.726   3.156  0.00  0.00    +0.277 C 
ENDBRANCH  26  32
ENDBRANCH   1  25
TORSDOF 5
