REMARK  Name = ZINC33033949
REMARK  11 active torsions:
REMARK  status: ('A' for Active; 'I' for Inactive)
REMARK    1  A    between atoms: C_1  and  C_2
REMARK    2  A    between atoms: C_2  and  C_3
REMARK    3  A    between atoms: C_3  and  C_5
REMARK    4  A    between atoms: C_3  and  N_6
REMARK    5  A    between atoms: C_7  and  C_9
REMARK    6  A    between atoms: C_12  and  N_29
REMARK    7  A    between atoms: C_13  and  N_15
REMARK    8  A    between atoms: N_15  and  S_16
REMARK    9  A    between atoms: S_16  and  C_19
REMARK   10  A    between atoms: C_22  and  N_25
REMARK   11  A    between atoms: C_26  and  C_28
REMARK                            x       y       z     vdW  Elec       q    Type
REMARK                         _______ _______ _______ _____ _____    ______ ____
ROOT
ATOM      1  C   UNL     1       2.459   7.569   1.991  0.00  0.00    +0.039 A 
ATOM      2  C   UNL     1       2.443   7.631   3.387  0.00  0.00    +0.015 A 
ATOM      3  C   UNL     1       1.244   7.732   4.059  0.00  0.00    +0.026 A 
ATOM      4  C   UNL     1       0.049   7.772   3.352  0.00  0.00    +0.052 A 
ATOM      5  C   UNL     1       0.058   7.711   1.956  0.00  0.00    +0.070 A 
ATOM      6  C   UNL     1       1.257   7.603   1.278  0.00  0.00    +0.039 A 
ENDROOT
BRANCH   4   7
ATOM      7  N   UNL     1      -1.161   7.875   4.036  0.00  0.00    -0.332 N 
ATOM      8  C   UNL     1      -0.967   7.685   5.481  0.00  0.00    +0.086 C 
ATOM      9  C   UNL     1      -2.325   7.726   6.185  0.00  0.00    -0.063 C 
ATOM     10  N   UNL     1      -2.978   9.013   5.909  0.00  0.00    +0.381 N 
ATOM     11  C   UNL     1      -3.172   9.204   4.465  0.00  0.00    -0.063 C 
ATOM     12  C   UNL     1      -1.814   9.163   3.761  0.00  0.00    +0.086 C 
ATOM     13  H   UNL     1      -3.960   9.040   6.404  0.00  0.00    -0.086 HD
ATOM     14  H   UNL     1      -2.352   9.832   6.293  0.00  0.00    -0.086 HD
ENDBRANCH   4   7
BRANCH   1  16
ATOM     15  N   UNL     1       4.900   7.421   1.960  0.00  0.00    -0.309 N 
ATOM     16  C   UNL     1       3.742   7.460   1.271  0.00  0.00    +0.244 C 
ATOM     17  O   UNL     1       3.755   7.406   0.057  0.00  0.00    -0.270 OA
ATOM     18  H   UNL     1       4.888   7.470   3.059  0.00  0.00    +0.149 HD
BRANCH  15  19
ATOM     19  C   UNL     1       6.174   7.314   1.245  0.00  0.00    +0.070 C 
ATOM     20  C   UNL     1       6.642   8.708   0.824  0.00  0.00    +0.028 C 
BRANCH  19  22
ATOM     21  C   UNL     1       6.815   5.240   2.484  0.00  0.00    +0.005 C 
ATOM     22  C   UNL     1       7.222   6.680   2.163  0.00  0.00    +0.018 C 
ENDBRANCH  19  22
ENDBRANCH  15  19
ENDBRANCH   1  16
BRANCH   5  23
ATOM     23  N   UNL     1      -1.148   7.752   1.245  0.00  0.00    -0.214 N 
ATOM     24  H   UNL     1      -1.621   8.719   1.020  0.00  0.00    +0.174 HD
BRANCH  23  25
ATOM     25  S   UNL     1      -1.862   6.344   0.743  0.00  0.00    +0.072 S 
ATOM     26  O   UNL     1      -0.851   5.586   0.093  0.00  0.00    -0.150 OA
ATOM     27  O   UNL     1      -3.073   6.710   0.098  0.00  0.00    -0.150 OA
BRANCH  25  28
ATOM     28  C   UNL     1      -2.314   5.445   2.189  0.00  0.00    +0.109 A 
ATOM     29  C   UNL     1      -3.560   5.634   2.758  0.00  0.00    +0.030 A 
ATOM     30  C   UNL     1      -3.918   4.931   3.892  0.00  0.00    +0.025 A 
ATOM     31  C   UNL     1      -3.024   4.033   4.461  0.00  0.00    +0.033 A 
ATOM     32  C   UNL     1      -1.771   3.849   3.891  0.00  0.00    +0.025 A 
ATOM     33  C   UNL     1      -1.422   4.551   2.753  0.00  0.00    +0.030 A 
BRANCH  31  34
ATOM     34  N   UNL     1      -3.383   3.319   5.609  0.00  0.00    -0.286 N 
ATOM     35  C   UNL     1      -4.656   2.910   5.778  0.00  0.00    +0.214 C 
ATOM     36  O   UNL     1      -5.510   3.241   4.982  0.00  0.00    -0.276 OA
ATOM     37  C   UNL     1      -5.021   2.048   6.959  0.00  0.00    +0.109 C 
ATOM     38  H   UNL     1      -2.626   3.091   6.374  0.00  0.00    +0.155 HD
ENDBRANCH  31  34
ENDBRANCH  25  28
ENDBRANCH  23  25
ENDBRANCH   5  23
TORSDOF 8
