REMARK  Name = ZINC62236383
REMARK  4 active torsions:
REMARK  status: ('A' for Active; 'I' for Inactive)
REMARK    1  A    between atoms: C_1  and  N_2
REMARK    2  A    between atoms: C_3  and  N_22
REMARK    3  A    between atoms: C_4  and  C_14
REMARK    4  A    between atoms: C_5  and  C_7
REMARK                            x       y       z     vdW  Elec       q    Type
REMARK                         _______ _______ _______ _____ _____    ______ ____
ROOT
ATOM      1  C   UNL     1      -0.018   1.461   0.010  0.00  0.00    +0.174 C 
ATOM      2  N   UNL     1       0.002  -0.004   0.002  0.00  0.00    -0.253 N 
ATOM      3  C   UNL     1       0.008  -0.790  -1.098  0.00  0.00    +0.122 A 
ATOM      4  C   UNL     1       0.028  -2.104  -0.663  0.00  0.00    +0.047 A 
ATOM      5  C   UNL     1       0.034  -2.078   0.745  0.00  0.00    +0.078 A 
ATOM      6  N   UNL     1       0.025  -0.830   1.132  0.00  0.00    -0.174 NA
ENDROOT
BRANCH   4   7
ATOM      7  C   UNL     1       0.039  -3.314  -1.520  0.00  0.00    +0.024 A 
ATOM      8  C   UNL     1      -1.161  -3.898  -1.924  0.00  0.00    +0.050 A 
ATOM      9  C   UNL     1      -1.143  -5.025  -2.722  0.00  0.00    +0.021 A 
ATOM     10  C   UNL     1       0.061  -5.574  -3.122  0.00  0.00    +0.003 A 
ATOM     11  C   UNL     1       1.255  -5.000  -2.724  0.00  0.00    +0.021 A 
ATOM     12  C   UNL     1       1.251  -3.869  -1.931  0.00  0.00    +0.050 A 
ATOM     13 CL   UNL     1       2.750  -3.145  -1.440  0.00  0.00    -0.083 Cl
ATOM     14 CL   UNL     1      -2.674  -3.210  -1.424  0.00  0.00    -0.083 Cl
ENDBRANCH   4   7
BRANCH   5  15
ATOM     15  C   UNL     1       0.053  -3.282   1.650  0.00  0.00    +0.066 C 
ATOM     16  C   UNL     1      -1.192  -3.272   2.543  0.00  0.00    +0.014 C 
ATOM     17  C   UNL     1      -1.122  -4.457   3.511  0.00  0.00    +0.029 C 
ATOM     18  C   UNL     1       0.174  -4.369   4.321  0.00  0.00    +0.160 C 
ATOM     19  O   UNL     1       1.291  -4.351   3.429  0.00  0.00    -0.379 OA
ATOM     20  C   UNL     1       1.305  -3.240   2.531  0.00  0.00    +0.169 C 
ENDBRANCH   5  15
BRANCH   3  21
ATOM     21  N   UNL     1      -0.004  -0.359  -2.418  0.00  0.00    -0.343 N 
ATOM     22  H   UNL     1      -0.018   0.590  -2.619  0.00  0.00    +0.144 HD
ATOM     23  H   UNL     1       0.001  -1.008  -3.140  0.00  0.00    +0.144 HD
ENDBRANCH   3  21
TORSDOF 3
