REMARK  Name = ZINC22430248
REMARK  7 active torsions:
REMARK  status: ('A' for Active; 'I' for Inactive)
REMARK    1  A    between atoms: C_4  and  C_7
REMARK    2  A    between atoms: C_7  and  C_9
REMARK    3  A    between atoms: C_7  and  O_22
REMARK    4  A    between atoms: N_11  and  C_12
REMARK    5  A    between atoms: C_15  and  N_19
REMARK    6  A    between atoms: O_22  and  C_23
REMARK    7  A    between atoms: C_23  and  C_25
REMARK                            x       y       z     vdW  Elec       q    Type
REMARK                         _______ _______ _______ _____ _____    ______ ____
ROOT
ATOM      1  C   UNL     1       2.446   0.686   0.070  0.00  0.00    +0.292 C 
ENDROOT
BRANCH   1   5
ATOM      2  C   UNL     1       2.413  -1.491   3.745  0.00  0.00    +0.000 A 
ATOM      3  C   UNL     1       2.027  -2.111   2.571  0.00  0.00    +0.000 A 
ATOM      4  C   UNL     1       2.038  -1.406   1.382  0.00  0.00    +0.008 A 
ATOM      5  C   UNL     1       2.434  -0.082   1.366  0.00  0.00    +0.002 A 
ATOM      6  C   UNL     1       2.825   0.536   2.539  0.00  0.00    +0.008 A 
ATOM      7  C   UNL     1       2.810  -0.167   3.729  0.00  0.00    +0.000 A 
ENDBRANCH   1   5
BRANCH   1   8
ATOM      8  C   UNL     1       1.208   1.540  -0.020  0.00  0.00    +0.263 C 
ATOM      9  O   UNL     1       1.308   2.745  -0.116  0.00  0.00    -0.271 OA
ATOM     10  N   UNL     1      -0.011   0.966   0.007  0.00  0.00    -0.281 N 
ATOM     11  H   UNL     1      -0.102  -0.130   0.025  0.00  0.00    +0.155 HD
BRANCH  10  12
ATOM     12  C   UNL     1      -1.161   1.764   0.014  0.00  0.00    +0.048 A 
ATOM     13  C   UNL     1      -1.180   2.962  -0.687  0.00  0.00    +0.026 A 
ATOM     14  C   UNL     1      -2.316   3.747  -0.680  0.00  0.00    +0.034 A 
ATOM     15  C   UNL     1      -3.435   3.341   0.025  0.00  0.00    +0.127 A 
ATOM     16  C   UNL     1      -3.420   2.148   0.724  0.00  0.00    +0.049 A 
ATOM     17  C   UNL     1      -2.288   1.355   0.716  0.00  0.00    +0.041 A 
ATOM     18 BR   UNL     1      -2.270  -0.279   1.666  0.00  0.00    -0.048 Br
BRANCH  15  19
ATOM     19  N   UNL     1      -4.651   4.184   0.030  0.00  0.00    +0.056 N 
ATOM     20  O   UNL     1      -4.666   5.235  -0.586  0.00  0.00    -0.126 OA
ATOM     21  O   UNL     1      -5.637   3.828   0.649  0.00  0.00    -0.126 OA
ENDBRANCH  15  19
ENDBRANCH  10  12
ENDBRANCH   1   8
BRANCH   1  22
ATOM     22  O   UNL     1       3.624   1.534   0.020  0.00  0.00    -0.444 OA
BRANCH  22  23
ATOM     23  C   UNL     1       4.737   1.002  -0.522  0.00  0.00    +0.340 C 
ATOM     24  O   UNL     1       4.724  -0.138  -0.941  0.00  0.00    -0.245 OA
BRANCH  23  25
ATOM     25  C   UNL     1       5.973   1.806  -0.606  0.00  0.00    +0.062 A 
ATOM     26  C   UNL     1       5.988   3.119  -0.130  0.00  0.00    +0.018 A 
ATOM     27  C   UNL     1       7.145   3.864  -0.206  0.00  0.00    +0.042 A 
ATOM     28  C   UNL     1       8.291   3.317  -0.763  0.00  0.00    +0.158 A 
ATOM     29  C   UNL     1       8.281   2.014  -1.243  0.00  0.00    +0.159 A 
ATOM     30  C   UNL     1       7.128   1.257  -1.166  0.00  0.00    +0.056 A 
ATOM     31  F   UNL     1       9.400   1.486  -1.784  0.00  0.00    -0.202 F 
ATOM     32  F   UNL     1       9.421   4.053  -0.839  0.00  0.00    -0.202 F 
ENDBRANCH  23  25
ENDBRANCH  22  23
ENDBRANCH   1  22
TORSDOF 7
