REMARK  Name = ZINC13636579
REMARK  7 active torsions:
REMARK  status: ('A' for Active; 'I' for Inactive)
REMARK    1  A    between atoms: C_4  and  C_7
REMARK    2  A    between atoms: C_7  and  C_8
REMARK    3  A    between atoms: C_8  and  N_9
REMARK    4  A    between atoms: N_9  and  S_10
REMARK    5  A    between atoms: S_10  and  C_13
REMARK    6  A    between atoms: C_26  and  C_29
REMARK    7  A    between atoms: C_32  and  O_35
REMARK                            x       y       z     vdW  Elec       q    Type
REMARK                         _______ _______ _______ _____ _____    ______ ____
ROOT
ATOM      1  C   UNL     1      -1.077   2.896  -4.281  0.00  0.00    +0.106 A 
ATOM      2  C   UNL     1      -2.240   3.527  -3.882  0.00  0.00    +0.030 A 
ATOM      3  C   UNL     1      -2.428   4.864  -4.172  0.00  0.00    +0.025 A 
ATOM      4  C   UNL     1      -1.454   5.566  -4.873  0.00  0.00    +0.031 A 
ATOM      5  C   UNL     1      -0.292   4.935  -5.282  0.00  0.00    -0.018 A 
ATOM      6  C   UNL     1      -0.110   3.592  -4.978  0.00  0.00    +0.034 A 
ATOM      7  C   UNL     1       0.792   5.638  -6.053  0.00  0.00    +0.049 C 
ATOM      8  C   UNL     1       0.959   4.904  -7.377  0.00  0.00    -0.023 C 
ATOM      9  C   UNL     1       0.270   5.499  -8.319  0.00  0.00    -0.030 C 
ATOM     10  C   UNL     1      -0.450   6.715  -7.763  0.00  0.00    +0.033 C 
ATOM     11  C   UNL     1       0.372   7.052  -6.496  0.00  0.00    +0.029 C 
ATOM     12  C   UNL     1      -0.488   7.745  -5.456  0.00  0.00    +0.105 C 
ATOM     13  N   UNL     1      -1.664   6.919  -5.161  0.00  0.00    -0.336 N 
ATOM     14  H   UNL     1      -2.556   7.298  -5.164  0.00  0.00    +0.147 HD
ENDROOT
BRANCH  12  15
ATOM     15  C   UNL     1       0.314   7.947  -4.196  0.00  0.00    -0.027 A 
ATOM     16  C   UNL     1       0.475   6.902  -3.306  0.00  0.00    +0.009 A 
ATOM     17  C   UNL     1       1.214   7.082  -2.153  0.00  0.00    +0.046 A 
ATOM     18  C   UNL     1       1.785   8.318  -1.883  0.00  0.00    +0.117 A 
ATOM     19  C   UNL     1       1.617   9.367  -2.775  0.00  0.00    +0.046 A 
ATOM     20  C   UNL     1       0.881   9.179  -3.929  0.00  0.00    +0.009 A 
BRANCH  18  21
ATOM     21  O   UNL     1       2.508   8.500  -0.747  0.00  0.00    -0.507 OA
ATOM     22  H   UNL     1       1.984   8.798   0.009  0.00  0.00    +0.292 HD
ENDBRANCH  18  21
ENDBRANCH  12  15
BRANCH   1  23
ATOM     23  S   UNL     1      -0.830   1.192  -3.905  0.00  0.00    +0.058 S 
ATOM     24  O   UNL     1       0.091   0.693  -4.866  0.00  0.00    -0.153 OA
ATOM     25  O   UNL     1      -2.120   0.625  -3.721  0.00  0.00    -0.153 OA
BRANCH  23  26
ATOM     26  N   UNL     1      -0.067   1.120  -2.437  0.00  0.00    -0.190 NA
ATOM     27  H   UNL     1       0.834   0.765  -2.375  0.00  0.00    +0.148 HD
BRANCH  26  28
ATOM     28  C   UNL     1      -0.753   1.593  -1.232  0.00  0.00    +0.110 C 
BRANCH  28  29
ATOM     29  C   UNL     1      -0.013   1.086   0.008  0.00  0.00    +0.052 C 
BRANCH  29  33
ATOM     30  C   UNL     1      -2.012   2.463   3.523  0.00  0.00    +0.000 A 
ATOM     31  C   UNL     1      -2.366   1.254   2.955  0.00  0.00    +0.000 A 
ATOM     32  C   UNL     1      -1.719   0.808   1.818  0.00  0.00    +0.003 A 
ATOM     33  C   UNL     1      -0.718   1.572   1.248  0.00  0.00    -0.046 A 
ATOM     34  C   UNL     1      -0.360   2.779   1.819  0.00  0.00    +0.003 A 
ATOM     35  C   UNL     1      -1.010   3.227   2.953  0.00  0.00    +0.000 A 
ENDBRANCH  29  33
ENDBRANCH  28  29
ENDBRANCH  26  28
ENDBRANCH  23  26
ENDBRANCH   1  23
TORSDOF 7
