REMARK  Name = ZINC29990874
REMARK  7 active torsions:
REMARK  status: ('A' for Active; 'I' for Inactive)
REMARK    1  A    between atoms: C_1  and  C_2
REMARK    2  A    between atoms: C_2  and  C_4
REMARK    3  A    between atoms: C_2  and  N_12
REMARK    4  A    between atoms: C_13  and  C_15
REMARK    5  A    between atoms: C_15  and  S_16
REMARK    6  A    between atoms: S_16  and  C_17
REMARK    7  A    between atoms: N_21  and  C_22
REMARK                            x       y       z     vdW  Elec       q    Type
REMARK                         _______ _______ _______ _____ _____    ______ ____
ROOT
ATOM      1  N   UNL     1       0.688  -0.476  -1.203  0.00  0.00    -0.308 N 
ATOM      2  C   UNL     1       0.006  -0.608  -2.358  0.00  0.00    +0.224 C 
ATOM      3  O   UNL     1      -1.175  -0.336  -2.400  0.00  0.00    -0.275 OA
ATOM      4  H   UNL     1       1.632  -0.695  -1.170  0.00  0.00    +0.149 HD
ENDROOT
BRANCH   1   6
ATOM      5  C   UNL     1      -0.019   1.526   0.010  0.00  0.00    +0.033 C 
ATOM      6  C   UNL     1       0.002  -0.004   0.002  0.00  0.00    +0.103 C 
BRANCH   6   7
ATOM      7  C   UNL     1       0.731  -0.503   1.223  0.00  0.00    +0.008 A 
ATOM      8  C   UNL     1       2.077  -0.808   1.147  0.00  0.00    +0.011 A 
ATOM      9  C   UNL     1       2.747  -1.265   2.266  0.00  0.00    +0.039 A 
ATOM     10  C   UNL     1       2.070  -1.419   3.465  0.00  0.00    +0.126 A 
ATOM     11  C   UNL     1       0.722  -1.115   3.541  0.00  0.00    +0.077 A 
ATOM     12  C   UNL     1       0.053  -0.651   2.421  0.00  0.00    +0.131 A 
ATOM     13  F   UNL     1      -1.261  -0.348   2.496  0.00  0.00    -0.205 F 
ATOM     14  F   UNL     1       2.725  -1.868   4.558  0.00  0.00    -0.205 F 
ENDBRANCH   6   7
ENDBRANCH   1   6
BRANCH   2  15
ATOM     15  C   UNL     1       0.712  -1.094  -3.598  0.00  0.00    +0.173 C 
BRANCH  15  16
ATOM     16  S   UNL     1      -0.466  -1.164  -4.976  0.00  0.00    -0.075 S 
BRANCH  16  17
ATOM     17  C   UNL     1       0.498  -1.742  -6.333  0.00  0.00    +0.210 A 
ATOM     18  N   UNL     1       1.777  -2.048  -6.308  0.00  0.00    -0.101 NA
ATOM     19  N   UNL     1       2.169  -2.436  -7.468  0.00  0.00    -0.022 NA
ATOM     20  N   UNL     1       1.189  -2.408  -8.305  0.00  0.00    -0.043 NA
ATOM     21  N   UNL     1       0.061  -1.959  -7.596  0.00  0.00    -0.217 N 
BRANCH  21  22
ATOM     22  C   UNL     1      -1.296  -1.766  -8.113  0.00  0.00    +0.112 C 
ATOM     23  C   UNL     1      -1.273  -0.786  -9.303  0.00  0.00    +0.027 C 
ATOM     24  C   UNL     1      -1.219  -1.703 -10.550  0.00  0.00    +0.002 C 
ATOM     25  C   UNL     1      -2.143  -2.879 -10.149  0.00  0.00    +0.002 C 
ATOM     26  C   UNL     1      -1.849  -3.098  -8.651  0.00  0.00    +0.027 C 
ENDBRANCH  21  22
ENDBRANCH  16  17
ENDBRANCH  15  16
ENDBRANCH   2  15
TORSDOF 6
