REMARK  Name = ZINC24269703
REMARK  14 active torsions:
REMARK  status: ('A' for Active; 'I' for Inactive)
REMARK    1  A    between atoms: C_1  and  C_2
REMARK    2  A    between atoms: C_2  and  C_4
REMARK    3  A    between atoms: C_2  and  S_16
REMARK    4  A    between atoms: N_6  and  C_7
REMARK    5  A    between atoms: N_6  and  C_8
REMARK    6  A    between atoms: S_16  and  C_17
REMARK    7  A    between atoms: C_20  and  C_27
REMARK    8  A    between atoms: N_21  and  C_22
REMARK    9  A    between atoms: C_22  and  C_23
REMARK   10  A    between atoms: C_23  and  C_24
REMARK   11  A    between atoms: C_24  and  C_25
REMARK   12  A    between atoms: C_24  and  C_26
REMARK   13  A    between atoms: C_27  and  O_28
REMARK   14  A    between atoms: O_28  and  C_29
REMARK                            x       y       z     vdW  Elec       q    Type
REMARK                         _______ _______ _______ _____ _____    ______ ____
ROOT
ATOM      1  C   UNL     1       2.533  -0.042   1.241  0.00  0.00    +0.192 A 
ATOM      2  N   UNL     1       2.985   0.657   0.225  0.00  0.00    -0.122 NA
ATOM      3  N   UNL     1       4.239   0.893   0.382  0.00  0.00    -0.130 NA
ATOM      4  C   UNL     1       4.658   0.365   1.497  0.00  0.00    +0.172 A 
ATOM      5  N   UNL     1       3.585  -0.245   2.087  0.00  0.00    -0.303 N 
ENDROOT
BRANCH   1   6
ATOM      6  S   UNL     1       0.879  -0.605   1.472  0.00  0.00    -0.074 S 
BRANCH   6   8
ATOM      7  C   UNL     1      -0.019   1.526   0.010  0.00  0.00    +0.029 C 
ATOM      8  C   UNL     1       0.002  -0.004   0.002  0.00  0.00    +0.137 C 
BRANCH   8   9
ATOM      9  C   UNL     1      -1.412  -0.526   0.013  0.00  0.00    +0.229 C 
ATOM     10  O   UNL     1      -1.939  -0.827   1.062  0.00  0.00    -0.274 OA
ATOM     11  N   UNL     1      -2.090  -0.657  -1.144  0.00  0.00    -0.299 N 
ATOM     12  C   UNL     1      -1.453  -0.293  -2.412  0.00  0.00    +0.132 C 
BRANCH  11  13
ATOM     13  C   UNL     1      -3.465  -1.164  -1.134  0.00  0.00    +0.098 C 
ATOM     14  C   UNL     1      -4.403  -0.109  -1.744  0.00  0.00    +0.046 C 
ATOM     15  C   UNL     1      -5.780  -0.781  -2.009  0.00  0.00    +0.168 C 
ATOM     16  S   UNL     1      -5.237  -2.420  -2.654  0.00  0.00    -0.029 S 
ATOM     17  O   UNL     1      -6.018  -3.438  -2.044  0.00  0.00    -0.174 OA
ATOM     18  O   UNL     1      -5.156  -2.355  -4.071  0.00  0.00    -0.174 OA
ATOM     19  C   UNL     1      -3.536  -2.472  -1.959  0.00  0.00    +0.188 C 
ENDBRANCH  11  13
ENDBRANCH   8   9
ENDBRANCH   6   8
ENDBRANCH   1   6
BRANCH   5  20
ATOM     20  C   UNL     1       3.570  -0.969   3.360  0.00  0.00    +0.126 C 
BRANCH  20  21
ATOM     21  C   UNL     1       3.885  -2.445   3.112  0.00  0.00    +0.024 C 
BRANCH  21  22
ATOM     22  C   UNL     1       3.868  -3.201   4.442  0.00  0.00    -0.016 C 
ATOM     23  C   UNL     1       2.453  -3.182   5.022  0.00  0.00    +0.007 C 
ATOM     24  C   UNL     1       4.305  -4.649   4.211  0.00  0.00    +0.007 C 
ENDBRANCH  21  22
ENDBRANCH  20  21
ENDBRANCH   5  20
BRANCH   4  25
ATOM     25  C   UNL     1       6.063   0.421   2.039  0.00  0.00    +0.305 C 
BRANCH  25  26
ATOM     26  O   UNL     1       6.210   1.579   2.863  0.00  0.00    -0.484 OA
BRANCH  26  27
ATOM     27  C   UNL     1       7.427   1.780   3.434  0.00  0.00    +0.121 A 
ATOM     28  C   UNL     1       8.460   0.883   3.201  0.00  0.00    +0.045 A 
ATOM     29  C   UNL     1       9.696   1.090   3.782  0.00  0.00    +0.004 A 
ATOM     30  C   UNL     1       9.904   2.188   4.596  0.00  0.00    +0.000 A 
ATOM     31  C   UNL     1       8.876   3.083   4.830  0.00  0.00    +0.004 A 
ATOM     32  C   UNL     1       7.639   2.884   4.246  0.00  0.00    +0.045 A 
ENDBRANCH  26  27
ENDBRANCH  25  26
ENDBRANCH   4  25
TORSDOF 10
