REMARK  Name = ZINC09187000
REMARK  9 active torsions:
REMARK  status: ('A' for Active; 'I' for Inactive)
REMARK    1  A    between atoms: C_1  and  C_2
REMARK    2  A    between atoms: C_5  and  N_8
REMARK    3  A    between atoms: N_8  and  C_9
REMARK    4  A    between atoms: C_10  and  C_34
REMARK    5  A    between atoms: C_15  and  S_18
REMARK    6  A    between atoms: S_18  and  C_19
REMARK    7  A    between atoms: C_19  and  C_20
REMARK    8  A    between atoms: C_30  and  C_32
REMARK    9  A    between atoms: C_30  and  C_33
REMARK                            x       y       z     vdW  Elec       q    Type
REMARK                         _______ _______ _______ _____ _____    ______ ____
ROOT
ATOM      1  C   UNL     1      -2.748  -3.960  -0.123  0.00  0.00    +0.129 A 
ATOM      2  C   UNL     1      -2.881  -2.742  -0.776  0.00  0.00    +0.094 A 
ATOM      3  C   UNL     1      -1.752  -1.892  -0.936  0.00  0.00    -0.015 A 
ATOM      4  C   UNL     1      -0.552  -2.272  -0.444  0.00  0.00    +0.027 A 
ATOM      5  C   UNL     1      -0.432  -3.519   0.218  0.00  0.00    +0.169 A 
ATOM      6  N   UNL     1      -1.530  -4.338   0.366  0.00  0.00    -0.256 N 
ATOM      7  C   UNL     1      -1.082  -5.444   1.035  0.00  0.00    +0.198 A 
ATOM      8  N   UNL     1       0.200  -5.269   1.259  0.00  0.00    -0.122 NA
ATOM      9  N   UNL     1       0.588  -4.139   0.781  0.00  0.00    -0.128 NA
ATOM     10  C   UNL     1       0.670  -1.401  -0.571  0.00  0.00    +0.199 C 
ATOM     11  O   UNL     1       0.462  -0.391  -1.557  0.00  0.00    -0.369 OA
ATOM     12  C   UNL     1      -0.751   0.345  -1.356  0.00  0.00    +0.068 C 
ATOM     13  C   UNL     1      -1.931  -0.581  -1.657  0.00  0.00    +0.071 C 
ATOM     14  C   UNL     1      -0.786   1.549  -2.299  0.00  0.00    +0.041 C 
ATOM     15  C   UNL     1      -0.829   0.824   0.095  0.00  0.00    +0.041 C 
ENDROOT
BRANCH   1  16
ATOM     16  N   UNL     1      -3.837  -4.782   0.031  0.00  0.00    -0.299 N 
ATOM     17  H   UNL     1      -4.412  -4.685   0.806  0.00  0.00    +0.154 HD
BRANCH  16  22
ATOM     18  C   UNL     1      -4.978  -8.739  -3.868  0.00  0.00    +0.044 C 
ATOM     19  C   UNL     1      -4.675  -7.688  -2.832  0.00  0.00    -0.050 A 
ATOM     20  C   UNL     1      -5.549  -7.484  -1.780  0.00  0.00    +0.005 A 
ATOM     21  C   UNL     1      -5.275  -6.521  -0.829  0.00  0.00    +0.023 A 
ATOM     22  C   UNL     1      -4.118  -5.757  -0.929  0.00  0.00    +0.032 A 
ATOM     23  C   UNL     1      -3.245  -5.962  -1.990  0.00  0.00    +0.023 A 
ATOM     24  C   UNL     1      -3.523  -6.930  -2.934  0.00  0.00    +0.005 A 
ENDBRANCH  16  22
ENDBRANCH   1  16
BRANCH   2  25
ATOM     25  C   UNL     1      -4.156  -2.341  -1.290  0.00  0.00    +0.103 C 
ATOM     26  N   UNL     1      -5.168  -2.023  -1.698  0.00  0.00    -0.191 NA
ENDBRANCH   2  25
BRANCH   7  27
ATOM     27  S   UNL     1      -2.045  -6.841   1.509  0.00  0.00    -0.076 S 
BRANCH  27  28
ATOM     28  C   UNL     1      -0.832  -7.993   2.209  0.00  0.00    +0.173 C 
BRANCH  28  29
ATOM     29  C   UNL     1      -1.513  -9.293   2.552  0.00  0.00    +0.229 C 
ATOM     30  O   UNL     1      -2.675  -9.466   2.252  0.00  0.00    -0.275 OA
ATOM     31  N   UNL     1      -0.831 -10.263   3.193  0.00  0.00    -0.264 N 
ATOM     32  C   UNL     1      -1.426 -11.499   3.416  0.00  0.00    +0.164 A 
ATOM     33  N   UNL     1      -2.602 -11.938   3.012  0.00  0.00    -0.233 NA
ATOM     34  C   UNL     1      -3.017 -13.154   3.311  0.00  0.00    +0.120 A 
ATOM     35  C   UNL     1      -2.210 -13.946   4.058  0.00  0.00    +0.068 A 
ATOM     36  S   UNL     1      -0.814 -12.860   4.306  0.00  0.00    -0.061 S 
ATOM     37  H   UNL     1       0.075 -10.098   3.498  0.00  0.00    +0.157 HD
ENDBRANCH  28  29
ENDBRANCH  27  28
ENDBRANCH   7  27
TORSDOF 6
