REMARK  Name = ZINC64066679
REMARK  5 active torsions:
REMARK  status: ('A' for Active; 'I' for Inactive)
REMARK    1  A    between atoms: C_1  and  S_2
REMARK    2  A    between atoms: S_2  and  C_3
REMARK    3  A    between atoms: C_6  and  C_9
REMARK    4  A    between atoms: N_23  and  C_24
REMARK    5  A    between atoms: C_24  and  C_25
REMARK                            x       y       z     vdW  Elec       q    Type
REMARK                         _______ _______ _______ _____ _____    ______ ____
ROOT
ATOM      1  C   UNL     1      -5.834  -1.544   0.050  0.00  0.00    +0.114 C 
ATOM      2  C   UNL     1      -6.309  -1.809  -1.381  0.00  0.00    +0.128 C 
ATOM      3  C   UNL     1      -5.559  -3.048  -1.856  0.00  0.00    -0.035 C 
ATOM      4  C   UNL     1      -4.967  -2.715  -2.994  0.00  0.00    -0.001 A 
ATOM      5  C   UNL     1      -4.180  -3.500  -3.958  0.00  0.00    +0.010 A 
ATOM      6  C   UNL     1      -3.699  -2.823  -5.034  0.00  0.00    +0.001 A 
ATOM      7  C   UNL     1      -3.920  -1.458  -5.245  0.00  0.00    +0.002 A 
ATOM      8  C   UNL     1      -4.637  -0.660  -4.414  0.00  0.00    +0.026 A 
ATOM      9  C   UNL     1      -5.198  -1.260  -3.250  0.00  0.00    +0.043 A 
ATOM     10  N   UNL     1      -5.949  -0.732  -2.302  0.00  0.00    -0.376 N 
ATOM     11  C   UNL     1      -5.509  -4.309  -1.028  0.00  0.00    +0.049 C 
ATOM     12  C   UNL     1      -5.142  -3.871   0.401  0.00  0.00    +0.090 C 
ATOM     13  N   UNL     1      -6.016  -2.776   0.834  0.00  0.00    -0.287 NA
ATOM     14  H   UNL     1      -6.214   0.197  -2.220  0.00  0.00    +0.160 HD
ENDROOT
BRANCH   1  18
ATOM     15  C   UNL     1      -1.702  -0.454   0.016  0.00  0.00    +0.008 A 
ATOM     16  C   UNL     1      -2.634   0.368   0.639  0.00  0.00    +0.015 A 
ATOM     17  C   UNL     1      -3.968   0.012   0.648  0.00  0.00    +0.006 A 
ATOM     18  C   UNL     1      -4.377  -1.159   0.038  0.00  0.00    -0.028 A 
ATOM     19  C   UNL     1      -3.452  -1.979  -0.583  0.00  0.00    +0.006 A 
ATOM     20  C   UNL     1      -2.117  -1.627  -0.601  0.00  0.00    +0.015 A 
BRANCH  15  22
ATOM     21  C   UNL     1       0.049   1.566   0.910  0.00  0.00    +0.090 C 
ATOM     22  S   UNL     1       0.002  -0.004   0.002  0.00  0.00    -0.129 S 
ENDBRANCH  15  22
ENDBRANCH   1  18
BRANCH  13  23
ATOM     23  C   UNL     1      -5.860  -2.512   2.271  0.00  0.00    +0.148 C 
BRANCH  23  24
ATOM     24  C   UNL     1      -6.290  -3.726   3.054  0.00  0.00    +0.092 A 
ATOM     25  N   UNL     1      -5.562  -4.743   3.444  0.00  0.00    -0.251 NA
ATOM     26  C   UNL     1      -6.087  -5.740   4.128  0.00  0.00    +0.119 A 
ATOM     27  C   UNL     1      -7.413  -5.663   4.408  0.00  0.00    +0.066 A 
ATOM     28  S   UNL     1      -7.821  -4.101   3.644  0.00  0.00    -0.079 S 
ENDBRANCH  23  24
ENDBRANCH  13  23
TORSDOF 4
