REMARK  Name = ZINC45945031
REMARK  11 active torsions:
REMARK  status: ('A' for Active; 'I' for Inactive)
REMARK    1  A    between atoms: C_1  and  C_2
REMARK    2  A    between atoms: C_2  and  S_3
REMARK    3  A    between atoms: S_3  and  N_6
REMARK    4  A    between atoms: N_6  and  C_7
REMARK    5  A    between atoms: N_6  and  C_17
REMARK    6  A    between atoms: C_7  and  C_8
REMARK    7  A    between atoms: C_8  and  C_9
REMARK    8  A    between atoms: C_9  and  N_10
REMARK    9  A    between atoms: N_13  and  C_16
REMARK   10  A    between atoms: C_17  and  C_18
REMARK   11  A    between atoms: C_18  and  C_19
REMARK                            x       y       z     vdW  Elec       q    Type
REMARK                         _______ _______ _______ _____ _____    ______ ____
ROOT
ATOM      1  N   UNL     1       0.623  -2.229  -1.494  0.00  0.00    -0.181 NA
ENDROOT
BRANCH   1   2
ATOM      2  S   UNL     1       0.851  -0.589  -1.490  0.00  0.00    +0.032 S 
ATOM      3  O   UNL     1       0.175  -0.126  -2.651  0.00  0.00    -0.158 OA
ATOM      4  O   UNL     1       2.255  -0.419  -1.353  0.00  0.00    -0.158 OA
BRANCH   2   6
ATOM      5  C   UNL     1      -0.019   1.526   0.010  0.00  0.00    +0.029 C 
ATOM      6  C   UNL     1       0.002  -0.004   0.002  0.00  0.00    +0.182 C 
ENDBRANCH   2   6
ENDBRANCH   1   2
BRANCH   1   7
ATOM      7  C   UNL     1      -0.547  -2.804  -2.163  0.00  0.00    +0.110 C 
BRANCH   7   8
ATOM      8  C   UNL     1      -0.167  -3.221  -3.586  0.00  0.00    +0.032 C 
BRANCH   8   9
ATOM      9  C   UNL     1      -1.389  -3.822  -4.284  0.00  0.00    +0.085 C 
BRANCH   9  10
ATOM     10  N   UNL     1      -1.024  -4.222  -5.650  0.00  0.00    -0.306 NA
ATOM     11  C   UNL     1      -0.699  -3.049  -6.473  0.00  0.00    +0.066 C 
ATOM     12  C   UNL     1      -0.269  -3.511  -7.867  0.00  0.00    -0.064 C 
ATOM     13  N   UNL     1      -1.357  -4.279  -8.486  0.00  0.00    +0.379 N 
ATOM     14  C   UNL     1      -1.654  -5.460  -7.666  0.00  0.00    -0.064 C 
ATOM     15  C   UNL     1      -2.096  -5.014  -6.270  0.00  0.00    +0.066 C 
ATOM     16  C   UNL     1      -0.950  -4.707  -9.831  0.00  0.00    -0.096 C 
ATOM     17  H   UNL     1      -2.181  -3.700  -8.553  0.00  0.00    -0.082 HD
ENDBRANCH   9  10
ENDBRANCH   8   9
ENDBRANCH   7   8
ENDBRANCH   1   7
BRANCH   1  18
ATOM     18  C   UNL     1       1.591  -3.105  -0.829  0.00  0.00    +0.118 C 
BRANCH  18  19
ATOM     19  C   UNL     1       1.111  -3.409   0.591  0.00  0.00    +0.113 C 
BRANCH  19  20
ATOM     20  C   UNL     1       2.107  -4.310   1.275  0.00  0.00    +0.217 C 
ATOM     21  O   UNL     1       3.102  -4.673   0.685  0.00  0.00    -0.276 OA
ATOM     22  N   UNL     1       1.891  -4.713   2.544  0.00  0.00    -0.299 N 
ATOM     23  C   UNL     1       0.688  -4.289   3.276  0.00  0.00    +0.123 C 
ATOM     24  C   UNL     1       1.119  -3.712   4.628  0.00  0.00    +0.100 C 
ATOM     25  N   UNL     1       1.960  -4.691   5.329  0.00  0.00    -0.313 NA
ATOM     26  C   UNL     1       3.199  -4.959   4.586  0.00  0.00    +0.100 C 
ATOM     27  C   UNL     1       2.850  -5.592   3.230  0.00  0.00    +0.123 C 
ATOM     28  H   UNL     1       2.161  -4.388   6.270  0.00  0.00    +0.122 HD
ENDBRANCH  19  20
ENDBRANCH  18  19
ENDBRANCH   1  18
TORSDOF 9
