REMARK  Name = ZINC40814965
REMARK  9 active torsions:
REMARK  status: ('A' for Active; 'I' for Inactive)
REMARK    1  A    between atoms: C_1  and  C_2
REMARK    2  A    between atoms: C_2  and  C_3
REMARK    3  A    between atoms: C_3  and  C_5
REMARK    4  A    between atoms: C_3  and  N_6
REMARK    5  A    between atoms: C_7  and  C_9
REMARK    6  A    between atoms: C_10  and  C_29
REMARK    7  A    between atoms: N_18  and  N_19
REMARK    8  A    between atoms: N_19  and  S_20
REMARK    9  A    between atoms: S_20  and  C_23
REMARK                            x       y       z     vdW  Elec       q    Type
REMARK                         _______ _______ _______ _____ _____    ______ ____
ROOT
ATOM      1  C   UNL     1      -4.121   0.346  -2.510  0.00  0.00    +0.193 A 
ATOM      2  C   UNL     1      -5.470   0.497  -2.675  0.00  0.00    +0.009 A 
ATOM      3  C   UNL     1      -5.662   0.869  -4.011  0.00  0.00    +0.042 A 
ATOM      4  C   UNL     1      -4.425   0.928  -4.605  0.00  0.00    +0.115 A 
ATOM      5  O   UNL     1      -3.512   0.619  -3.686  0.00  0.00    -0.454 OA
ATOM      6  C   UNL     1      -4.227   1.293  -6.054  0.00  0.00    +0.075 C 
ATOM      7  C   UNL     1      -5.534   1.068  -6.819  0.00  0.00    +0.014 C 
ATOM      8  C   UNL     1      -6.694   1.796  -6.132  0.00  0.00    +0.058 C 
ATOM      9  C   UNL     1      -6.904   1.170  -4.761  0.00  0.00    +0.071 C 
ATOM     10  N   UNL     1      -8.083   0.918  -4.284  0.00  0.00    -0.170 NA
ATOM     11  C   UNL     1      -6.537   0.300  -1.629  0.00  0.00    +0.048 C 
ENDROOT
BRANCH   1  13
ATOM     12  N   UNL     1      -2.105  -0.148  -1.230  0.00  0.00    -0.306 N 
ATOM     13  C   UNL     1      -3.448  -0.040  -1.265  0.00  0.00    +0.280 C 
ATOM     14  O   UNL     1      -4.103  -0.261  -0.263  0.00  0.00    -0.267 OA
ATOM     15  H   UNL     1      -1.584   0.029  -2.029  0.00  0.00    +0.149 HD
BRANCH  12  16
ATOM     16  C   UNL     1      -1.433  -0.534   0.013  0.00  0.00    +0.070 C 
ATOM     17  C   UNL     1      -1.413  -2.059   0.130  0.00  0.00    +0.028 C 
BRANCH  16  19
ATOM     18  C   UNL     1      -0.019   1.526   0.010  0.00  0.00    +0.005 C 
ATOM     19  C   UNL     1       0.002  -0.004   0.002  0.00  0.00    +0.018 C 
ENDBRANCH  16  19
ENDBRANCH  12  16
ENDBRANCH   1  13
BRANCH  10  20
ATOM     20  N   UNL     1      -9.223   1.224  -5.037  0.00  0.00    -0.136 N 
ATOM     21  H   UNL     1      -9.131   1.625  -5.916  0.00  0.00    +0.197 HD
BRANCH  20  22
ATOM     22  S   UNL     1     -10.729   0.903  -4.428  0.00  0.00    +0.086 S 
ATOM     23  O   UNL     1     -11.665   1.450  -5.348  0.00  0.00    -0.149 OA
ATOM     24  O   UNL     1     -10.735  -0.470  -4.062  0.00  0.00    -0.149 OA
BRANCH  22  25
ATOM     25  C   UNL     1     -10.894   1.823  -2.934  0.00  0.00    +0.110 A 
ATOM     26  C   UNL     1     -10.507   1.263  -1.732  0.00  0.00    +0.029 A 
ATOM     27  C   UNL     1     -10.636   1.985  -0.560  0.00  0.00    +0.002 A 
ATOM     28  C   UNL     1     -11.152   3.267  -0.591  0.00  0.00    +0.000 A 
ATOM     29  C   UNL     1     -11.539   3.827  -1.794  0.00  0.00    +0.002 A 
ATOM     30  C   UNL     1     -11.405   3.107  -2.966  0.00  0.00    +0.029 A 
ENDBRANCH  22  25
ENDBRANCH  20  22
ENDBRANCH  10  20
TORSDOF 6
