REMARK  Name = ZINC36207297
REMARK  18 active torsions:
REMARK  status: ('A' for Active; 'I' for Inactive)
REMARK    1  A    between atoms: C_1  and  C_2
REMARK    2  A    between atoms: C_2  and  C_3
REMARK    3  A    between atoms: C_9  and  C_18
REMARK    4  A    between atoms: C_13  and  C_14
REMARK    5  A    between atoms: C_14  and  O_16
REMARK    6  A    between atoms: O_16  and  C_17
REMARK    7  A    between atoms: C_18  and  N_19
REMARK    8  A    between atoms: N_19  and  C_20
REMARK    9  A    between atoms: N_19  and  C_24
REMARK   10  A    between atoms: C_20  and  C_21
REMARK   11  A    between atoms: C_21  and  O_22
REMARK   12  A    between atoms: O_22  and  C_23
REMARK   13  A    between atoms: C_24  and  C_25
REMARK   14  A    between atoms: C_25  and  C_27
REMARK   15  A    between atoms: C_25  and  O_36
REMARK   16  A    between atoms: C_27  and  O_28
REMARK   17  A    between atoms: O_28  and  C_29
REMARK   18  A    between atoms: C_34  and  C_35
REMARK                            x       y       z     vdW  Elec       q    Type
REMARK                         _______ _______ _______ _____ _____    ______ ____
ROOT
ATOM      1  N   UNL     1      -5.788  -2.155   4.060  0.00  0.00    +0.388 N 
ATOM      2  H   UNL     1      -5.611  -2.985   3.515  0.00  0.00    -0.081 HD
ENDROOT
BRANCH   1   3
ATOM      3  C   UNL     1      -4.521  -1.646   4.602  0.00  0.00    -0.003 C 
BRANCH   3  10
ATOM      4  C   UNL     1      -2.041  -5.937   7.316  0.00  0.00    -0.012 A 
ATOM      5  C   UNL     1      -2.543  -4.791   6.697  0.00  0.00    +0.076 A 
ATOM      6  C   UNL     1      -2.005  -3.412   6.704  0.00  0.00    +0.260 A 
ATOM      7  O   UNL     1      -0.982  -3.143   7.309  0.00  0.00    -0.267 OA
ATOM      8  N   UNL     1      -2.675  -2.462   6.023  0.00  0.00    -0.312 N 
ATOM      9  H   UNL     1      -2.335  -1.553   6.017  0.00  0.00    +0.170 HD
ATOM     10  C   UNL     1      -3.814  -2.749   5.346  0.00  0.00    +0.094 A 
ATOM     11  N   UNL     1      -4.315  -3.954   5.319  0.00  0.00    -0.229 NA
ATOM     12  C   UNL     1      -3.735  -4.963   5.955  0.00  0.00    +0.116 A 
ATOM     13  S   UNL     1      -4.093  -6.690   6.155  0.00  0.00    -0.062 S 
ATOM     14  C   UNL     1      -2.696  -7.127   7.177  0.00  0.00    +0.102 A 
BRANCH   4  16
ATOM     15  C   UNL     1       0.429  -6.128   7.226  0.00  0.00    +0.009 C 
ATOM     16  C   UNL     1      -0.776  -5.863   8.130  0.00  0.00    +0.034 C 
ENDBRANCH   4  16
BRANCH  14  17
ATOM     17  C   UNL     1      -2.343  -8.435   7.731  0.00  0.00    +0.346 C 
ATOM     18  O   UNL     1      -1.346  -8.556   8.417  0.00  0.00    -0.244 OA
BRANCH  17  19
ATOM     19  O   UNL     1      -3.123  -9.507   7.481  0.00  0.00    -0.464 OA
ATOM     20  C   UNL     1      -2.718 -10.752   8.053  0.00  0.00    +0.280 C 
ENDBRANCH  17  19
ENDBRANCH  14  17
ENDBRANCH   3  10
ENDBRANCH   1   3
BRANCH   1  21
ATOM     21  C   UNL     1      -6.401  -1.130   3.205  0.00  0.00    -0.050 C 
BRANCH  21  22
ATOM     22  C   UNL     1      -5.523  -0.901   1.973  0.00  0.00    +0.141 C 
BRANCH  22  23
ATOM     23  O   UNL     1      -5.487  -2.092   1.185  0.00  0.00    -0.385 OA
ATOM     24  C   UNL     1      -4.637  -2.007   0.040  0.00  0.00    +0.193 C 
ENDBRANCH  22  23
ENDBRANCH  21  22
ENDBRANCH   1  21
BRANCH   1  25
ATOM     25  C   UNL     1      -6.699  -2.479   5.166  0.00  0.00    -0.043 C 
BRANCH  25  26
ATOM     26  C   UNL     1      -7.969  -3.125   4.607  0.00  0.00    +0.135 C 
BRANCH  26  27
ATOM     27  O   UNL     1      -7.641  -4.379   4.007  0.00  0.00    -0.390 OA
ATOM     28  H   UNL     1      -7.242  -5.015   4.617  0.00  0.00    +0.210 HD
ENDBRANCH  26  27
BRANCH  26  29
ATOM     29  C   UNL     1      -8.969  -3.349   5.744  0.00  0.00    +0.258 C 
BRANCH  29  30
ATOM     30  O   UNL     1     -10.197  -3.843   5.207  0.00  0.00    -0.489 OA
BRANCH  30  31
ATOM     31  C   UNL     1     -11.199  -4.096   6.089  0.00  0.00    +0.124 A 
ATOM     32  C   UNL     1     -11.005  -3.868   7.444  0.00  0.00    +0.046 A 
ATOM     33  C   UNL     1     -12.025  -4.126   8.339  0.00  0.00    +0.004 A 
ATOM     34  C   UNL     1     -13.238  -4.611   7.886  0.00  0.00    +0.000 A 
ATOM     35  C   UNL     1     -13.434  -4.840   6.537  0.00  0.00    +0.007 A 
ATOM     36  C   UNL     1     -12.418  -4.578   5.637  0.00  0.00    -0.009 A 
ATOM     37  C   UNL     1     -12.634  -4.822   4.165  0.00  0.00    +0.047 C 
ENDBRANCH  30  31
ENDBRANCH  29  30
ENDBRANCH  26  29
ENDBRANCH  25  26
ENDBRANCH   1  25
TORSDOF 14
