REMARK  Name = ZINC19798453
REMARK  8 active torsions:
REMARK  status: ('A' for Active; 'I' for Inactive)
REMARK    1  A    between atoms: C_1  and  C_2
REMARK    2  A    between atoms: C_2  and  C_3
REMARK    3  A    between atoms: C_3  and  C_4
REMARK    4  A    between atoms: C_4  and  N_5
REMARK    5  A    between atoms: N_5  and  C_6
REMARK    6  A    between atoms: N_16  and  C_17
REMARK    7  A    between atoms: C_22  and  C_27
REMARK    8  A    between atoms: C_24  and  C_26
REMARK                            x       y       z     vdW  Elec       q    Type
REMARK                         _______ _______ _______ _____ _____    ______ ____
ROOT
ATOM      1  C   UNL     1      -0.649   1.495   3.586  0.00  0.00    +0.051 C 
ATOM      2  C   UNL     1       0.355   1.918   4.629  0.00  0.00    -0.032 A 
ATOM      3  C   UNL     1       1.392   2.823   4.626  0.00  0.00    +0.004 A 
ATOM      4  C   UNL     1       2.160   2.998   5.765  0.00  0.00    +0.000 A 
ATOM      5  C   UNL     1       1.887   2.265   6.907  0.00  0.00    +0.001 A 
ATOM      6  C   UNL     1       0.850   1.355   6.920  0.00  0.00    +0.013 A 
ATOM      7  C   UNL     1       0.072   1.174   5.776  0.00  0.00    +0.040 A 
ATOM      8  C   UNL     1      -1.079   0.297   5.485  0.00  0.00    +0.246 C 
ATOM      9  O   UNL     1      -1.577  -0.480   6.276  0.00  0.00    -0.270 OA
ATOM     10  N   UNL     1      -1.498   0.480   4.221  0.00  0.00    -0.304 N 
ENDROOT
BRANCH  10  11
ATOM     11  C   UNL     1      -2.616  -0.217   3.583  0.00  0.00    +0.078 C 
ATOM     12  C   UNL     1      -3.904   0.068   4.358  0.00  0.00    +0.023 C 
ATOM     13  C   UNL     1      -3.752  -0.423   5.799  0.00  0.00    +0.002 C 
ATOM     14  C   UNL     1      -3.480  -1.929   5.798  0.00  0.00    +0.003 C 
ATOM     15  C   UNL     1      -2.192  -2.214   5.023  0.00  0.00    -0.009 C 
ATOM     16  C   UNL     1      -2.345  -1.723   3.582  0.00  0.00    +0.009 C 
ATOM     17  C   UNL     1      -1.057  -2.008   2.807  0.00  0.00    +0.009 C 
ATOM     18  C   UNL     1      -1.921  -3.720   5.022  0.00  0.00    +0.008 C 
ENDBRANCH  10  11
BRANCH   1  19
ATOM     19  N   UNL     1       0.041   0.921   2.424  0.00  0.00    +0.394 N 
ATOM     20  H   UNL     1      -0.073  -0.173   2.451  0.00  0.00    -0.083 HD
ATOM     21  H   UNL     1       1.109   1.179   2.485  0.00  0.00    -0.083 HD
BRANCH  19  22
ATOM     22  C   UNL     1      -0.518   1.441   1.169  0.00  0.00    -0.079 C 
BRANCH  22  23
ATOM     23  C   UNL     1       0.225   0.821  -0.016  0.00  0.00    -0.019 C 
BRANCH  23  25
ATOM     24  C   UNL     1       0.385   0.743  -2.508  0.00  0.00    +0.004 C 
ATOM     25  C   UNL     1      -0.357   1.363  -1.323  0.00  0.00    -0.005 C 
ENDBRANCH  23  25
ENDBRANCH  22  23
ENDBRANCH  19  22
ENDBRANCH   1  19
TORSDOF 5
