REMARK  Name = ZINC66915316
REMARK  8 active torsions:
REMARK  status: ('A' for Active; 'I' for Inactive)
REMARK    1  A    between atoms: C_1  and  C_2
REMARK    2  A    between atoms: C_2  and  C_3
REMARK    3  A    between atoms: C_3  and  C_5
REMARK    4  A    between atoms: C_3  and  N_22
REMARK    5  A    between atoms: C_5  and  N_6
REMARK    6  A    between atoms: C_7  and  C_9
REMARK    7  A    between atoms: C_16  and  S_18
REMARK    8  A    between atoms: S_18  and  C_21
REMARK                            x       y       z     vdW  Elec       q    Type
REMARK                         _______ _______ _______ _____ _____    ______ ____
ROOT
ATOM      1  N   UNL     1       0.975  -2.480  -2.716  0.00  0.00    -0.312 N 
ATOM      2  C   UNL     1       0.858  -3.774  -3.073  0.00  0.00    +0.265 C 
ATOM      3  O   UNL     1       0.324  -4.568  -2.320  0.00  0.00    -0.268 OA
ATOM      4  H   UNL     1       1.400  -1.847  -3.316  0.00  0.00    +0.149 HD
ENDROOT
BRANCH   2   5
ATOM      5  C   UNL     1       1.371  -4.224  -4.367  0.00  0.00    +0.153 A 
ATOM      6  C   UNL     1       1.317  -5.529  -4.877  0.00  0.00    +0.080 A 
ATOM      7  C   UNL     1       0.807  -6.738  -4.384  0.00  0.00    +0.028 A 
ATOM      8  C   UNL     1       0.914  -7.864  -5.146  0.00  0.00    +0.004 A 
ATOM      9  C   UNL     1       1.530  -7.793  -6.405  0.00  0.00    +0.018 A 
ATOM     10  C   UNL     1       2.016  -6.619  -6.864  0.00  0.00    +0.094 A 
ATOM     11  N   UNL     1       1.915  -5.484  -6.111  0.00  0.00    -0.284 N 
ATOM     12  C   UNL     1       2.308  -4.197  -6.322  0.00  0.00    +0.256 A 
ATOM     13  N   UNL     1       1.981  -3.462  -5.298  0.00  0.00    -0.206 NA
BRANCH  12  14
ATOM     14  S   UNL     1       3.130  -3.611  -7.766  0.00  0.00    +0.028 S 
ATOM     15  O   UNL     1       3.863  -2.474  -7.332  0.00  0.00    -0.167 OA
ATOM     16  O   UNL     1       3.801  -4.750  -8.288  0.00  0.00    -0.167 OA
ATOM     17  C   UNL     1       1.797  -3.104  -8.888  0.00  0.00    +0.204 C 
ENDBRANCH  12  14
ENDBRANCH   2   5
BRANCH   1  18
ATOM     18  C   UNL     1       0.461  -2.028  -1.420  0.00  0.00    +0.089 C 
BRANCH  18  19
ATOM     19  C   UNL     1       0.566  -0.504  -1.333  0.00  0.00    -0.051 C 
BRANCH  19  20
ATOM     20  N   UNL     1      -0.359   0.107  -2.297  0.00  0.00    +0.383 N 
ATOM     21  C   UNL     1      -0.336   1.586  -2.161  0.00  0.00    -0.078 C 
ATOM     22  C   UNL     1      -0.867   2.075  -3.532  0.00  0.00    -0.020 C 
ATOM     23  C   UNL     1      -0.245   1.066  -4.524  0.00  0.00    -0.020 C 
ATOM     24  C   UNL     1       0.084  -0.178  -3.679  0.00  0.00    -0.078 C 
ATOM     25  H   UNL     1      -1.294  -0.243  -2.152  0.00  0.00    -0.081 HD
ENDBRANCH  19  20
BRANCH  19  27
ATOM     26  C   UNL     1       0.744   1.363   0.318  0.00  0.00    +0.002 C 
ATOM     27  C   UNL     1       0.203  -0.049   0.082  0.00  0.00    -0.017 C 
ENDBRANCH  19  27
ENDBRANCH  18  19
ENDBRANCH   1  18
TORSDOF 6
