REMARK  Name = ZINC63270605
REMARK  9 active torsions:
REMARK  status: ('A' for Active; 'I' for Inactive)
REMARK    1  A    between atoms: C_1  and  C_2
REMARK    2  A    between atoms: C_2  and  C_4
REMARK    3  A    between atoms: C_2  and  N_14
REMARK    4  A    between atoms: C_4  and  C_5
REMARK    5  A    between atoms: C_15  and  C_17
REMARK    6  A    between atoms: C_20  and  O_23
REMARK    7  A    between atoms: O_23  and  C_24
REMARK    8  A    between atoms: C_29  and  O_35
REMARK    9  A    between atoms: O_35  and  C_36
REMARK                            x       y       z     vdW  Elec       q    Type
REMARK                         _______ _______ _______ _____ _____    ______ ____
ROOT
ATOM      1  C   UNL     1       0.630  -1.501  -3.475  0.00  0.00    +0.037 A 
ATOM      2  C   UNL     1       1.988  -1.829  -3.440  0.00  0.00    +0.016 A 
ATOM      3  C   UNL     1       2.651  -2.133  -4.607  0.00  0.00    +0.047 A 
ATOM      4  C   UNL     1       1.972  -2.115  -5.820  0.00  0.00    +0.129 A 
ATOM      5  C   UNL     1       0.621  -1.789  -5.859  0.00  0.00    +0.047 A 
ATOM      6  C   UNL     1      -0.051  -1.489  -4.696  0.00  0.00    +0.016 A 
ENDROOT
BRANCH   1   8
ATOM      7  N   UNL     1       0.574  -1.186  -1.050  0.00  0.00    -0.308 N 
ATOM      8  C   UNL     1      -0.085  -1.174  -2.226  0.00  0.00    +0.244 C 
ATOM      9  O   UNL     1      -1.268  -0.894  -2.258  0.00  0.00    -0.270 OA
ATOM     10  H   UNL     1       1.517  -1.409  -1.025  0.00  0.00    +0.149 HD
BRANCH   7  12
ATOM     11  C   UNL     1      -0.156   0.656   0.384  0.00  0.00    +0.028 C 
ATOM     12  C   UNL     1      -0.136  -0.861   0.190  0.00  0.00    +0.074 C 
BRANCH  12  13
ATOM     13  C   UNL     1       0.579  -1.517   1.373  0.00  0.00    +0.055 C 
BRANCH  13  14
ATOM     14  C   UNL     1       0.491  -3.016   1.244  0.00  0.00    -0.040 C 
ATOM     15  C   UNL     1       1.416  -3.841   0.701  0.00  0.00    -0.001 A 
ATOM     16  C   UNL     1       2.728  -3.598   0.089  0.00  0.00    +0.010 A 
ATOM     17  C   UNL     1       3.439  -4.650  -0.377  0.00  0.00    +0.001 A 
ATOM     18  C   UNL     1       2.955  -5.963  -0.291  0.00  0.00    +0.002 A 
ATOM     19  C   UNL     1       1.759  -6.265   0.257  0.00  0.00    +0.026 A 
ATOM     20  C   UNL     1       0.927  -5.236   0.780  0.00  0.00    +0.043 A 
ATOM     21  N   UNL     1      -0.253  -5.272   1.350  0.00  0.00    -0.380 N 
ATOM     22  C   UNL     1      -0.644  -3.903   1.703  0.00  0.00    +0.144 C 
ATOM     23  H   UNL     1      -0.778  -6.072   1.514  0.00  0.00    +0.160 HD
ENDBRANCH  13  14
ENDBRANCH  12  13
ENDBRANCH   7  12
ENDBRANCH   1   8
BRANCH   4  24
ATOM     24  O   UNL     1       2.629  -2.415  -6.969  0.00  0.00    -0.449 OA
BRANCH  24  25
ATOM     25  C   UNL     1       3.974  -2.616  -6.902  0.00  0.00    +0.210 A 
ATOM     26  C   UNL     1       4.490  -3.837  -7.141  0.00  0.00    +0.245 A 
ATOM     27  O   UNL     1       5.804  -4.091  -7.089  0.00  0.00    -0.459 OA
ATOM     28  C   UNL     1       6.713  -3.140  -6.792  0.00  0.00    +0.142 A 
ATOM     29  C   UNL     1       8.068  -3.437  -6.747  0.00  0.00    +0.092 A 
ATOM     30  C   UNL     1       8.979  -2.441  -6.440  0.00  0.00    +0.124 A 
ATOM     31  C   UNL     1       8.548  -1.142  -6.176  0.00  0.00    +0.046 A 
ATOM     32  C   UNL     1       7.218  -0.835  -6.216  0.00  0.00    +0.019 A 
ATOM     33  C   UNL     1       6.287  -1.827  -6.524  0.00  0.00    +0.068 A 
ATOM     34  C   UNL     1       4.845  -1.535  -6.584  0.00  0.00    +0.234 A 
ATOM     35  O   UNL     1       4.414  -0.415  -6.367  0.00  0.00    -0.283 OA
BRANCH  30  36
ATOM     36  O   UNL     1      10.305  -2.732  -6.397  0.00  0.00    -0.495 OA
ATOM     37  C   UNL     1      11.194  -1.660  -6.074  0.00  0.00    +0.277 C 
ENDBRANCH  30  36
ENDBRANCH  24  25
ENDBRANCH   4  24
TORSDOF 7
