REMARK  Name = ZINC63140913
REMARK  6 active torsions:
REMARK  status: ('A' for Active; 'I' for Inactive)
REMARK    1  A    between atoms: C_1  and  O_2
REMARK    2  A    between atoms: O_2  and  C_3
REMARK    3  A    between atoms: C_8  and  C_9
REMARK    4  A    between atoms: N_28  and  C_31
REMARK    5  A    between atoms: C_31  and  C_32
REMARK    6  A    between atoms: C_32  and  C_33
REMARK                            x       y       z     vdW  Elec       q    Type
REMARK                         _______ _______ _______ _____ _____    ______ ____
ROOT
ATOM      1  C   UNL     1       0.018  -2.829  -0.013  0.00  0.00    +0.137 C 
ATOM      2  C   UNL     1       0.535  -2.971   1.419  0.00  0.00    +0.131 C 
ATOM      3  C   UNL     1      -0.364  -4.009   2.085  0.00  0.00    -0.034 C 
ATOM      4  C   UNL     1      -0.959  -3.403   3.103  0.00  0.00    -0.001 A 
ATOM      5  C   UNL     1      -1.905  -3.894   4.119  0.00  0.00    +0.010 A 
ATOM      6  C   UNL     1      -2.328  -2.984   5.035  0.00  0.00    +0.001 A 
ATOM      7  C   UNL     1      -1.909  -1.650   5.043  0.00  0.00    +0.002 A 
ATOM      8  C   UNL     1      -1.041  -1.113   4.149  0.00  0.00    +0.026 A 
ATOM      9  C   UNL     1      -0.525  -1.973   3.136  0.00  0.00    +0.043 A 
ATOM     10  N   UNL     1       0.330  -1.722   2.165  0.00  0.00    -0.375 N 
ATOM     11  C   UNL     1      -0.468  -5.410   1.547  0.00  0.00    +0.065 C 
ATOM     12  C   UNL     1      -0.517  -5.377   0.042  0.00  0.00    +0.167 C 
ATOM     13  N   UNL     1      -0.247  -4.122  -0.625  0.00  0.00    -0.279 N 
ATOM     14  C   UNL     1      -0.298  -4.165  -1.997  0.00  0.00    +0.234 C 
ATOM     15  O   UNL     1      -0.025  -3.195  -2.672  0.00  0.00    -0.274 OA
ATOM     16  C   UNL     1      -0.711  -5.478  -2.626  0.00  0.00    +0.203 C 
ATOM     17  N   UNL     1      -1.865  -6.013  -1.879  0.00  0.00    -0.291 N 
ATOM     18  C   UNL     1      -1.775  -5.989  -0.521  0.00  0.00    +0.237 C 
ATOM     19  O   UNL     1      -2.651  -6.434   0.190  0.00  0.00    -0.274 OA
ATOM     20  H   UNL     1       0.751  -0.871   1.969  0.00  0.00    +0.160 HD
ENDROOT
BRANCH   1  26
ATOM     21  C   UNL     1      -1.200  -0.637   0.010  0.00  0.00    +0.125 A 
ATOM     22  C   UNL     1      -2.375   0.101   0.019  0.00  0.00    +0.046 A 
ATOM     23  C   UNL     1      -3.596  -0.545   0.027  0.00  0.00    +0.004 A 
ATOM     24  C   UNL     1      -3.648  -1.927   0.026  0.00  0.00    +0.001 A 
ATOM     25  C   UNL     1      -2.479  -2.665   0.017  0.00  0.00    +0.009 A 
ATOM     26  C   UNL     1      -1.255  -2.023   0.003  0.00  0.00    +0.017 A 
BRANCH  21  28
ATOM     27  C   UNL     1      -0.017   1.425   0.010  0.00  0.00    +0.277 C 
ATOM     28  O   UNL     1       0.002  -0.004   0.002  0.00  0.00    -0.495 OA
ENDBRANCH  21  28
ENDBRANCH   1  26
BRANCH  17  29
ATOM     29  C   UNL     1      -3.047  -6.541  -2.564  0.00  0.00    +0.113 C 
BRANCH  29  30
ATOM     30  C   UNL     1      -2.861  -8.038  -2.819  0.00  0.00    +0.054 C 
BRANCH  30  31
ATOM     31  C   UNL     1      -4.077  -8.582  -3.524  0.00  0.00    -0.046 A 
ATOM     32  C   UNL     1      -5.142  -9.069  -2.789  0.00  0.00    +0.004 A 
ATOM     33  C   UNL     1      -6.257  -9.568  -3.435  0.00  0.00    +0.000 A 
ATOM     34  C   UNL     1      -6.309  -9.579  -4.816  0.00  0.00    +0.000 A 
ATOM     35  C   UNL     1      -5.245  -9.091  -5.551  0.00  0.00    +0.000 A 
ATOM     36  C   UNL     1      -4.131  -8.588  -4.905  0.00  0.00    +0.004 A 
ENDBRANCH  30  31
ENDBRANCH  29  30
ENDBRANCH  17  29
TORSDOF 5
