REMARK  Name = ZINC39352950
REMARK  5 active torsions:
REMARK  status: ('A' for Active; 'I' for Inactive)
REMARK    1  A    between atoms: C_1  and  C_2
REMARK    2  A    between atoms: C_5  and  N_8
REMARK    3  A    between atoms: C_14  and  C_15
REMARK    4  A    between atoms: C_18  and  S_20
REMARK    5  A    between atoms: S_20  and  C_21
REMARK                            x       y       z     vdW  Elec       q    Type
REMARK                         _______ _______ _______ _____ _____    ______ ____
ROOT
ATOM      1  N   UNL     1       1.220  -4.250  -0.996  0.00  0.00    -0.226 NA
ATOM      2  C   UNL     1       1.896  -4.892  -0.067  0.00  0.00    +0.166 C 
ATOM      3  N   UNL     1       2.057  -6.252   0.102  0.00  0.00    -0.260 N 
ATOM      4  C   UNL     1       2.781  -6.712   1.107  0.00  0.00    +0.257 C 
ATOM      5  O   UNL     1       2.932  -7.911   1.269  0.00  0.00    -0.269 OA
ATOM      6  C   UNL     1       3.381  -5.779   1.995  0.00  0.00    +0.081 C 
ATOM      7  C   UNL     1       4.169  -6.009   3.102  0.00  0.00    +0.066 C 
ATOM      8  S   UNL     1       2.845  -4.226   1.291  0.00  0.00    -0.049 S 
ATOM      9  H   UNL     1       1.638  -6.870  -0.516  0.00  0.00    +0.157 HD
ENDROOT
BRANCH   1  14
ATOM     10  C   UNL     1       1.081   1.393  -0.992  0.00  0.00    +0.044 C 
ATOM     11  C   UNL     1       1.118  -0.113  -0.993  0.00  0.00    -0.050 A 
ATOM     12  C   UNL     1       1.335  -0.796  -2.177  0.00  0.00    +0.005 A 
ATOM     13  C   UNL     1       1.371  -2.175  -2.185  0.00  0.00    +0.028 A 
ATOM     14  C   UNL     1       1.186  -2.882  -0.995  0.00  0.00    +0.067 A 
ATOM     15  C   UNL     1       0.967  -2.186   0.197  0.00  0.00    +0.028 A 
ATOM     16  C   UNL     1       0.940  -0.807   0.191  0.00  0.00    +0.005 A 
ENDBRANCH   1  14
BRANCH   7  17
ATOM     17  C   UNL     1       4.332  -7.319   3.589  0.00  0.00    +0.131 A 
ATOM     18  C   UNL     1       5.197  -7.712   4.596  0.00  0.00    +0.050 A 
ATOM     19  C   UNL     1       5.031  -9.089   4.754  0.00  0.00    +0.057 A 
ATOM     20  C   UNL     1       4.085  -9.488   3.853  0.00  0.00    +0.165 A 
ATOM     21  O   UNL     1       3.667  -8.416   3.160  0.00  0.00    -0.449 OA
BRANCH  20  22
ATOM     22  S   UNL     1       3.504 -11.137   3.639  0.00  0.00    -0.046 S 
BRANCH  22  23
ATOM     23  C   UNL     1       4.371 -12.079   4.923  0.00  0.00    +0.240 C 
ATOM     24  N   UNL     1       5.843 -11.901   4.785  0.00  0.00    -0.275 NA
ATOM     25  C   UNL     1       6.274 -11.982   6.189  0.00  0.00    +0.128 C 
ATOM     26  C   UNL     1       7.601 -11.301   6.388  0.00  0.00    -0.002 C 
ATOM     27  C   UNL     1       7.750 -10.585   7.512  0.00  0.00    -0.002 C 
ATOM     28  C   UNL     1       6.675 -10.472   8.492  0.00  0.00    +0.002 C 
ATOM     29  C   UNL     1       5.407 -10.869   8.246  0.00  0.00    +0.025 C 
ATOM     30  C   UNL     1       5.092 -11.457   6.985  0.00  0.00    +0.060 C 
ATOM     31  N   UNL     1       4.029 -11.556   6.255  0.00  0.00    -0.256 NA
ATOM     32  H   UNL     1       6.248 -12.647   4.239  0.00  0.00    +0.126 HD
ENDBRANCH  22  23
ENDBRANCH  20  22
ENDBRANCH   7  17
TORSDOF 4
