REMARK  Name = ZINC11458439
REMARK  7 active torsions:
REMARK  status: ('A' for Active; 'I' for Inactive)
REMARK    1  A    between atoms: C_4  and  C_7
REMARK    2  A    between atoms: C_7  and  C_9
REMARK    3  A    between atoms: C_7  and  O_22
REMARK    4  A    between atoms: N_11  and  C_12
REMARK    5  A    between atoms: C_15  and  N_19
REMARK    6  A    between atoms: O_22  and  C_23
REMARK    7  A    between atoms: C_23  and  C_25
REMARK                            x       y       z     vdW  Elec       q    Type
REMARK                         _______ _______ _______ _____ _____    ______ ____
ROOT
ATOM      1  C   UNL     1       1.276   3.704   0.287  0.00  0.00    +0.292 C 
ENDROOT
BRANCH   1   5
ATOM      2  C   UNL     1       1.332  -0.566   0.172  0.00  0.00    +0.000 A 
ATOM      3  C   UNL     1       0.127   0.110   0.143  0.00  0.00    +0.000 A 
ATOM      4  C   UNL     1       0.109   1.492   0.180  0.00  0.00    +0.008 A 
ATOM      5  C   UNL     1       1.296   2.197   0.247  0.00  0.00    +0.002 A 
ATOM      6  C   UNL     1       2.501   1.521   0.276  0.00  0.00    +0.008 A 
ATOM      7  C   UNL     1       2.519   0.139   0.238  0.00  0.00    +0.000 A 
ENDBRANCH   1   5
BRANCH   1   8
ATOM      8  C   UNL     1       1.460   4.170   1.708  0.00  0.00    +0.263 C 
ATOM      9  O   UNL     1       2.452   4.796   2.017  0.00  0.00    -0.271 OA
ATOM     10  N   UNL     1       0.522   3.893   2.636  0.00  0.00    -0.281 N 
ATOM     11  H   UNL     1      -0.410   3.389   2.341  0.00  0.00    +0.155 HD
BRANCH  10  12
ATOM     12  C   UNL     1       0.735   4.246   3.974  0.00  0.00    +0.052 A 
ATOM     13  C   UNL     1       1.430   5.407   4.285  0.00  0.00    +0.027 A 
ATOM     14  C   UNL     1       1.638   5.752   5.606  0.00  0.00    +0.034 A 
ATOM     15  C   UNL     1       1.156   4.943   6.619  0.00  0.00    +0.128 A 
ATOM     16  C   UNL     1       0.463   3.786   6.313  0.00  0.00    +0.054 A 
ATOM     17  C   UNL     1       0.246   3.438   4.993  0.00  0.00    +0.064 A 
ATOM     18 CL   UNL     1      -0.629   1.988   4.609  0.00  0.00    -0.082 Cl
BRANCH  15  19
ATOM     19  N   UNL     1       1.381   5.317   8.033  0.00  0.00    +0.056 N 
ATOM     20  O   UNL     1       1.990   6.337   8.304  0.00  0.00    -0.126 OA
ATOM     21  O   UNL     1       0.956   4.606   8.926  0.00  0.00    -0.126 OA
ENDBRANCH  15  19
ENDBRANCH  10  12
ENDBRANCH   1   8
BRANCH   1  22
ATOM     22  O   UNL     1       2.352   4.224  -0.536  0.00  0.00    -0.444 OA
BRANCH  22  23
ATOM     23  C   UNL     1       2.071   4.459  -1.833  0.00  0.00    +0.341 C 
ATOM     24  O   UNL     1       0.958   4.235  -2.263  0.00  0.00    -0.245 OA
BRANCH  23  25
ATOM     25  C   UNL     1       3.118   4.989  -2.732  0.00  0.00    +0.073 A 
ATOM     26  C   UNL     1       4.428   5.151  -2.299  0.00  0.00    +0.085 A 
ATOM     27  C   UNL     1       5.388   5.652  -3.186  0.00  0.00    +0.250 A 
ATOM     28  N   UNL     1       5.097   5.988  -4.421  0.00  0.00    -0.322 N 
ATOM     29  C   UNL     1       3.864   5.872  -4.922  0.00  0.00    +0.050 A 
ATOM     30  C   UNL     1       2.816   5.371  -4.111  0.00  0.00    +0.012 A 
ATOM     31  C   UNL     1       1.525   5.250  -4.638  0.00  0.00    +0.011 A 
ATOM     32  C   UNL     1       1.288   5.618  -5.929  0.00  0.00    +0.001 A 
ATOM     33  C   UNL     1       2.315   6.112  -6.730  0.00  0.00    +0.002 A 
ATOM     34  C   UNL     1       3.582   6.241  -6.249  0.00  0.00    +0.026 A 
ATOM     35  O   UNL     1       6.664   5.800  -2.752  0.00  0.00    -0.268 OA
ATOM     36  H   UNL     1       5.882   6.382  -5.083  0.00  0.00    +0.169 HD
ENDBRANCH  23  25
ENDBRANCH  22  23
ENDBRANCH   1  22
TORSDOF 7
