REMARK  Name = ZINC40901918
REMARK  9 active torsions:
REMARK  status: ('A' for Active; 'I' for Inactive)
REMARK    1  A    between atoms: C_1  and  C_2
REMARK    2  A    between atoms: C_2  and  C_3
REMARK    3  A    between atoms: C_2  and  N_4
REMARK    4  A    between atoms: C_5  and  C_7
REMARK    5  A    between atoms: C_7  and  N_8
REMARK    6  A    between atoms: C_14  and  C_16
REMARK    7  A    between atoms: N_19  and  C_22
REMARK    8  A    between atoms: C_25  and  C_29
REMARK    9  A    between atoms: C_31  and  C_34
REMARK                            x       y       z     vdW  Elec       q    Type
REMARK                         _______ _______ _______ _____ _____    ______ ____
ROOT
ATOM      1  C   UNL     1      -7.230  -3.279  -5.634  0.00  0.00    +0.078 C 
ATOM      2  C   UNL     1      -7.920  -1.983  -6.065  0.00  0.00    +0.031 C 
ATOM      3  C   UNL     1      -9.438  -2.169  -5.993  0.00  0.00    +0.106 C 
ATOM      4  N   UNL     1      -9.809  -3.344  -6.792  0.00  0.00    -0.328 N 
ATOM      5  C   UNL     1      -9.140  -4.623  -6.521  0.00  0.00    +0.106 C 
ATOM      6  C   UNL     1      -7.624  -4.410  -6.587  0.00  0.00    +0.031 C 
ENDROOT
BRANCH   1  13
ATOM      7  N   UNL     1      -3.818  -2.403  -2.142  0.00  0.00    -0.291 NA
ATOM      8  C   UNL     1      -3.131  -3.055  -3.264  0.00  0.00    +0.104 C 
ATOM      9  C   UNL     1      -3.631  -2.456  -4.583  0.00  0.00    +0.123 C 
ATOM     10  N   UNL     1      -5.098  -2.550  -4.612  0.00  0.00    -0.299 N 
ATOM     11  C   UNL     1      -5.852  -2.041  -3.457  0.00  0.00    +0.123 C 
ATOM     12  C   UNL     1      -5.265  -2.657  -2.182  0.00  0.00    +0.104 C 
ATOM     13  C   UNL     1      -5.736  -3.090  -5.670  0.00  0.00    +0.219 C 
ATOM     14  O   UNL     1      -5.106  -3.422  -6.652  0.00  0.00    -0.275 OA
BRANCH   7  15
ATOM     15  C   UNL     1      -3.246  -2.826  -0.856  0.00  0.00    +0.180 C 
BRANCH  15  17
ATOM     16  N   UNL     1      -1.097  -2.603   0.349  0.00  0.00    -0.312 N 
ATOM     17  C   UNL     1      -1.826  -2.332  -0.752  0.00  0.00    +0.227 C 
ATOM     18  O   UNL     1      -1.339  -1.692  -1.659  0.00  0.00    -0.274 OA
ATOM     19  H   UNL     1      -1.487  -3.116   1.074  0.00  0.00    +0.149 HD
BRANCH  16  21
ATOM     20  C   UNL     1       0.287  -0.688   0.979  0.00  0.00    +0.027 C 
ATOM     21  C   UNL     1       0.283  -2.123   0.450  0.00  0.00    +0.067 C 
ATOM     22  C   UNL     1       1.067  -3.023   1.408  0.00  0.00    +0.027 C 
ENDBRANCH  16  21
ENDBRANCH  15  17
ENDBRANCH   7  15
ENDBRANCH   1  13
BRANCH   4  23
ATOM     23  C   UNL     1     -10.780  -3.248  -7.791  0.00  0.00    +0.065 A 
ATOM     24  C   UNL     1     -10.409  -2.929  -9.091  0.00  0.00    +0.027 A 
ATOM     25  C   UNL     1     -11.366  -2.833 -10.079  0.00  0.00    +0.013 A 
ATOM     26  C   UNL     1     -12.707  -3.057  -9.774  0.00  0.00    +0.025 A 
ATOM     27  C   UNL     1     -13.080  -3.377  -8.469  0.00  0.00    +0.052 A 
ATOM     28  C   UNL     1     -12.119  -3.477  -7.484  0.00  0.00    +0.145 A 
ATOM     29  F   UNL     1     -12.477  -3.792  -6.220  0.00  0.00    -0.204 F 
BRANCH  26  30
ATOM     30  C   UNL     1     -13.738  -2.953 -10.835  0.00  0.00    +0.202 A 
ATOM     31  N   UNL     1     -15.059  -3.140 -10.668  0.00  0.00    -0.191 NA
ATOM     32  C   UNL     1     -15.681  -2.974 -11.800  0.00  0.00    +0.231 A 
ATOM     33  O   UNL     1     -14.776  -2.674 -12.741  0.00  0.00    -0.337 OA
ATOM     34  N   UNL     1     -13.513  -2.659 -12.093  0.00  0.00    -0.056 NA
BRANCH  32  35
ATOM     35  C   UNL     1     -17.167  -3.100 -12.016  0.00  0.00    +0.078 C 
ATOM     36  C   UNL     1     -17.677  -3.066 -13.458  0.00  0.00    +0.014 C 
ATOM     37  C   UNL     1     -17.912  -1.869 -12.535  0.00  0.00    +0.014 C 
ENDBRANCH  32  35
ENDBRANCH  26  30
ENDBRANCH   4  23
TORSDOF 7
