REMARK  Name = ZINC64061312
REMARK  8 active torsions:
REMARK  status: ('A' for Active; 'I' for Inactive)
REMARK    1  A    between atoms: C_1  and  C_2
REMARK    2  A    between atoms: C_10  and  C_12
REMARK    3  A    between atoms: N_14  and  C_15
REMARK    4  A    between atoms: C_15  and  C_16
REMARK    5  A    between atoms: C_27  and  C_29
REMARK    6  A    between atoms: C_29  and  C_30
REMARK    7  A    between atoms: C_30  and  C_31
REMARK    8  A    between atoms: C_30  and  C_32
REMARK                            x       y       z     vdW  Elec       q    Type
REMARK                         _______ _______ _______ _____ _____    ______ ____
ROOT
ATOM      1  C   UNL     1       2.521   0.620   3.667  0.00  0.00    +0.135 C 
ENDROOT
BRANCH   1   2
ATOM      2  C   UNL     1       2.314   1.859   4.540  0.00  0.00    +0.136 C 
ATOM      3  C   UNL     1       3.593   2.155   5.365  0.00  0.00    +0.036 C 
ATOM      4  C   UNL     1       3.434   3.679   5.620  0.00  0.00    +0.038 C 
ATOM      5  C   UNL     1       2.748   4.156   4.323  0.00  0.00    +0.073 C 
ATOM      6  O   UNL     1       2.119   3.022   3.718  0.00  0.00    -0.369 OA
ATOM      7  C   UNL     1       1.699   5.215   4.664  0.00  0.00    +0.054 C 
ATOM      8  C   UNL     1       1.002   5.671   3.378  0.00  0.00    +0.110 C 
ATOM      9  N   UNL     1       2.023   6.111   2.418  0.00  0.00    -0.301 N 
ATOM     10  C   UNL     1       3.119   5.193   2.082  0.00  0.00    +0.110 C 
ATOM     11  C   UNL     1       3.798   4.741   3.379  0.00  0.00    +0.054 C 
ATOM     12  C   UNL     1       1.954   7.334   1.855  0.00  0.00    +0.216 C 
ATOM     13  O   UNL     1       1.043   8.082   2.140  0.00  0.00    -0.276 OA
BRANCH  12  14
ATOM     14  C   UNL     1       3.009   7.771   0.871  0.00  0.00    +0.099 C 
BRANCH  14  15
ATOM     15  C   UNL     1       2.698   9.188   0.386  0.00  0.00    -0.008 C 
ATOM     16  C   UNL     1       2.809  10.164   1.559  0.00  0.00    +0.008 C 
ATOM     17  C   UNL     1       3.696   9.584  -0.704  0.00  0.00    +0.008 C 
ENDBRANCH  14  15
ENDBRANCH  12  14
ENDBRANCH   1   2
BRANCH   1  20
ATOM     18  C   UNL     1       1.266  -0.670   2.024  0.00  0.00    +0.240 C 
ATOM     19  O   UNL     1       2.221  -1.410   1.919  0.00  0.00    -0.273 OA
ATOM     20  N   UNL     1       1.315   0.377   2.872  0.00  0.00    -0.311 N 
ATOM     21  H   UNL     1       0.551   0.969   2.955  0.00  0.00    +0.149 HD
BRANCH  18  31
ATOM     22  C   UNL     1      -0.018   1.503   0.010  0.00  0.00    +0.042 C 
ATOM     23  C   UNL     1       0.002  -0.004   0.002  0.00  0.00    -0.033 C 
ATOM     24  C   UNL     1       0.009  -0.811  -1.083  0.00  0.00    +0.001 A 
ATOM     25  C   UNL     1      -0.002  -0.538  -2.525  0.00  0.00    +0.030 A 
ATOM     26  C   UNL     1       0.009  -1.579  -3.390  0.00  0.00    +0.042 A 
ATOM     27  C   UNL     1       0.028  -2.909  -2.944  0.00  0.00    +0.022 A 
ATOM     28  C   UNL     1       0.038  -3.238  -1.635  0.00  0.00    +0.027 A 
ATOM     29  C   UNL     1       0.030  -2.223  -0.638  0.00  0.00    +0.043 A 
ATOM     30  N   UNL     1       0.036  -2.286   0.671  0.00  0.00    -0.370 N 
ATOM     31  C   UNL     1       0.026  -0.920   1.206  0.00  0.00    +0.193 C 
ATOM     32 CL   UNL     1      -0.004  -1.260  -5.097  0.00  0.00    -0.084 Cl
ATOM     33  H   UNL     1       0.049  -3.100   1.199  0.00  0.00    +0.161 HD
ENDBRANCH  18  31
ENDBRANCH   1  20
TORSDOF 5
