REMARK  Name = ZINC12345150
REMARK  12 active torsions:
REMARK  status: ('A' for Active; 'I' for Inactive)
REMARK    1  A    between atoms: C_1  and  C_2
REMARK    2  A    between atoms: C_3  and  C_37
REMARK    3  A    between atoms: N_6  and  C_30
REMARK    4  A    between atoms: C_7  and  N_80
REMARK    5  A    between atoms: C_9  and  C_10
REMARK    6  A    between atoms: C_9  and  N_80
REMARK    7  A    between atoms: C_10  and  C_29
REMARK    8  A    between atoms: C_14  and  C_28
REMARK    9  A    between atoms: C_23  and  C_25
REMARK   10  A    between atoms: C_25  and  C_26
REMARK   11  A    between atoms: C_25  and  C_27
REMARK   12  A    between atoms: C_30  and  C_31
REMARK                            x       y       z     vdW  Elec       q    Type
REMARK                         _______ _______ _______ _____ _____    ______ ____
ROOT
ATOM      1  C   UNL     1       2.049  -2.874  -6.791  0.00  0.00    -0.044 C 
ATOM      2  C   UNL     1       3.067  -4.011  -6.858  0.00  0.00    +0.005 C 
ATOM      3  C   UNL     1       4.425  -3.533  -6.347  0.00  0.00    +0.001 C 
ATOM      4  C   UNL     1       4.288  -3.094  -4.894  0.00  0.00    +0.011 C 
ATOM      5  C   UNL     1       3.283  -1.950  -4.749  0.00  0.00    -0.004 C 
ATOM      6  C   UNL     1       1.949  -2.287  -5.396  0.00  0.00    +0.004 C 
ATOM      7  C   UNL     1       1.159  -3.200  -4.453  0.00  0.00    +0.009 C 
ATOM      8  C   UNL     1       0.712  -2.344  -3.257  0.00  0.00    +0.036 C 
ATOM      9  C   UNL     1       1.948  -1.810  -2.581  0.00  0.00    -0.043 A 
ATOM     10  C   UNL     1       3.135  -1.683  -3.262  0.00  0.00    -0.038 A 
ATOM     11  C   UNL     1       4.269  -1.269  -2.573  0.00  0.00    +0.005 A 
ATOM     12  C   UNL     1       4.199  -0.955  -1.230  0.00  0.00    +0.004 A 
ATOM     13  C   UNL     1       2.993  -1.046  -0.561  0.00  0.00    -0.045 A 
ATOM     14  C   UNL     1       1.870  -1.479  -1.237  0.00  0.00    +0.007 A 
ATOM     15  C   UNL     1       3.873  -0.668  -5.357  0.00  0.00    +0.016 C 
ATOM     16  C   UNL     1       2.416  -1.800  -7.825  0.00  0.00    +0.009 C 
ENDROOT
BRANCH  13  17
ATOM     17  C   UNL     1       2.905  -0.681   0.897  0.00  0.00    +0.013 C 
ATOM     18  C   UNL     1       3.317   0.781   1.083  0.00  0.00    +0.012 C 
ATOM     19  C   UNL     1       3.841  -1.582   1.706  0.00  0.00    +0.012 C 
ENDBRANCH  13  17
BRANCH   1  20
ATOM     20  C   UNL     1       0.686  -3.436  -7.237  0.00  0.00    -0.073 C 
BRANCH  20  21
ATOM     21  N   UNL     1       0.815  -3.999  -8.594  0.00  0.00    +0.394 N 
ATOM     22  H   UNL     1       1.115  -3.260  -9.240  0.00  0.00    -0.083 HD
ATOM     23  H   UNL     1       1.516  -4.750  -8.584  0.00  0.00    -0.083 HD
BRANCH  21  30
ATOM     24  C   UNL     1      -0.813  -2.803 -11.075  0.00  0.00    +0.039 C 
ATOM     25  C   UNL     1      -0.707  -4.191 -10.498  0.00  0.00    -0.062 C 
ATOM     26  C   UNL     1      -0.797  -5.335 -11.169  0.00  0.00    +0.010 C 
ATOM     27  C   UNL     1      -0.641  -6.465 -10.247  0.00  0.00    +0.241 C 
ATOM     28  O   UNL     1      -0.676  -7.637 -10.569  0.00  0.00    -0.270 OA
ATOM     29  N   UNL     1      -0.452  -6.013  -8.993  0.00  0.00    -0.305 N 
ATOM     30  C   UNL     1      -0.478  -4.546  -9.047  0.00  0.00    +0.046 C 
ATOM     31  C   UNL     1      -1.025  -5.452 -12.654  0.00  0.00    +0.049 C 
BRANCH  29  32
ATOM     32  C   UNL     1      -0.257  -6.835  -7.796  0.00  0.00    +0.138 C 
BRANCH  32  33
ATOM     33  C   UNL     1      -1.614  -7.138  -7.158  0.00  0.00    +0.136 C 
ATOM     34  C   UNL     1      -1.425  -7.896  -5.826  0.00  0.00    +0.035 C 
ATOM     35  C   UNL     1      -2.596  -8.904  -5.798  0.00  0.00    +0.031 C 
ATOM     36  C   UNL     1      -3.354  -8.635  -7.118  0.00  0.00    +0.160 C 
ATOM     37  O   UNL     1      -2.371  -8.041  -7.993  0.00  0.00    -0.375 OA
ENDBRANCH  32  33
ENDBRANCH  29  32
ENDBRANCH  21  30
ENDBRANCH  20  21
ENDBRANCH   1  20
TORSDOF 6
