REMARK  Name = ZINC39228079
REMARK  9 active torsions:
REMARK  status: ('A' for Active; 'I' for Inactive)
REMARK    1  A    between atoms: C_1  and  C_2
REMARK    2  A    between atoms: C_2  and  C_3
REMARK    3  A    between atoms: C_6  and  C_9
REMARK    4  A    between atoms: C_9  and  N_10
REMARK    5  A    between atoms: C_23  and  C_25
REMARK    6  A    between atoms: C_27  and  O_33
REMARK    7  A    between atoms: C_30  and  O_31
REMARK    8  A    between atoms: O_31  and  C_32
REMARK    9  A    between atoms: O_33  and  C_34
REMARK                            x       y       z     vdW  Elec       q    Type
REMARK                         _______ _______ _______ _____ _____    ______ ____
ROOT
ATOM      1  N   UNL     1      -6.543  -0.622   0.274  0.00  0.00    +0.391 N 
ATOM      2  C   UNL     1      -6.853   0.116   1.506  0.00  0.00    -0.072 C 
ATOM      3  C   UNL     1      -7.770   1.302   1.175  0.00  0.00    +0.019 C 
ATOM      4  C   UNL     1      -8.911   0.783   0.337  0.00  0.00    -0.022 A 
ATOM      5  C   UNL     1     -10.177   1.403   0.020  0.00  0.00    +0.003 A 
ATOM      6  C   UNL     1     -10.746   2.633   0.364  0.00  0.00    +0.010 A 
ATOM      7  C   UNL     1     -12.001   2.897  -0.129  0.00  0.00    +0.001 A 
ATOM      8  C   UNL     1     -12.681   1.996  -0.930  0.00  0.00    +0.002 A 
ATOM      9  C   UNL     1     -12.142   0.772  -1.287  0.00  0.00    +0.026 A 
ATOM     10  C   UNL     1     -10.871   0.476  -0.801  0.00  0.00    +0.047 A 
ATOM     11  N   UNL     1     -10.064  -0.616  -0.955  0.00  0.00    -0.359 N 
ATOM     12  C   UNL     1      -8.893  -0.425  -0.273  0.00  0.00    +0.011 A 
ATOM     13  H   UNL     1     -10.287  -1.407  -1.470  0.00  0.00    +0.166 HD
ATOM     14  C   UNL     1      -7.723  -1.375  -0.178  0.00  0.00    +0.014 C 
ATOM     15  H   UNL     1      -6.267   0.031  -0.444  0.00  0.00    -0.080 HD
ENDROOT
BRANCH  14  16
ATOM     16  C   UNL     1      -8.036  -2.467   0.812  0.00  0.00    -0.010 A 
ATOM     17  C   UNL     1      -8.954  -2.243   1.820  0.00  0.00    +0.051 A 
ATOM     18  C   UNL     1      -9.243  -3.248   2.731  0.00  0.00    +0.121 A 
ATOM     19  C   UNL     1      -8.610  -4.478   2.630  0.00  0.00    +0.049 A 
ATOM     20  C   UNL     1      -7.692  -4.702   1.622  0.00  0.00    +0.049 A 
ATOM     21  C   UNL     1      -7.407  -3.698   0.708  0.00  0.00    +0.122 A 
BRANCH  21  22
ATOM     22  O   UNL     1      -6.508  -3.921  -0.287  0.00  0.00    -0.495 OA
ATOM     23  C   UNL     1      -5.899  -5.212  -0.335  0.00  0.00    +0.277 C 
ENDBRANCH  21  22
BRANCH  18  24
ATOM     24  O   UNL     1     -10.146  -3.027   3.723  0.00  0.00    -0.495 OA
ATOM     25  C   UNL     1     -10.395  -4.107   4.626  0.00  0.00    +0.277 C 
ENDBRANCH  18  24
ENDBRANCH  14  16
BRANCH   1  26
ATOM     26  C   UNL     1      -5.439  -1.556   0.531  0.00  0.00    -0.042 C 
BRANCH  26  30
ATOM     27  C   UNL     1      -1.887   0.643   1.423  0.00  0.00    -0.048 A 
ATOM     28  C   UNL     1      -2.746   0.274   2.442  0.00  0.00    +0.004 A 
ATOM     29  C   UNL     1      -3.895  -0.438   2.153  0.00  0.00    +0.002 A 
ATOM     30  C   UNL     1      -4.186  -0.780   0.846  0.00  0.00    -0.064 A 
ATOM     31  C   UNL     1      -3.328  -0.410  -0.173  0.00  0.00    +0.002 A 
ATOM     32  C   UNL     1      -2.181   0.306   0.115  0.00  0.00    +0.004 A 
BRANCH  27  34
ATOM     33  C   UNL     1      -0.936   2.918   1.688  0.00  0.00    +0.009 C 
ATOM     34  C   UNL     1      -0.634   1.419   1.738  0.00  0.00    +0.032 C 
ENDBRANCH  27  34
ENDBRANCH  26  30
ENDBRANCH   1  26
TORSDOF 6
