REMARK  Name = ZINC11882186
REMARK  15 active torsions:
REMARK  status: ('A' for Active; 'I' for Inactive)
REMARK    1  A    between atoms: C_1  and  N_75
REMARK    2  A    between atoms: C_2  and  N_75
REMARK    3  A    between atoms: C_3  and  C_4
REMARK    4  A    between atoms: C_3  and  N_75
REMARK    5  A    between atoms: N_6  and  C_7
REMARK    6  A    between atoms: N_6  and  C_8
REMARK    7  A    between atoms: C_8  and  C_10
REMARK    8  A    between atoms: C_8  and  C_17
REMARK    9  A    between atoms: C_10  and  C_11
REMARK   10  A    between atoms: C_23  and  C_25
REMARK   11  A    between atoms: C_26  and  C_27
REMARK   12  A    between atoms: C_30  and  O_35
REMARK   13  A    between atoms: C_31  and  O_33
REMARK   14  A    between atoms: O_33  and  C_34
REMARK   15  A    between atoms: O_35  and  C_36
REMARK                            x       y       z     vdW  Elec       q    Type
REMARK                         _______ _______ _______ _____ _____    ______ ____
ROOT
ATOM      1  C   UNL     1      -0.742   1.595  -1.233  0.00  0.00    +0.013 C 
ATOM      2  C   UNL     1      -0.002   1.088   0.007  0.00  0.00    +0.024 C 
ATOM      3  C   UNL     1      -0.725   1.581   1.265  0.00  0.00    +0.108 C 
ATOM      4  N   UNL     1      -0.854   3.043   1.194  0.00  0.00    -0.298 N 
ATOM      5  C   UNL     1      -1.469   3.641   0.002  0.00  0.00    +0.108 C 
ATOM      6  C   UNL     1      -0.737   3.126  -1.242  0.00  0.00    +0.024 C 
ATOM      7  C   UNL     1      -0.416   3.820   2.205  0.00  0.00    +0.239 C 
ATOM      8  O   UNL     1       0.006   3.309   3.226  0.00  0.00    -0.271 OA
ENDROOT
BRANCH   7   9
ATOM      9  C   UNL     1      -0.448   5.276   2.074  0.00  0.00    +0.068 C 
ATOM     10  C   UNL     1       0.087   6.052   3.040  0.00  0.00    +0.013 C 
BRANCH  10  11
ATOM     11  C   UNL     1       0.055   7.516   2.908  0.00  0.00    -0.021 A 
ATOM     12  C   UNL     1      -0.529   8.107   1.782  0.00  0.00    +0.012 A 
ATOM     13  C   UNL     1      -0.557   9.479   1.661  0.00  0.00    +0.050 A 
ATOM     14  C   UNL     1      -0.008  10.278   2.655  0.00  0.00    +0.162 A 
ATOM     15  C   UNL     1       0.576   9.697   3.780  0.00  0.00    +0.162 A 
ATOM     16  C   UNL     1       0.604   8.323   3.912  0.00  0.00    +0.057 A 
BRANCH  15  17
ATOM     17  O   UNL     1       1.112  10.485   4.750  0.00  0.00    -0.491 OA
ATOM     18  C   UNL     1       1.693   9.822   5.875  0.00  0.00    +0.277 C 
ENDBRANCH  15  17
BRANCH  14  19
ATOM     19  O   UNL     1      -0.039  11.631   2.530  0.00  0.00    -0.491 OA
ATOM     20  C   UNL     1      -0.652  12.159   1.352  0.00  0.00    +0.277 C 
ENDBRANCH  14  19
ENDBRANCH  10  11
ENDBRANCH   7   9
BRANCH   1  21
ATOM     21  C   UNL     1      -0.042   1.077  -2.491  0.00  0.00    +0.083 C 
BRANCH  21  24
ATOM     22  C   UNL     1       1.118  -1.066  -2.500  0.00  0.00    +0.199 C 
ATOM     23  O   UNL     1       1.113  -2.279  -2.494  0.00  0.00    -0.278 OA
ATOM     24  N   UNL     1      -0.047  -0.388  -2.485  0.00  0.00    -0.302 N 
ATOM     25  C   UNL     1      -1.318  -1.116  -2.461  0.00  0.00    +0.132 C 
BRANCH  22  26
ATOM     26  C   UNL     1       2.425  -0.317  -2.524  0.00  0.00    +0.018 C 
BRANCH  26  29
ATOM     27  C   UNL     1       4.814  -0.597  -2.798  0.00  0.00    -0.096 C 
ATOM     28  C   UNL     1       3.594  -2.035  -1.281  0.00  0.00    -0.096 C 
ATOM     29  N   UNL     1       3.534  -1.294  -2.558  0.00  0.00    +0.382 N 
ATOM     30  H   UNL     1       3.368  -1.960  -3.322  0.00  0.00    -0.082 HD
ENDBRANCH  26  29
ENDBRANCH  22  26
ENDBRANCH  21  24
BRANCH  21  31
ATOM     31  C   UNL     1      -0.781   1.584  -3.731  0.00  0.00    +0.058 C 
BRANCH  31  32
ATOM     32  C   UNL     1      -0.023   1.177  -4.969  0.00  0.00    -0.046 A 
ATOM     33  C   UNL     1       0.944   2.014  -5.494  0.00  0.00    +0.004 A 
ATOM     34  C   UNL     1       1.642   1.638  -6.626  0.00  0.00    +0.000 A 
ATOM     35  C   UNL     1       1.366   0.430  -7.240  0.00  0.00    +0.000 A 
ATOM     36  C   UNL     1       0.395  -0.404  -6.718  0.00  0.00    +0.000 A 
ATOM     37  C   UNL     1      -0.299  -0.031  -5.582  0.00  0.00    +0.004 A 
ENDBRANCH  31  32
ENDBRANCH  21  31
ENDBRANCH   1  21
TORSDOF 10
