REMARK  Name = ZINC64945602
REMARK  7 active torsions:
REMARK  status: ('A' for Active; 'I' for Inactive)
REMARK    1  A    between atoms: C_1  and  C_2
REMARK    2  A    between atoms: C_3  and  S_9
REMARK    3  A    between atoms: C_4  and  C_8
REMARK    4  A    between atoms: N_5  and  C_7
REMARK    5  A    between atoms: S_9  and  N_12
REMARK    6  A    between atoms: N_12  and  C_13
REMARK    7  A    between atoms: C_13  and  C_14
REMARK                            x       y       z     vdW  Elec       q    Type
REMARK                         _______ _______ _______ _____ _____    ______ ____
ROOT
ATOM      1  C   UNL     1       2.436  -1.241  -3.371  0.00  0.00    +0.142 C 
ENDROOT
BRANCH   1   2
ATOM      2  C   UNL     1       3.677  -0.900  -4.154  0.00  0.00    -0.016 A 
ATOM      3  C   UNL     1       3.796  -1.286  -5.483  0.00  0.00    +0.009 A 
ATOM      4  C   UNL     1       4.951  -0.953  -6.166  0.00  0.00    +0.042 A 
ATOM      5  C   UNL     1       5.950  -0.247  -5.503  0.00  0.00    +0.099 A 
ATOM      6  N   UNL     1       5.799   0.103  -4.235  0.00  0.00    -0.349 N 
ATOM      7  C   UNL     1       4.705  -0.196  -3.560  0.00  0.00    +0.089 A 
ATOM      8  N   UNL     1       7.117   0.093  -6.177  0.00  0.00    -0.317 N 
ATOM      9  C   UNL     1       7.199  -0.169  -7.597  0.00  0.00    +0.106 C 
ATOM     10  C   UNL     1       7.757  -1.594  -7.830  0.00  0.00    +0.019 C 
ATOM     11  C   UNL     1       9.187  -1.646  -7.488  0.00  0.00    +0.002 C 
ATOM     12  C   UNL     1       9.492  -1.356  -6.022  0.00  0.00    +0.002 C 
ATOM     13  C   UNL     1       9.593   0.136  -5.817  0.00  0.00    +0.019 C 
ATOM     14  C   UNL     1       8.219   0.713  -5.416  0.00  0.00    +0.106 C 
ATOM     15  H   UNL     1       6.509   0.594  -3.792  0.00  0.00    +0.167 HD
ENDBRANCH   1   2
BRANCH   1  16
ATOM     16  N   UNL     1       1.454  -0.164  -3.519  0.00  0.00    -0.185 NA
ATOM     17  H   UNL     1       1.728   0.698  -3.870  0.00  0.00    +0.148 HD
BRANCH  16  18
ATOM     18  S   UNL     1      -0.125  -0.418  -3.087  0.00  0.00    +0.062 S 
ATOM     19  O   UNL     1      -0.520  -1.641  -3.693  0.00  0.00    -0.153 OA
ATOM     20  O   UNL     1      -0.811   0.804  -3.321  0.00  0.00    -0.153 OA
BRANCH  18  23
ATOM     21  C   UNL     1      -0.457   1.776  -0.611  0.00  0.00    +0.069 C 
ATOM     22  C   UNL     1      -0.298   0.298  -0.364  0.00  0.00    +0.086 A 
ATOM     23  C   UNL     1      -0.152  -0.686  -1.346  0.00  0.00    +0.148 A 
ATOM     24  C   UNL     1      -0.037  -1.882  -0.723  0.00  0.00    +0.062 A 
ATOM     25  N   UNL     1      -0.107  -1.662   0.606  0.00  0.00    -0.269 N 
ATOM     26  N   UNL     1      -0.266  -0.284   0.807  0.00  0.00    -0.174 NA
ATOM     27  C   UNL     1      -0.026  -2.682   1.655  0.00  0.00    +0.172 C 
ATOM     28  C   UNL     1       0.138  -3.220  -1.394  0.00  0.00    +0.067 C 
ENDBRANCH  18  23
ENDBRANCH  16  18
ENDBRANCH   1  16
TORSDOF 4
