REMARK  Name = ZINC16458667
REMARK  13 active torsions:
REMARK  status: ('A' for Active; 'I' for Inactive)
REMARK    1  A    between atoms: C_1  and  C_2
REMARK    2  A    between atoms: C_2  and  C_3
REMARK    3  A    between atoms: C_3  and  N_4
REMARK    4  A    between atoms: N_4  and  C_5
REMARK    5  A    between atoms: C_5  and  C_6
REMARK    6  A    between atoms: N_8  and  C_9
REMARK    7  A    between atoms: N_8  and  C_23
REMARK    8  A    between atoms: C_9  and  C_10
REMARK    9  A    between atoms: N_14  and  C_15
REMARK   10  A    between atoms: C_15  and  C_16
REMARK   11  A    between atoms: C_29  and  C_31
REMARK   12  A    between atoms: C_31  and  C_32
REMARK   13  A    between atoms: C_31  and  C_33
REMARK                            x       y       z     vdW  Elec       q    Type
REMARK                         _______ _______ _______ _____ _____    ______ ____
ROOT
ATOM      1  C   UNL     1      -0.157  -3.446  -0.271  0.00  0.00    +0.234 C 
ATOM      2  O   UNL     1       0.620  -2.559   0.013  0.00  0.00    -0.274 OA
ATOM      3  N   UNL     1      -1.413  -3.143  -0.655  0.00  0.00    -0.291 N 
ENDROOT
BRANCH   3   4
ATOM      4  C   UNL     1      -2.321  -4.206  -1.095  0.00  0.00    +0.077 C 
ATOM      5  C   UNL     1      -2.659  -4.008  -2.574  0.00  0.00    +0.022 C 
ATOM      6  C   UNL     1      -3.607  -5.117  -3.034  0.00  0.00    +0.002 C 
ATOM      7  C   UNL     1      -4.892  -5.066  -2.206  0.00  0.00    +0.000 C 
ATOM      8  C   UNL     1      -4.554  -5.264  -0.727  0.00  0.00    +0.002 C 
ATOM      9  C   UNL     1      -3.606  -4.154  -0.267  0.00  0.00    +0.022 C 
ENDBRANCH   3   4
BRANCH   1  10
ATOM     10  C   UNL     1       0.281  -4.886  -0.195  0.00  0.00    +0.203 C 
BRANCH  10  11
ATOM     11  N   UNL     1       1.687  -4.947   0.211  0.00  0.00    -0.292 N 
ATOM     12  C   UNL     1       2.659  -4.966  -0.723  0.00  0.00    +0.219 C 
ATOM     13  O   UNL     1       3.816  -5.118  -0.392  0.00  0.00    -0.275 OA
BRANCH  12  14
ATOM     14  C   UNL     1       2.307  -4.797  -2.179  0.00  0.00    +0.069 C 
ATOM     15  C   UNL     1       2.401  -3.318  -2.558  0.00  0.00    +0.017 C 
ATOM     16  C   UNL     1       3.283  -5.606  -3.036  0.00  0.00    +0.017 C 
ENDBRANCH  12  14
BRANCH  11  17
ATOM     17  C   UNL     1       2.038  -4.989   1.633  0.00  0.00    +0.108 C 
BRANCH  17  19
ATOM     18  C   UNL     1       2.471  -6.487   3.585  0.00  0.00    +0.005 C 
ATOM     19  C   UNL     1       2.105  -6.444   2.100  0.00  0.00    +0.016 C 
ENDBRANCH  17  19
ENDBRANCH  11  17
ENDBRANCH  10  11
ENDBRANCH   1  10
BRANCH   3  20
ATOM     20  C   UNL     1      -1.871  -1.752  -0.632  0.00  0.00    +0.161 C 
BRANCH  20  21
ATOM     21  C   UNL     1      -2.406  -1.421   0.737  0.00  0.00    +0.036 A 
ATOM     22  C   UNL     1      -2.038  -2.011   1.893  0.00  0.00    +0.024 A 
ATOM     23  C   UNL     1      -2.777  -1.406   2.929  0.00  0.00    +0.019 A 
ATOM     24  C   UNL     1      -3.569  -0.470   2.366  0.00  0.00    +0.086 A 
ATOM     25  N   UNL     1      -3.341  -0.471   1.022  0.00  0.00    -0.345 N 
BRANCH  25  26
ATOM     26  C   UNL     1      -3.996   0.402   0.045  0.00  0.00    +0.158 C 
BRANCH  26  27
ATOM     27  C   UNL     1      -3.107   1.583  -0.249  0.00  0.00    -0.009 A 
ATOM     28  C   UNL     1      -2.243   1.547  -1.328  0.00  0.00    +0.007 A 
ATOM     29  C   UNL     1      -1.428   2.630  -1.597  0.00  0.00    +0.000 A 
ATOM     30  C   UNL     1      -1.475   3.750  -0.787  0.00  0.00    +0.001 A 
ATOM     31  C   UNL     1      -2.339   3.787   0.291  0.00  0.00    +0.020 A 
ATOM     32  C   UNL     1      -3.159   2.705   0.558  0.00  0.00    +0.046 A 
ATOM     33 CL   UNL     1      -4.249   2.754   1.909  0.00  0.00    -0.083 Cl
ENDBRANCH  26  27
ENDBRANCH  25  26
ENDBRANCH  20  21
ENDBRANCH   3  20
TORSDOF 10
