REMARK  Name = ZINC45793796
REMARK  13 active torsions:
REMARK  status: ('A' for Active; 'I' for Inactive)
REMARK    1  A    between atoms: C_1  and  C_2
REMARK    2  A    between atoms: C_5  and  C_8
REMARK    3  A    between atoms: C_10  and  C_13
REMARK    4  A    between atoms: C_13  and  N_14
REMARK    5  A    between atoms: N_17  and  C_20
REMARK    6  A    between atoms: C_20  and  C_21
REMARK    7  A    between atoms: C_21  and  C_23
REMARK    8  A    between atoms: C_21  and  O_34
REMARK    9  A    between atoms: C_23  and  O_24
REMARK   10  A    between atoms: O_24  and  C_25
REMARK   11  A    between atoms: C_30  and  C_31
REMARK   12  A    between atoms: C_31  and  C_32
REMARK   13  A    between atoms: C_31  and  C_33
REMARK                            x       y       z     vdW  Elec       q    Type
REMARK                         _______ _______ _______ _____ _____    ______ ____
ROOT
ATOM      1  N   UNL     1      -0.974  -8.360   2.259  0.00  0.00    +0.387 N 
ATOM      2  C   UNL     1      -1.664  -8.581   0.982  0.00  0.00    -0.063 C 
ATOM      3  C   UNL     1      -3.154  -8.814   1.241  0.00  0.00    +0.066 C 
ATOM      4  N   UNL     1      -3.320  -9.984   2.115  0.00  0.00    -0.303 NA
ATOM      5  C   UNL     1      -2.613  -9.787   3.389  0.00  0.00    +0.066 C 
ATOM      6  C   UNL     1      -1.127  -9.546   3.112  0.00  0.00    -0.063 C 
ATOM      7  H   UNL     1      -1.374  -7.559   2.723  0.00  0.00    -0.081 HD
ENDROOT
BRANCH   1   8
ATOM      8  C   UNL     1       0.453  -8.118   2.009  0.00  0.00    +0.022 C 
BRANCH   8  11
ATOM      9  C   UNL     1       0.887  -4.731   0.780  0.00  0.00    +0.202 A 
ATOM     10  N   UNL     1       0.769  -5.649   1.756  0.00  0.00    -0.193 NA
ATOM     11  C   UNL     1       0.618  -6.834   1.238  0.00  0.00    +0.211 A 
ATOM     12  O   UNL     1       0.633  -6.719  -0.096  0.00  0.00    -0.340 OA
ATOM     13  N   UNL     1       0.806  -5.338  -0.378  0.00  0.00    -0.056 NA
BRANCH   9  18
ATOM     14  C   UNL     1       1.607   0.930   1.562  0.00  0.00    +0.044 C 
ATOM     15  C   UNL     1       1.419  -0.552   1.357  0.00  0.00    -0.050 A 
ATOM     16  C   UNL     1       1.349  -1.067   0.076  0.00  0.00    +0.004 A 
ATOM     17  C   UNL     1       1.177  -2.423  -0.117  0.00  0.00    +0.012 A 
ATOM     18  C   UNL     1       1.073  -3.272   0.982  0.00  0.00    +0.022 A 
ATOM     19  C   UNL     1       1.144  -2.748   2.271  0.00  0.00    +0.012 A 
ATOM     20  C   UNL     1       1.322  -1.391   2.452  0.00  0.00    +0.004 A 
ENDBRANCH   9  18
ENDBRANCH   8  11
ENDBRANCH   1   8
BRANCH   4  21
ATOM     21  C   UNL     1      -4.742 -10.275   2.342  0.00  0.00    +0.119 C 
BRANCH  21  22
ATOM     22  C   UNL     1      -5.331 -10.940   1.096  0.00  0.00    +0.166 C 
BRANCH  22  23
ATOM     23  O   UNL     1      -4.670 -12.186   0.864  0.00  0.00    -0.387 OA
ATOM     24  H   UNL     1      -4.755 -12.818   1.592  0.00  0.00    +0.210 HD
ENDBRANCH  22  23
BRANCH  22  25
ATOM     25  C   UNL     1      -6.825 -11.187   1.309  0.00  0.00    +0.261 C 
BRANCH  25  26
ATOM     26  O   UNL     1      -7.399 -11.701   0.105  0.00  0.00    -0.489 OA
BRANCH  26  27
ATOM     27  C   UNL     1      -8.730 -11.976   0.124  0.00  0.00    +0.124 A 
ATOM     28  C   UNL     1      -9.470 -11.751   1.276  0.00  0.00    +0.046 A 
ATOM     29  C   UNL     1     -10.822 -12.031   1.293  0.00  0.00    +0.004 A 
ATOM     30  C   UNL     1     -11.439 -12.535   0.163  0.00  0.00    +0.001 A 
ATOM     31  C   UNL     1     -10.704 -12.761  -0.986  0.00  0.00    +0.007 A 
ATOM     32  C   UNL     1      -9.352 -12.477  -1.010  0.00  0.00    -0.003 A 
BRANCH  32  33
ATOM     33  C   UNL     1      -8.553 -12.717  -2.265  0.00  0.00    +0.016 C 
ATOM     34  C   UNL     1      -8.632 -14.198  -2.643  0.00  0.00    +0.012 C 
ATOM     35  C   UNL     1      -9.123 -11.869  -3.403  0.00  0.00    +0.012 C 
ENDBRANCH  32  33
ENDBRANCH  26  27
ENDBRANCH  25  26
ENDBRANCH  22  25
ENDBRANCH  21  22
ENDBRANCH   4  21
TORSDOF 10
