REMARK  Name = ZINC12693868
REMARK  5 active torsions:
REMARK  status: ('A' for Active; 'I' for Inactive)
REMARK    1  A    between atoms: C_7  and  C_22
REMARK    2  A    between atoms: C_12  and  C_13
REMARK    3  A    between atoms: C_22  and  O_24
REMARK    4  A    between atoms: O_24  and  C_25
REMARK    5  A    between atoms: C_25  and  C_26
REMARK                            x       y       z     vdW  Elec       q    Type
REMARK                         _______ _______ _______ _____ _____    ______ ____
ROOT
ATOM      1  C   UNL     1       0.006   1.390   0.182  0.00  0.00    +0.001 A 
ATOM      2  C   UNL     1       1.194   2.114   0.105  0.00  0.00    +0.002 A 
ATOM      3  C   UNL     1       2.399   1.483   0.054  0.00  0.00    +0.028 A 
ATOM      4  C   UNL     1       2.453   0.076   0.080  0.00  0.00    +0.072 A 
ATOM      5  C   UNL     1       1.240  -0.653   0.157  0.00  0.00    +0.015 A 
ATOM      6  C   UNL     1       0.019   0.027   0.208  0.00  0.00    +0.011 A 
ATOM      7  C   UNL     1       1.306  -2.114   0.183  0.00  0.00    +0.073 A 
ATOM      8  C   UNL     1       2.564  -2.700   0.129  0.00  0.00    -0.007 A 
ATOM      9  C   UNL     1       3.710  -1.893   0.053  0.00  0.00    +0.072 A 
ATOM     10  N   UNL     1       3.616  -0.568   0.031  0.00  0.00    -0.247 NA
ATOM     11  C   UNL     1       4.922  -2.735   0.008  0.00  0.00    -0.021 C 
ATOM     12  C   UNL     1       6.188  -2.289  -0.067  0.00  0.00    +0.013 C 
ATOM     13  C   UNL     1       4.496  -4.181   0.059  0.00  0.00    +0.042 C 
ATOM     14  C   UNL     1       2.964  -4.155   0.138  0.00  0.00    +0.043 C 
ENDROOT
BRANCH  12  15
ATOM     15  C   UNL     1       7.310  -3.239   0.030  0.00  0.00    -0.025 A 
ATOM     16  C   UNL     1       8.623  -2.768   0.121  0.00  0.00    +0.009 A 
ATOM     17  C   UNL     1       9.668  -3.662   0.216  0.00  0.00    +0.020 A 
ATOM     18  C   UNL     1       9.420  -5.025   0.212  0.00  0.00    +0.041 A 
ATOM     19  C   UNL     1       8.122  -5.499   0.117  0.00  0.00    +0.020 A 
ATOM     20  C   UNL     1       7.067  -4.615   0.026  0.00  0.00    +0.009 A 
ATOM     21 CL   UNL     1      10.742  -6.144   0.326  0.00  0.00    -0.084 Cl
ENDBRANCH  12  15
BRANCH   7  22
ATOM     22  C   UNL     1       0.081  -2.936   0.264  0.00  0.00    +0.341 C 
ATOM     23  O   UNL     1      -0.478  -3.295  -0.753  0.00  0.00    -0.245 OA
BRANCH  22  24
ATOM     24  O   UNL     1      -0.417  -3.287   1.465  0.00  0.00    -0.452 OA
BRANCH  24  25
ATOM     25  C   UNL     1      -1.624  -4.095   1.469  0.00  0.00    +0.328 C 
BRANCH  25  26
ATOM     26  C   UNL     1      -2.028  -4.388   2.890  0.00  0.00    +0.261 C 
ATOM     27  O   UNL     1      -1.366  -3.958   3.810  0.00  0.00    -0.271 OA
ATOM     28  N   UNL     1      -3.127  -5.127   3.140  0.00  0.00    -0.222 N 
ATOM     29  C   UNL     1      -3.626  -5.488   4.475  0.00  0.00    +0.137 C 
ATOM     30  C   UNL     1      -4.889  -6.322   4.184  0.00  0.00    +0.125 C 
ATOM     31  N   UNL     1      -4.963  -6.349   2.716  0.00  0.00    -0.297 N 
ATOM     32  C   UNL     1      -3.935  -5.654   2.210  0.00  0.00    +0.309 C 
ATOM     33  O   UNL     1      -3.753  -5.514   1.017  0.00  0.00    -0.252 OA
ATOM     34  H   UNL     1      -5.647  -6.800   2.195  0.00  0.00    +0.150 HD
ENDBRANCH  25  26
ENDBRANCH  24  25
ENDBRANCH  22  24
ENDBRANCH   7  22
TORSDOF 5
