REMARK  Name = ZINC44139577
REMARK  6 active torsions:
REMARK  status: ('A' for Active; 'I' for Inactive)
REMARK    1  A    between atoms: C_1  and  C_2
REMARK    2  A    between atoms: C_2  and  C_3
REMARK    3  A    between atoms: C_11  and  S_15
REMARK    4  A    between atoms: S_15  and  N_18
REMARK    5  A    between atoms: C_22  and  C_25
REMARK    6  A    between atoms: N_27  and  C_28
REMARK                            x       y       z     vdW  Elec       q    Type
REMARK                         _______ _______ _______ _____ _____    ______ ____
ROOT
ATOM      1  S   UNL     1      -6.891  -1.859   0.056  0.00  0.00    +0.062 S 
ATOM      2  O   UNL     1      -7.627  -2.635   0.991  0.00  0.00    -0.153 OA
ATOM      3  O   UNL     1      -6.738  -0.452   0.185  0.00  0.00    -0.153 OA
ENDROOT
BRANCH   1  12
ATOM      4  C   UNL     1      -1.490  -0.235   0.072  0.00  0.00    +0.220 C 
ATOM      5  O   UNL     1      -2.463   0.488   0.119  0.00  0.00    -0.275 OA
ATOM      6  N   UNL     1      -1.648  -1.572   0.008  0.00  0.00    -0.271 N 
ATOM      7  C   UNL     1      -0.553  -2.545  -0.046  0.00  0.00    +0.118 C 
ATOM      8  C   UNL     1      -1.239  -3.920  -0.107  0.00  0.00    +0.056 C 
ATOM      9  C   UNL     1      -2.719  -3.610  -0.081  0.00  0.00    -0.023 A 
ATOM     10  C   UNL     1      -2.880  -2.235  -0.009  0.00  0.00    +0.041 A 
ATOM     11  C   UNL     1      -4.170  -1.705   0.032  0.00  0.00    +0.053 A 
ATOM     12  C   UNL     1      -5.267  -2.540   0.004  0.00  0.00    +0.121 A 
ATOM     13  C   UNL     1      -5.096  -3.911  -0.064  0.00  0.00    +0.045 A 
ATOM     14  C   UNL     1      -3.820  -4.443  -0.113  0.00  0.00    +0.022 A 
ATOM     15 BR   UNL     1      -6.602  -5.054  -0.101  0.00  0.00    -0.048 Br
BRANCH   4  17
ATOM     16  C   UNL     1      -0.208   1.885   0.160  0.00  0.00    +0.013 C 
ATOM     17  C   UNL     1      -0.106   0.361   0.084  0.00  0.00    +0.093 C 
ENDBRANCH   4  17
ENDBRANCH   1  12
BRANCH   1  18
ATOM     18  N   UNL     1      -7.581  -2.125  -1.426  0.00  0.00    -0.176 NA
ATOM     19  C   UNL     1      -7.286  -1.237  -2.559  0.00  0.00    +0.109 C 
ATOM     20  C   UNL     1      -6.804  -2.087  -3.739  0.00  0.00    +0.018 C 
ATOM     21  C   UNL     1      -7.844  -3.169  -4.042  0.00  0.00    +0.015 C 
ATOM     22  C   UNL     1      -8.004  -4.081  -2.823  0.00  0.00    +0.091 C 
ATOM     23  C   UNL     1      -8.494  -3.257  -1.634  0.00  0.00    +0.122 C 
BRANCH  22  24
ATOM     24  C   UNL     1      -9.003  -5.165  -3.134  0.00  0.00    +0.218 C 
ATOM     25  O   UNL     1     -10.011  -5.269  -2.468  0.00  0.00    -0.275 OA
ATOM     26  N   UNL     1      -8.776  -6.019  -4.151  0.00  0.00    -0.312 N 
ATOM     27  H   UNL     1      -7.970  -5.936  -4.684  0.00  0.00    +0.149 HD
BRANCH  26  28
ATOM     28  C   UNL     1      -9.748  -7.073  -4.453  0.00  0.00    +0.073 C 
ATOM     29  C   UNL     1      -9.474  -8.289  -3.566  0.00  0.00    +0.022 C 
ATOM     30  C   UNL     1     -10.488  -9.390  -3.881  0.00  0.00    +0.002 C 
ATOM     31  C   UNL     1     -10.363  -9.793  -5.351  0.00  0.00    +0.000 C 
ATOM     32  C   UNL     1     -10.637  -8.578  -6.239  0.00  0.00    +0.002 C 
ATOM     33  C   UNL     1      -9.622  -7.477  -5.924  0.00  0.00    +0.022 C 
ENDBRANCH  26  28
ENDBRANCH  22  24
ENDBRANCH   1  18
TORSDOF 5
