REMARK  Name = ZINC20984196
REMARK  6 active torsions:
REMARK  status: ('A' for Active; 'I' for Inactive)
REMARK    1  A    between atoms: C_1  and  C_2
REMARK    2  A    between atoms: N_13  and  C_26
REMARK    3  A    between atoms: C_14  and  S_16
REMARK    4  A    between atoms: S_16  and  C_17
REMARK    5  A    between atoms: C_17  and  C_19
REMARK    6  A    between atoms: C_17  and  C_20
REMARK                            x       y       z     vdW  Elec       q    Type
REMARK                         _______ _______ _______ _____ _____    ______ ____
ROOT
ATOM      1  C   UNL     1      10.251   2.990  -0.466  0.00  0.00    +0.008 C 
ATOM      2  C   UNL     1       8.829   2.583  -0.072  0.00  0.00    -0.009 C 
ATOM      3  C   UNL     1       7.819   3.364  -0.917  0.00  0.00    +0.008 C 
ATOM      4  C   UNL     1       6.408   3.152  -0.367  0.00  0.00    +0.037 C 
ATOM      5  C   UNL     1       6.146   1.653  -0.245  0.00  0.00    -0.023 A 
ATOM      6  C   UNL     1       7.169   0.774  -0.236  0.00  0.00    -0.004 A 
ATOM      7  S   UNL     1       6.406  -0.818  -0.083  0.00  0.00    -0.073 S 
ATOM      8  C   UNL     1       4.710  -0.297  -0.032  0.00  0.00    +0.117 A 
ATOM      9  C   UNL     1       4.795   1.101  -0.137  0.00  0.00    +0.076 A 
ATOM     10  C   UNL     1       3.549   1.804  -0.123  0.00  0.00    +0.268 A 
ATOM     11  O   UNL     1       3.524   3.020  -0.209  0.00  0.00    -0.267 OA
ATOM     12  N   UNL     1       2.404   1.105  -0.014  0.00  0.00    -0.255 N 
ATOM     13  C   UNL     1       2.413  -0.258   0.089  0.00  0.00    +0.178 A 
ATOM     14  N   UNL     1       3.547  -0.930   0.073  0.00  0.00    -0.215 NA
ATOM     15  C   UNL     1       8.632   1.083  -0.333  0.00  0.00    +0.046 C 
ENDROOT
BRANCH  12  16
ATOM     16  C   UNL     1       1.180   1.787   0.000  0.00  0.00    +0.052 A 
ATOM     17  C   UNL     1       0.509   2.036  -1.189  0.00  0.00    +0.028 A 
ATOM     18  C   UNL     1      -0.695   2.713  -1.173  0.00  0.00    +0.022 A 
ATOM     19  C   UNL     1      -1.237   3.134   0.029  0.00  0.00    +0.041 A 
ATOM     20  C   UNL     1      -0.570   2.886   1.216  0.00  0.00    +0.022 A 
ATOM     21  C   UNL     1       0.636   2.214   1.204  0.00  0.00    +0.028 A 
ATOM     22 CL   UNL     1      -2.754   3.979   0.047  0.00  0.00    -0.084 Cl
ENDBRANCH  12  16
BRANCH  13  23
ATOM     23  S   UNL     1       0.889  -1.129   0.238  0.00  0.00    -0.075 S 
BRANCH  23  24
ATOM     24  C   UNL     1       1.506  -2.828   0.333  0.00  0.00    +0.137 C 
ATOM     25  C   UNL     1       2.181  -3.201  -0.988  0.00  0.00    +0.029 C 
BRANCH  24  26
ATOM     26  C   UNL     1       0.355  -3.767   0.591  0.00  0.00    +0.233 C 
ATOM     27  O   UNL     1      -0.769  -3.453   0.262  0.00  0.00    -0.274 OA
ATOM     28  N   UNL     1       0.576  -4.955   1.188  0.00  0.00    -0.239 N 
ATOM     29  C   UNL     1      -0.453  -5.795   1.419  0.00  0.00    +0.303 C 
ATOM     30  O   UNL     1      -1.580  -5.480   1.089  0.00  0.00    -0.253 OA
ATOM     31  N   UNL     1      -0.233  -6.983   2.015  0.00  0.00    -0.313 N 
ATOM     32  H   UNL     1       1.595  -5.240   1.486  0.00  0.00    +0.159 HD
ATOM     33  H   UNL     1      -1.073  -7.668   2.204  0.00  0.00    +0.146 HD
ATOM     34  H   UNL     1       0.787  -7.268   2.314  0.00  0.00    +0.146 HD
ENDBRANCH  24  26
ENDBRANCH  23  24
ENDBRANCH  13  23
TORSDOF 4
