REMARK  Name = ZINC39482424
REMARK  7 active torsions:
REMARK  status: ('A' for Active; 'I' for Inactive)
REMARK    1  A    between atoms: C_4  and  O_32
REMARK    2  A    between atoms: C_5  and  C_7
REMARK    3  A    between atoms: C_10  and  N_21
REMARK    4  A    between atoms: C_11  and  N_13
REMARK    5  A    between atoms: N_21  and  S_22
REMARK    6  A    between atoms: S_22  and  C_25
REMARK    7  A    between atoms: C_30  and  O_31
REMARK                            x       y       z     vdW  Elec       q    Type
REMARK                         _______ _______ _______ _____ _____    ______ ____
ROOT
ATOM      1  C   UNL     1       2.034  -2.506   0.952  0.00  0.00    -0.013 A 
ATOM      2  C   UNL     1       2.643  -3.049  -0.178  0.00  0.00    +0.010 A 
ATOM      3  C   UNL     1       2.483  -4.387  -0.474  0.00  0.00    +0.027 A 
ATOM      4  C   UNL     1       1.717  -5.197   0.352  0.00  0.00    +0.069 A 
ATOM      5  C   UNL     1       1.105  -4.659   1.485  0.00  0.00    +0.053 A 
ATOM      6  C   UNL     1       1.268  -3.318   1.788  0.00  0.00    +0.033 A 
ENDROOT
BRANCH   5   7
ATOM      7  N   UNL     1       0.331  -5.476   2.318  0.00  0.00    -0.323 N 
ATOM      8  C   UNL     1       0.938  -6.185   3.455  0.00  0.00    +0.120 C 
ATOM      9  C   UNL     1       0.543  -7.664   3.372  0.00  0.00    +0.102 C 
ATOM     10  N   UNL     1      -0.919  -7.773   3.281  0.00  0.00    -0.285 NA
ATOM     11  C   UNL     1      -1.424  -7.147   2.052  0.00  0.00    +0.252 C 
ATOM     12  C   UNL     1      -1.112  -5.642   2.084  0.00  0.00    +0.158 C 
ATOM     13  F   UNL     1      -2.808  -7.333   1.968  0.00  0.00    -0.227 F 
ATOM     14  H   UNL     1      -1.214  -8.736   3.344  0.00  0.00    +0.125 HD
ENDBRANCH   5   7
BRANCH   1  19
ATOM     15  C   UNL     1       1.260   1.062   1.848  0.00  0.00    +0.001 A 
ATOM     16  C   UNL     1       2.526   1.622   1.861  0.00  0.00    +0.004 A 
ATOM     17  C   UNL     1       3.634   0.846   1.580  0.00  0.00    +0.046 A 
ATOM     18  C   UNL     1       3.483  -0.499   1.283  0.00  0.00    +0.125 A 
ATOM     19  C   UNL     1       2.206  -1.067   1.269  0.00  0.00    +0.024 A 
ATOM     20  C   UNL     1       1.095  -0.276   1.554  0.00  0.00    +0.012 A 
BRANCH  18  21
ATOM     21  O   UNL     1       4.572  -1.262   1.006  0.00  0.00    -0.506 OA
ATOM     22  H   UNL     1       4.966  -1.682   1.783  0.00  0.00    +0.292 HD
ENDBRANCH  18  21
ENDBRANCH   1  19
BRANCH   4  23
ATOM     23  N   UNL     1       1.556  -6.553   0.049  0.00  0.00    -0.214 N 
ATOM     24  H   UNL     1       0.715  -6.997   0.238  0.00  0.00    +0.174 HD
BRANCH  23  25
ATOM     25  S   UNL     1       2.804  -7.402  -0.634  0.00  0.00    +0.076 S 
ATOM     26  O   UNL     1       3.972  -7.072   0.105  0.00  0.00    -0.150 OA
ATOM     27  O   UNL     1       2.350  -8.740  -0.784  0.00  0.00    -0.150 OA
BRANCH  25  28
ATOM     28  C   UNL     1       3.040  -6.764  -2.260  0.00  0.00    +0.150 A 
ATOM     29  C   UNL     1       4.229  -6.145  -2.593  0.00  0.00    +0.032 A 
ATOM     30  C   UNL     1       4.414  -5.644  -3.869  0.00  0.00    +0.002 A 
ATOM     31  C   UNL     1       3.411  -5.762  -4.813  0.00  0.00    +0.004 A 
ATOM     32  C   UNL     1       2.221  -6.381  -4.484  0.00  0.00    +0.047 A 
ATOM     33  C   UNL     1       2.034  -6.889  -3.207  0.00  0.00    +0.143 A 
BRANCH  33  34
ATOM     34  O   UNL     1       0.866  -7.503  -2.882  0.00  0.00    -0.505 OA
ATOM     35  H   UNL     1       0.184  -6.902  -2.551  0.00  0.00    +0.292 HD
ENDBRANCH  33  34
ENDBRANCH  25  28
ENDBRANCH  23  25
ENDBRANCH   4  23
TORSDOF 7
