REMARK  Name = ZINC66254396
REMARK  5 active torsions:
REMARK  status: ('A' for Active; 'I' for Inactive)
REMARK    1  A    between atoms: C_1  and  C_2
REMARK    2  A    between atoms: C_6  and  N_23
REMARK    3  A    between atoms: C_7  and  S_8
REMARK    4  A    between atoms: S_8  and  N_11
REMARK    5  A    between atoms: N_11  and  C_12
REMARK                            x       y       z     vdW  Elec       q    Type
REMARK                         _______ _______ _______ _____ _____    ______ ____
ROOT
ATOM      1  S   UNL     1       1.146   1.020   1.675  0.00  0.00    +0.096 S 
ATOM      2  O   UNL     1       2.377   0.584   2.235  0.00  0.00    -0.148 OA
ATOM      3  O   UNL     1       1.051   2.172   0.849  0.00  0.00    -0.148 OA
ENDROOT
BRANCH   1  10
ATOM      4  C   UNL     1       2.441  -1.710   1.537  0.00  0.00    +0.046 C 
ATOM      5  C   UNL     1       1.178  -1.541   0.732  0.00  0.00    -0.022 A 
ATOM      6  C   UNL     1       0.680  -2.601  -0.003  0.00  0.00    +0.005 A 
ATOM      7  C   UNL     1      -0.478  -2.446  -0.742  0.00  0.00    +0.003 A 
ATOM      8  C   UNL     1      -1.138  -1.231  -0.745  0.00  0.00    +0.035 A 
ATOM      9  C   UNL     1      -0.641  -0.172  -0.009  0.00  0.00    +0.153 A 
ATOM     10  C   UNL     1       0.515  -0.328   0.733  0.00  0.00    +0.143 A 
BRANCH   9  11
ATOM     11  N   UNL     1      -1.348   1.128  -0.013  0.00  0.00    +0.058 N 
ATOM     12  O   UNL     1      -1.863   1.533  -1.029  0.00  0.00    -0.126 OA
ATOM     13  O   UNL     1      -1.409   1.786   0.999  0.00  0.00    -0.126 OA
ENDBRANCH   9  11
ENDBRANCH   1  10
BRANCH   1  14
ATOM     14  N   UNL     1       0.108   1.259   2.943  0.00  0.00    -0.070 NA
BRANCH  14  15
ATOM     15  C   UNL     1       0.355   2.264   3.857  0.00  0.00    +0.202 A 
ATOM     16  N   UNL     1       1.346   3.125   3.887  0.00  0.00    -0.222 NA
ATOM     17  C   UNL     1       1.463   4.064   4.853  0.00  0.00    +0.083 A 
ATOM     18  C   UNL     1       2.472   5.043   4.999  0.00  0.00    +0.070 A 
ATOM     19  C   UNL     1       2.444   5.929   6.047  0.00  0.00    +0.160 A 
ATOM     20  C   UNL     1       1.427   5.897   6.996  0.00  0.00    +0.160 A 
ATOM     21  C   UNL     1       0.423   4.951   6.880  0.00  0.00    +0.058 A 
ATOM     22  C   UNL     1       0.447   4.062   5.835  0.00  0.00    +0.044 A 
ATOM     23  S   UNL     1      -0.596   2.727   5.298  0.00  0.00    -0.049 S 
ATOM     24  F   UNL     1       1.420   6.779   8.019  0.00  0.00    -0.202 F 
ATOM     25  F   UNL     1       3.424   6.852   6.159  0.00  0.00    -0.202 F 
ENDBRANCH  14  15
ENDBRANCH   1  14
TORSDOF 4
