REMARK  Name = ZINC09281749
REMARK  2 active torsions:
REMARK  status: ('A' for Active; 'I' for Inactive)
REMARK    1  A    between atoms: C_4  and  C_7
REMARK    2  A    between atoms: C_10  and  C_31
REMARK                            x       y       z     vdW  Elec       q    Type
REMARK                         _______ _______ _______ _____ _____    ______ ____
ROOT
ATOM      1  C   UNL     1       3.711  -0.707  -0.038  0.00  0.00    +0.106 C 
ATOM      2  C   UNL     1       4.019  -1.178  -1.464  0.00  0.00    +0.058 C 
ATOM      3  C   UNL     1       2.874  -2.061  -1.976  0.00  0.00    +0.143 C 
ATOM      4  N   UNL     1       2.569  -3.072  -0.963  0.00  0.00    -0.224 N 
ATOM      5  C   UNL     1       2.928  -2.979   0.340  0.00  0.00    +0.216 A 
ATOM      6  N   UNL     1       2.501  -4.048   0.957  0.00  0.00    -0.179 NA
ATOM      7  C   UNL     1       1.865  -4.843   0.084  0.00  0.00    +0.251 A 
ATOM      8  N   UNL     1       1.885  -4.280  -1.103  0.00  0.00    -0.131 NA
ATOM      9  N   UNL     1       1.274  -6.077   0.389  0.00  0.00    -0.176 N 
ATOM     10  C   UNL     1       0.651  -6.840  -0.530  0.00  0.00    +0.233 C 
ATOM     11  O   UNL     1       0.685  -6.690  -1.732  0.00  0.00    -0.274 OA
ATOM     12  C   UNL     1      -0.110  -7.938   0.232  0.00  0.00    +0.092 C 
ATOM     13  C   UNL     1      -1.477  -7.323   0.542  0.00  0.00    +0.040 C 
ATOM     14  C   UNL     1      -2.038  -7.761   1.851  0.00  0.00    -0.030 C 
ATOM     15  C   UNL     1      -1.354  -8.301   2.804  0.00  0.00    -0.030 C 
ATOM     16  C   UNL     1       0.106  -8.608   2.695  0.00  0.00    +0.040 C 
ATOM     17  C   UNL     1       0.773  -8.017   1.487  0.00  0.00    +0.092 C 
ATOM     18  C   UNL     1       1.283  -6.612   1.630  0.00  0.00    +0.233 C 
ATOM     19  O   UNL     1       1.630  -6.066   2.655  0.00  0.00    -0.274 OA
ATOM     20  N   UNL     1       3.630  -1.887   0.844  0.00  0.00    -0.307 N 
ATOM     21  H   UNL     1       4.044  -1.901   1.722  0.00  0.00    +0.149 HD
ENDROOT
BRANCH   3  22
ATOM     22  C   UNL     1       3.292  -2.736  -3.257  0.00  0.00    -0.023 A 
ATOM     23  C   UNL     1       4.387  -3.579  -3.269  0.00  0.00    +0.007 A 
ATOM     24  C   UNL     1       4.770  -4.198  -4.444  0.00  0.00    +0.020 A 
ATOM     25  C   UNL     1       4.057  -3.974  -5.608  0.00  0.00    +0.041 A 
ATOM     26  C   UNL     1       2.961  -3.130  -5.595  0.00  0.00    +0.020 A 
ATOM     27  C   UNL     1       2.575  -2.516  -4.418  0.00  0.00    +0.007 A 
ATOM     28 CL   UNL     1       4.538  -4.751  -7.084  0.00  0.00    -0.084 Cl
ENDBRANCH   3  22
BRANCH   1  32
ATOM     29  C   UNL     1      -0.017   1.378   0.010  0.00  0.00    +0.000 A 
ATOM     30  C   UNL     1       1.171   2.086   0.002  0.00  0.00    +0.000 A 
ATOM     31  C   UNL     1       2.377   1.411  -0.013  0.00  0.00    +0.005 A 
ATOM     32  C   UNL     1       2.396   0.029  -0.020  0.00  0.00    -0.027 A 
ATOM     33  C   UNL     1       1.208  -0.679  -0.012  0.00  0.00    +0.005 A 
ATOM     34  C   UNL     1       0.002  -0.004   0.002  0.00  0.00    +0.000 A 
ENDBRANCH   1  32
TORSDOF 2
