REMARK  Name = ZINC05619406
REMARK  12 active torsions:
REMARK  status: ('A' for Active; 'I' for Inactive)
REMARK    1  A    between atoms: C_1  and  C_2
REMARK    2  A    between atoms: C_7  and  N_8
REMARK    3  A    between atoms: C_9  and  C_25
REMARK    4  A    between atoms: C_12  and  S_13
REMARK    5  A    between atoms: S_13  and  C_14
REMARK    6  A    between atoms: C_14  and  C_15
REMARK    7  A    between atoms: N_17  and  C_18
REMARK    8  A    between atoms: C_18  and  C_19
REMARK    9  A    between atoms: C_18  and  C_20
REMARK   10  A    between atoms: C_18  and  C_22
REMARK   11  A    between atoms: C_22  and  C_23
REMARK   12  A    between atoms: C_22  and  C_24
REMARK                            x       y       z     vdW  Elec       q    Type
REMARK                         _______ _______ _______ _____ _____    ______ ____
ROOT
ATOM      1  N   UNL     1       0.002  -0.004   0.002  0.00  0.00    -0.274 N 
ATOM      2  C   UNL     1       1.326  -0.355  -0.013  0.00  0.00    +0.135 A 
ATOM      3  N   UNL     1       2.019   0.748  -0.013  0.00  0.00    -0.133 NA
ATOM      4  N   UNL     1       1.234   1.765  -0.000  0.00  0.00    -0.122 NA
ATOM      5  C   UNL     1      -0.017   1.364   0.009  0.00  0.00    +0.197 A 
ATOM      6  C   UNL     1       1.878  -1.758  -0.026  0.00  0.00    +0.088 C 
ENDROOT
BRANCH   1  13
ATOM      7  C   UNL     1      -1.029  -0.855   2.515  0.00  0.00    +0.046 C 
ATOM      8  C   UNL     1      -1.637  -1.305   1.212  0.00  0.00    -0.027 A 
ATOM      9  C   UNL     1      -2.729  -2.151   1.215  0.00  0.00    +0.005 A 
ATOM     10  C   UNL     1      -3.284  -2.569   0.020  0.00  0.00    +0.000 A 
ATOM     11  C   UNL     1      -2.752  -2.138  -1.182  0.00  0.00    +0.002 A 
ATOM     12  C   UNL     1      -1.663  -1.288  -1.191  0.00  0.00    +0.026 A 
ATOM     13  C   UNL     1      -1.104  -0.867   0.008  0.00  0.00    +0.053 A 
ENDBRANCH   1  13
BRANCH   5  14
ATOM     14  S   UNL     1      -1.447   2.393   0.022  0.00  0.00    -0.076 S 
BRANCH  14  15
ATOM     15  C   UNL     1      -0.661   4.023   0.027  0.00  0.00    +0.173 C 
BRANCH  15  16
ATOM     16  C   UNL     1      -1.723   5.092   0.038  0.00  0.00    +0.224 C 
ATOM     17  O   UNL     1      -2.896   4.782   0.042  0.00  0.00    -0.275 OA
ATOM     18  N   UNL     1      -1.370   6.393   0.044  0.00  0.00    -0.297 N 
ATOM     19  H   UNL     1      -0.432   6.641   0.040  0.00  0.00    +0.150 HD
BRANCH  18  20
ATOM     20  C   UNL     1      -2.402   7.432   0.054  0.00  0.00    +0.121 C 
ATOM     21  C   UNL     1      -3.280   7.293  -1.191  0.00  0.00    +0.048 C 
BRANCH  20  22
ATOM     22  C   UNL     1      -1.738   8.811   0.059  0.00  0.00    +0.020 C 
ATOM     23  C   UNL     1      -0.974   9.013  -1.252  0.00  0.00    +0.010 C 
ATOM     24  C   UNL     1      -2.811   9.893   0.196  0.00  0.00    +0.010 C 
ENDBRANCH  20  22
BRANCH  20  25
ATOM     25  C   UNL     1      -3.235   7.285   1.260  0.00  0.00    +0.088 C 
ATOM     26  N   UNL     1      -3.877   7.171   2.190  0.00  0.00    -0.194 NA
ENDBRANCH  20  25
ENDBRANCH  18  20
ENDBRANCH  15  16
ENDBRANCH  14  15
ENDBRANCH   5  14
TORSDOF 7
