REMARK  Name = ZINC01436676
REMARK  10 active torsions:
REMARK  status: ('A' for Active; 'I' for Inactive)
REMARK    1  A    between atoms: C_1  and  C_2
REMARK    2  A    between atoms: C_2  and  C_36
REMARK    3  A    between atoms: C_6  and  C_26
REMARK    4  A    between atoms: C_8  and  C_22
REMARK    5  A    between atoms: C_9  and  N_21
REMARK    6  A    between atoms: N_10  and  C_11
REMARK    7  A    between atoms: C_14  and  S_17
REMARK    8  A    between atoms: S_17  and  N_20
REMARK    9  A    between atoms: C_22  and  O_24
REMARK   10  A    between atoms: O_24  and  C_25
REMARK                            x       y       z     vdW  Elec       q    Type
REMARK                         _______ _______ _______ _____ _____    ______ ____
ROOT
ATOM      1  C   UNL     1       5.496   5.122  -0.964  0.00  0.00    +0.011 C 
ATOM      2  C   UNL     1       5.187   4.297  -2.215  0.00  0.00    -0.023 C 
ATOM      3  C   UNL     1       4.848   2.860  -1.813  0.00  0.00    +0.058 C 
ATOM      4  C   UNL     1       3.623   2.856  -0.932  0.00  0.00    +0.025 C 
ATOM      5  C   UNL     1       2.663   3.793  -1.072  0.00  0.00    +0.025 C 
ATOM      6  C   UNL     1       1.438   3.785  -0.196  0.00  0.00    +0.094 C 
ATOM      7  C   UNL     1       1.254   2.454   0.472  0.00  0.00    +0.084 C 
ATOM      8  C   UNL     1       2.279   1.562   0.552  0.00  0.00    +0.103 C 
ATOM      9  N   UNL     1       3.506   1.871   0.015  0.00  0.00    -0.261 N 
ATOM     10  C   UNL     1       2.775   4.806  -2.042  0.00  0.00    +0.162 C 
ATOM     11  O   UNL     1       1.883   5.625  -2.155  0.00  0.00    -0.292 OA
ATOM     12  C   UNL     1       3.977   4.896  -2.941  0.00  0.00    +0.086 C 
ATOM     13  C   UNL     1       6.402   4.298  -3.145  0.00  0.00    +0.011 C 
ENDROOT
BRANCH   6  14
ATOM     14  C   UNL     1       1.584   4.851   0.860  0.00  0.00    -0.035 A 
ATOM     15  C   UNL     1       2.618   4.780   1.774  0.00  0.00    +0.005 A 
ATOM     16  C   UNL     1       2.756   5.760   2.740  0.00  0.00    +0.015 A 
ATOM     17  C   UNL     1       1.853   6.806   2.796  0.00  0.00    +0.018 A 
ATOM     18  C   UNL     1       0.815   6.874   1.884  0.00  0.00    +0.015 A 
ATOM     19  C   UNL     1       0.681   5.896   0.916  0.00  0.00    +0.005 A 
ATOM     20 BR   UNL     1       2.036   8.143   4.121  0.00  0.00    -0.050 Br
ENDBRANCH   6  14
BRANCH   9  21
ATOM     21  C   UNL     1       4.644   1.175   0.438  0.00  0.00    +0.040 A 
ATOM     22  C   UNL     1       5.375   1.633   1.526  0.00  0.00    +0.026 A 
ATOM     23  C   UNL     1       6.496   0.942   1.944  0.00  0.00    +0.030 A 
ATOM     24  C   UNL     1       6.896  -0.200   1.273  0.00  0.00    +0.105 A 
ATOM     25  C   UNL     1       6.173  -0.655   0.185  0.00  0.00    +0.030 A 
ATOM     26  C   UNL     1       5.049   0.029  -0.234  0.00  0.00    +0.026 A 
BRANCH  24  27
ATOM     27  S   UNL     1       8.329  -1.075   1.805  0.00  0.00    +0.056 S 
ATOM     28  O   UNL     1       8.516  -0.754   3.176  0.00  0.00    -0.153 OA
ATOM     29  O   UNL     1       8.181  -2.413   1.349  0.00  0.00    -0.153 OA
BRANCH  27  30
ATOM     30  N   UNL     1       9.622  -0.439   0.989  0.00  0.00    -0.204 NA
ATOM     31  H   UNL     1      10.502  -0.438   1.399  0.00  0.00    +0.144 HD
ATOM     32  H   UNL     1       9.501  -0.067   0.102  0.00  0.00    +0.144 HD
ENDBRANCH  27  30
ENDBRANCH  24  27
ENDBRANCH   9  21
BRANCH   8  33
ATOM     33  N   UNL     1       2.087   0.352   1.169  0.00  0.00    -0.346 N 
ATOM     34  H   UNL     1       1.257  -0.132   1.039  0.00  0.00    +0.143 HD
ATOM     35  H   UNL     1       2.782  -0.019   1.734  0.00  0.00    +0.143 HD
ENDBRANCH   8  33
BRANCH   7  36
ATOM     36  C   UNL     1       0.006   2.122   1.016  0.00  0.00    +0.339 C 
ATOM     37  O   UNL     1      -0.131   1.082   1.637  0.00  0.00    -0.245 OA
BRANCH  36  38
ATOM     38  O   UNL     1      -1.047   2.952   0.849  0.00  0.00    -0.465 OA
ATOM     39  C   UNL     1      -2.290   2.547   1.426  0.00  0.00    +0.280 C 
ENDBRANCH  36  38
ENDBRANCH   7  36
TORSDOF 7
