REMARK  Name = ZINC00905874
REMARK  7 active torsions:
REMARK  status: ('A' for Active; 'I' for Inactive)
REMARK    1  A    between atoms: C_4  and  C_7
REMARK    2  A    between atoms: C_7  and  C_9
REMARK    3  A    between atoms: C_7  and  N_18
REMARK    4  A    between atoms: N_11  and  C_12
REMARK    5  A    between atoms: N_18  and  C_19
REMARK    6  A    between atoms: C_29  and  C_31
REMARK    7  A    between atoms: C_31  and  N_32
REMARK                            x       y       z     vdW  Elec       q    Type
REMARK                         _______ _______ _______ _____ _____    ______ ____
ROOT
ATOM      1  N   UNL     1       3.708  -0.737   0.322  0.00  0.00    -0.254 N 
ATOM      2  C   UNL     1       4.877  -0.069   0.378  0.00  0.00    +0.242 C 
ATOM      3  O   UNL     1       5.915  -0.637   0.111  0.00  0.00    -0.273 OA
ENDROOT
BRANCH   1   4
ATOM      4  C   UNL     1       2.501  -0.056   0.524  0.00  0.00    +0.041 A 
ATOM      5  C   UNL     1       1.754  -0.291   1.670  0.00  0.00    +0.027 A 
ATOM      6  C   UNL     1       0.563   0.380   1.869  0.00  0.00    +0.051 A 
ATOM      7  C   UNL     1       0.110   1.290   0.926  0.00  0.00    +0.162 A 
ATOM      8  C   UNL     1       0.857   1.530  -0.221  0.00  0.00    +0.164 A 
ATOM      9  C   UNL     1       2.051   0.855  -0.422  0.00  0.00    +0.073 A 
ATOM     10  O   UNL     1       0.432   2.426  -1.154  0.00  0.00    -0.485 OA
ATOM     11  C   UNL     1      -0.947   2.805  -1.102  0.00  0.00    +0.270 C 
ATOM     12  C   UNL     1      -1.305   3.116   0.358  0.00  0.00    +0.270 C 
ATOM     13  O   UNL     1      -1.071   1.937   1.136  0.00  0.00    -0.485 OA
ENDBRANCH   1   4
BRANCH   1  14
ATOM     14  C   UNL     1       3.700  -2.177   0.050  0.00  0.00    +0.197 C 
BRANCH  14  18
ATOM     15  C   UNL     1      -0.284  -3.673   0.418  0.00  0.00    +0.000 A 
ATOM     16  C   UNL     1       0.716  -4.159   1.240  0.00  0.00    +0.000 A 
ATOM     17  C   UNL     1       2.005  -3.675   1.121  0.00  0.00    +0.006 A 
ATOM     18  C   UNL     1       2.295  -2.705   0.179  0.00  0.00    -0.018 A 
ATOM     19  C   UNL     1       1.294  -2.215  -0.639  0.00  0.00    +0.006 A 
ATOM     20  C   UNL     1       0.006  -2.703  -0.523  0.00  0.00    +0.000 A 
ENDBRANCH  14  18
BRANCH  14  21
ATOM     21  C   UNL     1       4.203  -2.426  -1.349  0.00  0.00    +0.239 C 
ATOM     22  O   UNL     1       4.536  -1.494  -2.049  0.00  0.00    -0.273 OA
ATOM     23  N   UNL     1       4.284  -3.686  -1.821  0.00  0.00    -0.311 N 
ATOM     24  H   UNL     1       4.018  -4.432  -1.261  0.00  0.00    +0.149 HD
BRANCH  23  25
ATOM     25  C   UNL     1       4.773  -3.929  -3.181  0.00  0.00    +0.073 C 
ATOM     26  C   UNL     1       3.616  -3.787  -4.172  0.00  0.00    +0.022 C 
ATOM     27  C   UNL     1       4.127  -4.040  -5.592  0.00  0.00    +0.002 C 
ATOM     28  C   UNL     1       4.705  -5.454  -5.681  0.00  0.00    +0.000 C 
ATOM     29  C   UNL     1       5.862  -5.596  -4.690  0.00  0.00    +0.002 C 
ATOM     30  C   UNL     1       5.351  -5.342  -3.270  0.00  0.00    +0.022 C 
ENDBRANCH  23  25
ENDBRANCH  14  21
ENDBRANCH   1  14
BRANCH   2  31
ATOM     31  C   UNL     1       4.895   1.386   0.772  0.00  0.00    +0.242 C 
BRANCH  31  32
ATOM     32  N   UNL     1       6.282   1.844   0.888  0.00  0.00    -0.235 N 
ATOM     33  C   UNL     1       7.054   2.389  -0.110  0.00  0.00    +0.090 A 
ATOM     34  C   UNL     1       6.835   2.678  -1.453  0.00  0.00    +0.029 A 
ATOM     35  C   UNL     1       7.834   3.236  -2.200  0.00  0.00    +0.002 A 
ATOM     36  C   UNL     1       9.070   3.516  -1.630  0.00  0.00    +0.002 A 
ATOM     37  C   UNL     1       9.310   3.241  -0.316  0.00  0.00    +0.032 A 
ATOM     38  C   UNL     1       8.302   2.670   0.472  0.00  0.00    +0.113 A 
ATOM     39  N   UNL     1       8.243   2.296   1.766  0.00  0.00    -0.129 NA
ATOM     40  N   UNL     1       7.081   1.817   2.040  0.00  0.00    -0.064 NA
ENDBRANCH  31  32
ENDBRANCH   2  31
TORSDOF 7
