REMARK  Name = ZINC23259860
REMARK  9 active torsions:
REMARK  status: ('A' for Active; 'I' for Inactive)
REMARK    1  A    between atoms: C_1  and  C_2
REMARK    2  A    between atoms: C_2  and  C_4
REMARK    3  A    between atoms: C_2  and  N_14
REMARK    4  A    between atoms: C_7  and  S_10
REMARK    5  A    between atoms: S_10  and  N_13
REMARK    6  A    between atoms: N_14  and  C_15
REMARK    7  A    between atoms: N_14  and  C_16
REMARK    8  A    between atoms: C_16  and  C_17
REMARK    9  A    between atoms: N_19  and  C_20
REMARK                            x       y       z     vdW  Elec       q    Type
REMARK                         _______ _______ _______ _____ _____    ______ ____
ROOT
ATOM      1  N   UNL     1      -2.266   3.717   5.795  0.00  0.00    +0.388 N 
ATOM      2  C   UNL     1      -1.872   5.076   5.399  0.00  0.00    -0.095 C 
ATOM      3  H   UNL     1      -1.353   3.106   5.859  0.00  0.00    -0.081 HD
ENDROOT
BRANCH   1   5
ATOM      4  C   UNL     1      -4.281   4.078   4.451  0.00  0.00    -0.008 C 
ATOM      5  C   UNL     1      -3.146   3.109   4.788  0.00  0.00    -0.041 C 
BRANCH   5   6
ATOM      6  C   UNL     1      -2.353   2.812   3.541  0.00  0.00    -0.061 A 
ATOM      7  C   UNL     1      -2.971   2.842   2.305  0.00  0.00    +0.004 A 
ATOM      8  C   UNL     1      -2.243   2.569   1.162  0.00  0.00    +0.029 A 
ATOM      9  C   UNL     1      -0.897   2.268   1.254  0.00  0.00    +0.105 A 
ATOM     10  C   UNL     1      -0.280   2.234   2.491  0.00  0.00    +0.029 A 
ATOM     11  C   UNL     1      -1.007   2.510   3.634  0.00  0.00    +0.004 A 
BRANCH   9  12
ATOM     12  S   UNL     1       0.030   1.921  -0.203  0.00  0.00    +0.056 S 
ATOM     13  O   UNL     1      -0.901   1.478  -1.181  0.00  0.00    -0.153 OA
ATOM     14  O   UNL     1       1.143   1.135   0.201  0.00  0.00    -0.153 OA
BRANCH  12  15
ATOM     15  N   UNL     1       0.641   3.360  -0.749  0.00  0.00    -0.204 NA
ATOM     16  H   UNL     1       1.229   3.186  -1.662  0.00  0.00    +0.144 HD
ATOM     17  H   UNL     1       1.287   3.801   0.024  0.00  0.00    +0.144 HD
ENDBRANCH  12  15
ENDBRANCH   9  12
ENDBRANCH   5   6
ENDBRANCH   1   5
BRANCH   1  18
ATOM     18  C   UNL     1      -2.902   3.717   7.119  0.00  0.00    +0.019 C 
BRANCH  18  19
ATOM     19  C   UNL     1      -1.891   4.116   8.162  0.00  0.00    +0.201 C 
ATOM     20  O   UNL     1      -0.752   4.375   7.835  0.00  0.00    -0.278 OA
ATOM     21  N   UNL     1      -2.252   4.186   9.459  0.00  0.00    -0.286 N 
ATOM     22  H   UNL     1      -3.301   4.018   9.747  0.00  0.00    +0.155 HD
BRANCH  21  23
ATOM     23  C   UNL     1      -1.294   4.472  10.438  0.00  0.00    +0.047 A 
ATOM     24  C   UNL     1      -0.246   5.338  10.153  0.00  0.00    +0.024 A 
ATOM     25  C   UNL     1       0.695   5.622  11.123  0.00  0.00    +0.002 A 
ATOM     26  C   UNL     1       0.601   5.038  12.373  0.00  0.00    +0.001 A 
ATOM     27  C   UNL     1      -0.438   4.172  12.658  0.00  0.00    +0.016 A 
ATOM     28  C   UNL     1      -1.387   3.887  11.694  0.00  0.00    +0.035 A 
ATOM     29  I   UNL     1      -2.961   2.574  12.126  0.00  0.00    -0.042 I 
ENDBRANCH  21  23
ENDBRANCH  18  19
ENDBRANCH   1  18
TORSDOF 7
