REMARK  Name = ZINC36548398
REMARK  10 active torsions:
REMARK  status: ('A' for Active; 'I' for Inactive)
REMARK    1  A    between atoms: C_1  and  C_2
REMARK    2  A    between atoms: C_2  and  C_3
REMARK    3  A    between atoms: C_3  and  C_4
REMARK    4  A    between atoms: C_4  and  N_5
REMARK    5  A    between atoms: C_6  and  C_8
REMARK    6  A    between atoms: C_8  and  C_10
REMARK    7  A    between atoms: C_8  and  N_17
REMARK    8  A    between atoms: C_15  and  O_16
REMARK    9  A    between atoms: N_17  and  C_18
REMARK   10  A    between atoms: C_25  and  C_27
REMARK                            x       y       z     vdW  Elec       q    Type
REMARK                         _______ _______ _______ _____ _____    ______ ____
ROOT
ATOM      1  C   UNL     1      -4.414  -4.420  -0.205  0.00  0.00    +0.201 C 
ENDROOT
BRANCH   1   2
ATOM      2  C   UNL     1      -5.184  -3.806   0.936  0.00  0.00    +0.024 A 
ATOM      3  C   UNL     1      -5.230  -4.443   2.161  0.00  0.00    +0.009 A 
ATOM      4  C   UNL     1      -5.936  -3.881   3.208  0.00  0.00    +0.001 A 
ATOM      5  C   UNL     1      -6.597  -2.679   3.032  0.00  0.00    +0.004 A 
ATOM      6  C   UNL     1      -6.554  -2.038   1.809  0.00  0.00    +0.046 A 
ATOM      7  C   UNL     1      -5.842  -2.598   0.758  0.00  0.00    +0.122 A 
BRANCH   7   8
ATOM      8  O   UNL     1      -5.793  -1.966  -0.444  0.00  0.00    -0.506 OA
ATOM      9  H   UNL     1      -6.505  -2.216  -1.049  0.00  0.00    +0.292 HD
ENDBRANCH   7   8
ENDBRANCH   1   2
BRANCH   1  11
ATOM     10  N   UNL     1      -2.881  -2.798  -1.272  0.00  0.00    -0.313 N 
ATOM     11  C   UNL     1      -3.074  -3.742  -0.330  0.00  0.00    +0.239 C 
ATOM     12  O   UNL     1      -2.169  -4.047   0.418  0.00  0.00    -0.273 OA
ATOM     13  H   UNL     1      -3.605  -2.554  -1.869  0.00  0.00    +0.149 HD
BRANCH  10  14
ATOM     14  C   UNL     1      -1.578  -2.139  -1.392  0.00  0.00    +0.104 C 
BRANCH  14  15
ATOM     15  C   UNL     1      -1.627  -1.117  -2.530  0.00  0.00    +0.018 C 
BRANCH  15  17
ATOM     16  C   UNL     1      -0.315   0.593  -3.793  0.00  0.00    +0.004 C 
ATOM     17  C   UNL     1      -0.266  -0.429  -2.656  0.00  0.00    -0.002 C 
ENDBRANCH  15  17
ENDBRANCH  14  15
ENDBRANCH  10  14
ENDBRANCH   1  11
BRANCH   1  18
ATOM     18  N   UNL     1      -4.217  -5.849   0.051  0.00  0.00    -0.252 N 
ATOM     19  C   UNL     1      -5.283  -6.660   0.201  0.00  0.00    +0.241 C 
ATOM     20  O   UNL     1      -6.406  -6.207   0.122  0.00  0.00    -0.273 OA
BRANCH  18  21
ATOM     21  C   UNL     1      -2.922  -6.372   0.142  0.00  0.00    +0.056 A 
ATOM     22  C   UNL     1      -2.319  -6.526   1.383  0.00  0.00    +0.025 A 
ATOM     23  C   UNL     1      -1.041  -7.042   1.469  0.00  0.00    +0.002 A 
ATOM     24  C   UNL     1      -0.361  -7.405   0.321  0.00  0.00    +0.002 A 
ATOM     25  C   UNL     1      -0.957  -7.252  -0.917  0.00  0.00    +0.022 A 
ATOM     26  C   UNL     1      -2.239  -6.742  -1.010  0.00  0.00    +0.062 A 
ATOM     27 CL   UNL     1      -2.990  -6.557  -2.564  0.00  0.00    -0.082 Cl
ENDBRANCH  18  21
BRANCH  19  28
ATOM     28  C   UNL     1      -5.080  -8.130   0.465  0.00  0.00    +0.160 C 
ATOM     29  C   UNL     1      -4.794  -8.876  -0.857  0.00  0.00    +0.041 C 
ATOM     30  C   UNL     1      -6.208  -9.347  -1.266  0.00  0.00    +0.098 C 
ATOM     31  C   UNL     1      -6.970  -9.411   0.039  0.00  0.00    +0.214 C 
ATOM     32  O   UNL     1      -8.020  -9.995   0.203  0.00  0.00    -0.276 OA
ATOM     33  N   UNL     1      -6.313  -8.725   0.994  0.00  0.00    -0.304 N 
ATOM     34  H   UNL     1      -6.614  -8.636   1.911  0.00  0.00    +0.149 HD
ENDBRANCH  19  28
ENDBRANCH   1  18
TORSDOF 9
