REMARK  Name = ZINC06244761
REMARK  9 active torsions:
REMARK  status: ('A' for Active; 'I' for Inactive)
REMARK    1  A    between atoms: C_1  and  C_2
REMARK    2  A    between atoms: C_5  and  C_35
REMARK    3  A    between atoms: C_9  and  C_14
REMARK    4  A    between atoms: C_14  and  C_16
REMARK    5  A    between atoms: C_14  and  N_25
REMARK    6  A    between atoms: N_20  and  C_21
REMARK    7  A    between atoms: C_21  and  C_22
REMARK    8  A    between atoms: C_21  and  C_23
REMARK    9  A    between atoms: C_21  and  C_24
REMARK                            x       y       z     vdW  Elec       q    Type
REMARK                         _______ _______ _______ _____ _____    ______ ____
ROOT
ATOM      1  C   UNL     1       2.539   4.058  -0.166  0.00  0.00    +0.179 C 
ENDROOT
BRANCH   1  10
ATOM      2  C   UNL     1      -2.659   4.321  -0.310  0.00  0.00    +0.044 C 
ATOM      3  C   UNL     1      -2.266   2.958  -0.819  0.00  0.00    -0.041 A 
ATOM      4  C   UNL     1      -3.226   2.068  -1.210  0.00  0.00    +0.004 A 
ATOM      5  C   UNL     1      -2.874   0.811  -1.681  0.00  0.00    +0.005 A 
ATOM      6  C   UNL     1      -1.550   0.436  -1.764  0.00  0.00    -0.026 A 
ATOM      7  C   UNL     1      -0.555   1.327  -1.377  0.00  0.00    +0.052 A 
ATOM      8  C   UNL     1      -0.916   2.599  -0.895  0.00  0.00    +0.002 A 
ATOM      9  C   UNL     1       0.139   3.529  -0.484  0.00  0.00    +0.021 A 
ATOM     10  C   UNL     1       1.430   3.126  -0.580  0.00  0.00    +0.045 A 
ATOM     11  C   UNL     1       1.738   1.837  -1.065  0.00  0.00    +0.255 A 
ATOM     12  O   UNL     1       2.906   1.495  -1.143  0.00  0.00    -0.268 OA
ATOM     13  N   UNL     1       0.777   0.977  -1.444  0.00  0.00    -0.322 N 
ATOM     14  H   UNL     1       1.024   0.098  -1.773  0.00  0.00    +0.169 HD
ATOM     15  C   UNL     1      -1.182  -0.932  -2.278  0.00  0.00    +0.046 C 
ENDBRANCH   1  10
BRANCH   1  16
ATOM     16  N   UNL     1       3.564   4.096  -1.218  0.00  0.00    -0.316 N 
ATOM     17  C   UNL     1       4.880   4.411  -0.658  0.00  0.00    +0.106 C 
ATOM     18  C   UNL     1       5.900   4.465  -1.802  0.00  0.00    +0.024 C 
ATOM     19  C   UNL     1       5.575   5.687  -2.665  0.00  0.00    +0.038 C 
ATOM     20  C   UNL     1       4.097   5.719  -2.962  0.00  0.00    -0.026 A 
ATOM     21  C   UNL     1       3.188   4.955  -2.250  0.00  0.00    +0.034 A 
ATOM     22  C   UNL     1       1.831   5.033  -2.567  0.00  0.00    +0.023 A 
ATOM     23  C   UNL     1       1.397   5.860  -3.581  0.00  0.00    +0.002 A 
ATOM     24  C   UNL     1       2.309   6.618  -4.292  0.00  0.00    +0.000 A 
ATOM     25  C   UNL     1       3.653   6.546  -3.982  0.00  0.00    +0.005 A 
ENDBRANCH   1  16
BRANCH   1  26
ATOM     26  C   UNL     1       3.156   3.566   1.118  0.00  0.00    +0.177 A 
ATOM     27  N   UNL     1       3.811   2.443   1.292  0.00  0.00    -0.111 NA
ATOM     28  N   UNL     1       4.181   2.386   2.525  0.00  0.00    -0.023 NA
ATOM     29  N   UNL     1       3.773   3.439   3.143  0.00  0.00    -0.043 NA
ATOM     30  N   UNL     1       3.137   4.191   2.309  0.00  0.00    -0.222 N 
BRANCH  30  31
ATOM     31  C   UNL     1       2.512   5.483   2.605  0.00  0.00    +0.059 C 
ATOM     32  C   UNL     1       1.022   5.417   2.265  0.00  0.00    +0.036 C 
ATOM     33  C   UNL     1       2.683   5.804   4.091  0.00  0.00    +0.036 C 
ATOM     34  C   UNL     1       3.179   6.575   1.766  0.00  0.00    +0.036 C 
ENDBRANCH  30  31
ENDBRANCH   1  26
TORSDOF 4
