REMARK  Name = ZINC63383512
REMARK  8 active torsions:
REMARK  status: ('A' for Active; 'I' for Inactive)
REMARK    1  A    between atoms: C_1  and  C_2
REMARK    2  A    between atoms: C_2  and  C_3
REMARK    3  A    between atoms: C_2  and  C_4
REMARK    4  A    between atoms: C_4  and  C_5
REMARK    5  A    between atoms: C_5  and  C_7
REMARK    6  A    between atoms: C_5  and  N_13
REMARK    7  A    between atoms: N_9  and  C_10
REMARK    8  A    between atoms: C_14  and  C_16
REMARK                            x       y       z     vdW  Elec       q    Type
REMARK                         _______ _______ _______ _____ _____    ______ ____
ROOT
ATOM      1  C   UNL     1      -0.537   3.198  -2.484  0.00  0.00    +0.167 C 
ATOM      2  C   UNL     1      -1.686   3.778  -3.331  0.00  0.00    +0.065 C 
ATOM      3  C   UNL     1      -1.482   3.296  -4.747  0.00  0.00    -0.034 C 
ATOM      4  C   UNL     1      -2.308   2.670  -5.579  0.00  0.00    -0.001 A 
ATOM      5  C   UNL     1      -3.730   2.309  -5.459  0.00  0.00    +0.010 A 
ATOM      6  C   UNL     1      -4.270   1.642  -6.513  0.00  0.00    +0.001 A 
ATOM      7  C   UNL     1      -3.547   1.303  -7.660  0.00  0.00    +0.002 A 
ATOM      8  C   UNL     1      -2.239   1.602  -7.859  0.00  0.00    +0.026 A 
ATOM      9  C   UNL     1      -1.563   2.309  -6.823  0.00  0.00    +0.043 A 
ATOM     10  N   UNL     1      -0.336   2.735  -6.757  0.00  0.00    -0.375 N 
ATOM     11  C   UNL     1      -0.165   3.460  -5.497  0.00  0.00    +0.131 C 
ATOM     12  C   UNL     1       0.916   2.819  -4.619  0.00  0.00    +0.134 C 
ATOM     13  N   UNL     1       0.716   3.326  -3.240  0.00  0.00    -0.276 N 
ATOM     14  C   UNL     1       1.848   3.921  -2.824  0.00  0.00    +0.248 C 
ATOM     15  O   UNL     1       2.029   4.371  -1.709  0.00  0.00    -0.270 OA
ATOM     16  C   UNL     1       2.833   3.946  -3.907  0.00  0.00    +0.042 A 
ATOM     17  C   UNL     1       2.279   3.268  -5.038  0.00  0.00    -0.013 A 
ATOM     18  C   UNL     1       2.967   3.125  -6.222  0.00  0.00    +0.006 A 
ATOM     19  C   UNL     1       4.247   3.669  -6.279  0.00  0.00    +0.000 A 
ATOM     20  C   UNL     1       4.807   4.323  -5.199  0.00  0.00    +0.001 A 
ATOM     21  C   UNL     1       4.117   4.493  -3.961  0.00  0.00    +0.013 A 
ATOM     22  H   UNL     1       0.349   2.595  -7.429  0.00  0.00    +0.160 HD
ENDROOT
BRANCH   1  24
ATOM     23  N   UNL     1      -1.914   1.387  -1.512  0.00  0.00    -0.302 N 
ATOM     24  C   UNL     1      -0.806   1.744  -2.193  0.00  0.00    +0.235 C 
ATOM     25  O   UNL     1      -0.027   0.895  -2.571  0.00  0.00    -0.274 OA
ATOM     26  H   UNL     1      -2.573   2.056  -1.273  0.00  0.00    +0.150 HD
BRANCH  23  27
ATOM     27  C   UNL     1      -2.121  -0.013  -1.134  0.00  0.00    +0.159 C 
BRANCH  27  28
ATOM     28  C   UNL     1      -3.599  -0.297  -1.050  0.00  0.00    +0.234 C 
ATOM     29  O   UNL     1      -4.386   0.618  -0.933  0.00  0.00    -0.274 OA
ATOM     30  N   UNL     1      -4.045  -1.568  -1.103  0.00  0.00    -0.311 N 
ATOM     31  H   UNL     1      -3.413  -2.303  -1.125  0.00  0.00    +0.149 HD
BRANCH  30  32
ATOM     32  C   UNL     1      -5.485  -1.838  -1.128  0.00  0.00    +0.073 C 
ATOM     33  C   UNL     1      -6.007  -2.969  -0.240  0.00  0.00    +0.024 C 
ATOM     34  C   UNL     1      -5.946  -3.154  -1.757  0.00  0.00    +0.024 C 
ENDBRANCH  30  32
ENDBRANCH  27  28
BRANCH  27  35
ATOM     35  C   UNL     1      -1.472  -0.276   0.226  0.00  0.00    +0.034 C 
BRANCH  35  37
ATOM     36  C   UNL     1      -0.715  -2.568  -0.418  0.00  0.00    +0.007 C 
ATOM     37  C   UNL     1      -1.574  -1.765   0.561  0.00  0.00    -0.015 C 
ATOM     38  C   UNL     1      -1.076  -2.002   1.988  0.00  0.00    +0.007 C 
ENDBRANCH  35  37
ENDBRANCH  27  35
ENDBRANCH  23  27
ENDBRANCH   1  24
TORSDOF 6
