REMARK  Name = ZINC58870832
REMARK  12 active torsions:
REMARK  status: ('A' for Active; 'I' for Inactive)
REMARK    1  A    between atoms: C_1  and  C_2
REMARK    2  A    between atoms: C_2  and  O_3
REMARK    3  A    between atoms: O_3  and  C_4
REMARK    4  A    between atoms: C_4  and  C_6
REMARK    5  A    between atoms: C_9  and  N_12
REMARK    6  A    between atoms: C_16  and  S_20
REMARK    7  A    between atoms: S_20  and  C_21
REMARK    8  A    between atoms: N_22  and  N_23
REMARK    9  A    between atoms: C_24  and  C_25
REMARK   10  A    between atoms: C_24  and  C_26
REMARK   11  A    between atoms: C_26  and  C_27
REMARK   12  A    between atoms: C_27  and  C_28
REMARK                            x       y       z     vdW  Elec       q    Type
REMARK                         _______ _______ _______ _____ _____    ______ ____
ROOT
ATOM      1  C   UNL     1       5.524  -7.843  -6.617  0.00  0.00    +0.146 C 
ATOM      2  N   UNL     1       6.490  -8.694  -6.339  0.00  0.00    -0.259 N 
ATOM      3  N   UNL     1       4.213  -8.240  -6.523  0.00  0.00    -0.338 N 
ATOM      4  H   UNL     1       3.501  -7.614  -6.728  0.00  0.00    +0.144 HD
ATOM      5  H   UNL     1       3.998  -9.146  -6.251  0.00  0.00    +0.144 HD
ATOM      6  H   UNL     1       7.417  -8.414  -6.406  0.00  0.00    +0.191 HD
ENDROOT
BRANCH   2   7
ATOM      7  N   UNL     1       6.181 -10.002  -5.947  0.00  0.00    -0.182 NA
ATOM      8  C   UNL     1       7.130 -10.837  -5.673  0.00  0.00    +0.036 C 
ATOM      9  C   UNL     1       8.569 -10.402  -5.777  0.00  0.00    +0.062 C 
BRANCH   8  10
ATOM     10  C   UNL     1       6.797 -12.245  -5.251  0.00  0.00    +0.057 C 
BRANCH  10  11
ATOM     11  C   UNL     1       7.304 -13.228  -6.309  0.00  0.00    +0.041 C 
BRANCH  11  12
ATOM     12  C   UNL     1       6.971 -14.636  -5.886  0.00  0.00    -0.043 A 
ATOM     13  C   UNL     1       7.865 -15.354  -5.115  0.00  0.00    +0.007 A 
ATOM     14  C   UNL     1       7.564 -16.646  -4.725  0.00  0.00    +0.050 A 
ATOM     15  C   UNL     1       6.364 -17.224  -5.107  0.00  0.00    +0.166 A 
ATOM     16  C   UNL     1       5.463 -16.500  -5.884  0.00  0.00    +0.166 A 
ATOM     17  C   UNL     1       5.769 -15.204  -6.267  0.00  0.00    +0.053 A 
ATOM     18  O   UNL     1       4.369 -17.280  -6.125  0.00  0.00    -0.453 OA
ATOM     19  C   UNL     1       4.786 -18.627  -5.834  0.00  0.00    +0.466 C 
ATOM     20  O   UNL     1       5.835 -18.458  -4.861  0.00  0.00    -0.453 OA
ENDBRANCH  11  12
ENDBRANCH  10  11
ENDBRANCH   8  10
ENDBRANCH   2   7
BRANCH   1  21
ATOM     21  S   UNL     1       5.913  -6.197  -7.111  0.00  0.00    -0.078 S 
BRANCH  21  26
ATOM     22  N   UNL     1       3.369  -3.896  -5.888  0.00  0.00    -0.209 N 
ATOM     23  C   UNL     1       3.822  -3.124  -6.883  0.00  0.00    +0.228 C 
ATOM     24  O   UNL     1       3.736  -1.915  -6.930  0.00  0.00    -0.275 OA
ATOM     25  C   UNL     1       4.460  -3.998  -7.941  0.00  0.00    +0.120 C 
ATOM     26  C   UNL     1       4.294  -5.425  -7.378  0.00  0.00    +0.149 C 
ATOM     27  C   UNL     1       3.586  -5.206  -6.059  0.00  0.00    +0.240 C 
ATOM     28  O   UNL     1       3.263  -6.078  -5.282  0.00  0.00    -0.274 OA
BRANCH  22  32
ATOM     29  C   UNL     1       1.455  -2.346  -2.524  0.00  0.00    +0.059 A 
ATOM     30  C   UNL     1       2.713  -2.943  -2.402  0.00  0.00    +0.017 A 
ATOM     31  C   UNL     1       3.342  -3.454  -3.515  0.00  0.00    +0.025 A 
ATOM     32  C   UNL     1       2.727  -3.376  -4.760  0.00  0.00    +0.044 A 
ATOM     33  C   UNL     1       1.475  -2.783  -4.886  0.00  0.00    +0.025 A 
ATOM     34  C   UNL     1       0.838  -2.275  -3.776  0.00  0.00    +0.017 A 
BRANCH  29  35
ATOM     35  C   UNL     1       0.778  -1.797  -1.334  0.00  0.00    +0.339 C 
ATOM     36  O   UNL     1      -0.318  -1.283  -1.442  0.00  0.00    -0.245 OA
BRANCH  35  37
ATOM     37  O   UNL     1       1.374  -1.866  -0.128  0.00  0.00    -0.461 OA
BRANCH  37  39
ATOM     38  C   UNL     1       1.490  -1.484   2.256  0.00  0.00    +0.048 C 
ATOM     39  C   UNL     1       0.661  -1.315   0.981  0.00  0.00    +0.229 C 
ENDBRANCH  37  39
ENDBRANCH  35  37
ENDBRANCH  29  35
ENDBRANCH  22  32
ENDBRANCH  21  26
ENDBRANCH   1  21
TORSDOF 10
