REMARK  Name = ZINC67554303
REMARK  12 active torsions:
REMARK  status: ('A' for Active; 'I' for Inactive)
REMARK    1  A    between atoms: C_1  and  C_2
REMARK    2  A    between atoms: C_2  and  O_3
REMARK    3  A    between atoms: O_3  and  C_4
REMARK    4  A    between atoms: C_6  and  N_11
REMARK    5  A    between atoms: C_9  and  C_10
REMARK    6  A    between atoms: C_12  and  C_14
REMARK    7  A    between atoms: N_16  and  C_17
REMARK    8  A    between atoms: C_17  and  C_18
REMARK    9  A    between atoms: C_18  and  C_19
REMARK   10  A    between atoms: C_18  and  C_20
REMARK   11  A    between atoms: C_18  and  N_21
REMARK   12  A    between atoms: C_25  and  C_28
REMARK                            x       y       z     vdW  Elec       q    Type
REMARK                         _______ _______ _______ _____ _____    ______ ____
ROOT
ATOM      1  C   UNL     1      -0.821  -7.163   1.121  0.00  0.00    +0.299 C 
ATOM      2  O   UNL     1      -1.366  -6.702   2.103  0.00  0.00    -0.265 OA
ATOM      3  N   UNL     1      -0.815  -8.495   0.917  0.00  0.00    -0.309 N 
ATOM      4  H   UNL     1      -0.379  -8.864   0.133  0.00  0.00    +0.149 HD
ENDROOT
BRANCH   1   6
ATOM      5  N   UNL     1      -0.162  -4.922   0.345  0.00  0.00    -0.278 N 
ATOM      6  C   UNL     1      -0.156  -6.254   0.140  0.00  0.00    +0.303 C 
ATOM      7  O   UNL     1       0.389  -6.715  -0.841  0.00  0.00    -0.265 OA
ATOM      8  H   UNL     1      -0.545  -4.558   1.158  0.00  0.00    +0.155 HD
BRANCH   5  11
ATOM      9  C   UNL     1       0.355  -1.975  -1.795  0.00  0.00    +0.125 A 
ATOM     10  C   UNL     1      -0.190  -2.822  -0.843  0.00  0.00    +0.069 A 
ATOM     11  C   UNL     1       0.383  -4.066  -0.615  0.00  0.00    +0.037 A 
ATOM     12  C   UNL     1       1.500  -4.458  -1.343  0.00  0.00    +0.024 A 
ATOM     13  C   UNL     1       2.040  -3.611  -2.292  0.00  0.00    +0.009 A 
ATOM     14  C   UNL     1       1.467  -2.374  -2.523  0.00  0.00    -0.009 A 
ATOM     15  C   UNL     1       2.055  -1.456  -3.563  0.00  0.00    +0.047 C 
BRANCH   9  16
ATOM     16  O   UNL     1      -0.204  -0.757  -2.021  0.00  0.00    -0.492 OA
BRANCH  16  18
ATOM     17  C   UNL     1      -1.832   0.985  -1.627  0.00  0.00    +0.048 C 
ATOM     18  C   UNL     1      -1.347  -0.412  -1.235  0.00  0.00    +0.225 C 
ENDBRANCH  16  18
ENDBRANCH   9  16
ENDBRANCH   5  11
ENDBRANCH   1   6
BRANCH   3  19
ATOM     19  C   UNL     1      -1.466  -9.387   1.880  0.00  0.00    +0.092 C 
BRANCH  19  20
ATOM     20  C   UNL     1      -1.209 -10.842   1.482  0.00  0.00    -0.055 C 
ATOM     21  C   UNL     1       0.296 -11.117   1.499  0.00  0.00    -0.008 C 
ATOM     22  C   UNL     1      -1.909 -11.773   2.474  0.00  0.00    -0.008 C 
BRANCH  20  23
ATOM     23  N   UNL     1      -1.736 -11.081   0.132  0.00  0.00    +0.384 N 
ATOM     24  C   UNL     1      -3.155 -10.709   0.088  0.00  0.00    -0.078 C 
ATOM     25  C   UNL     1      -3.687 -10.880  -1.336  0.00  0.00    -0.018 C 
ATOM     26  C   UNL     1      -3.527 -12.342  -1.764  0.00  0.00    -0.001 C 
ATOM     27  C   UNL     1      -2.054 -12.740  -1.643  0.00  0.00    -0.031 C 
ATOM     28  C   UNL     1      -1.582 -12.501  -0.207  0.00  0.00    -0.075 C 
ATOM     29  C   UNL     1      -1.895 -14.221  -1.994  0.00  0.00    +0.005 C 
ATOM     30  H   UNL     1      -1.222 -10.521  -0.532  0.00  0.00    -0.081 HD
ENDBRANCH  20  23
ENDBRANCH  19  20
ENDBRANCH   3  19
TORSDOF 7
