REMARK  Name = ZINC05625954
REMARK  5 active torsions:
REMARK  status: ('A' for Active; 'I' for Inactive)
REMARK    1  A    between atoms: C_1  and  C_2
REMARK    2  A    between atoms: C_5  and  N_9
REMARK    3  A    between atoms: C_6  and  C_8
REMARK    4  A    between atoms: C_10  and  O_32
REMARK    5  A    between atoms: C_11  and  C_18
REMARK                            x       y       z     vdW  Elec       q    Type
REMARK                         _______ _______ _______ _____ _____    ______ ____
ROOT
ATOM      1  N   UNL     1      -0.072   3.936   0.024  0.00  0.00    -0.260 N 
ATOM      2  C   UNL     1       1.145   3.302   0.009  0.00  0.00    +0.206 A 
ATOM      3  C   UNL     1       1.191   1.939   0.001  0.00  0.00    +0.068 A 
ATOM      4  C   UNL     1      -0.015   1.215   0.009  0.00  0.00    +0.258 A 
ATOM      5  O   UNL     1       0.002  -0.004   0.002  0.00  0.00    -0.267 OA
ATOM      6  N   UNL     1      -1.188   1.877   0.018  0.00  0.00    -0.302 N 
ATOM      7  H   UNL     1      -2.021   1.380   0.019  0.00  0.00    +0.171 HD
ATOM      8  C   UNL     1      -1.213   3.222   0.031  0.00  0.00    +0.168 A 
ATOM      9  S   UNL     1      -2.718   4.038   0.049  0.00  0.00    -0.012 S 
ENDROOT
BRANCH   3  10
ATOM     10  C   UNL     1       2.515   1.219  -0.016  0.00  0.00    +0.018 C 
ATOM     11  C   UNL     1       2.657   0.448  -1.307  0.00  0.00    +0.011 A 
ATOM     12  C   UNL     1       3.130  -0.822  -1.356  0.00  0.00    -0.022 A 
ATOM     13  C   UNL     1       3.114  -1.228  -2.743  0.00  0.00    +0.003 A 
ATOM     14  C   UNL     1       3.482  -2.411  -3.392  0.00  0.00    +0.010 A 
ATOM     15  C   UNL     1       3.328  -2.445  -4.756  0.00  0.00    +0.001 A 
ATOM     16  C   UNL     1       2.832  -1.365  -5.468  0.00  0.00    +0.002 A 
ATOM     17  C   UNL     1       2.459  -0.183  -4.853  0.00  0.00    +0.026 A 
ATOM     18  C   UNL     1       2.605  -0.119  -3.468  0.00  0.00    +0.047 A 
ATOM     19  N   UNL     1       2.340   0.871  -2.566  0.00  0.00    -0.359 N 
ATOM     20  H   UNL     1       1.983   1.746  -2.786  0.00  0.00    +0.166 HD
ATOM     21  C   UNL     1       3.572  -1.593  -0.138  0.00  0.00    +0.018 C 
ATOM     22  C   UNL     1       3.760  -0.596   1.013  0.00  0.00    -0.076 C 
ATOM     23  N   UNL     1       2.568   0.270   1.118  0.00  0.00    +0.388 N 
ATOM     24  H   UNL     1       1.724  -0.314   1.109  0.00  0.00    -0.084 HD
ATOM     25  H   UNL     1       2.610   0.798   1.998  0.00  0.00    -0.084 HD
ENDBRANCH   3  10
BRANCH   1  30
ATOM     26  C   UNL     1      -0.298   9.606   0.059  0.00  0.00    +0.044 C 
ATOM     27  C   UNL     1      -0.237   8.101   0.049  0.00  0.00    -0.050 A 
ATOM     28  C   UNL     1      -0.221   7.418  -1.153  0.00  0.00    +0.005 A 
ATOM     29  C   UNL     1      -0.166   6.038  -1.165  0.00  0.00    +0.027 A 
ATOM     30  C   UNL     1      -0.128   5.336   0.033  0.00  0.00    +0.055 A 
ATOM     31  C   UNL     1      -0.149   6.024   1.238  0.00  0.00    -0.026 A 
ATOM     32  C   UNL     1      -0.199   7.404   1.243  0.00  0.00    +0.008 A 
ATOM     33  C   UNL     1      -0.114   5.266   2.540  0.00  0.00    +0.046 C 
ENDBRANCH   1  30
BRANCH   2  34
ATOM     34  O   UNL     1       2.288   4.021   0.002  0.00  0.00    -0.493 OA
ATOM     35  H   UNL     1       2.150   4.978   0.009  0.00  0.00    +0.294 HD
ENDBRANCH   2  34
TORSDOF 3
