REMARK  Name = ZINC36681946
REMARK  5 active torsions:
REMARK  status: ('A' for Active; 'I' for Inactive)
REMARK    1  A    between atoms: C_1  and  N_2
REMARK    2  A    between atoms: C_10  and  O_23
REMARK    3  A    between atoms: C_12  and  C_15
REMARK    4  A    between atoms: C_18  and  O_22
REMARK    5  A    between atoms: C_20  and  O_21
REMARK                            x       y       z     vdW  Elec       q    Type
REMARK                         _______ _______ _______ _____ _____    ______ ____
ROOT
ATOM      1  C   UNL     1      -0.018   1.465   0.010  0.00  0.00    -0.096 C 
ATOM      2  N   UNL     1       0.002  -0.004   0.002  0.00  0.00    +0.381 N 
ATOM      3  C   UNL     1      -1.376  -0.512   0.009  0.00  0.00    -0.074 C 
ATOM      4  C   UNL     1      -1.389  -2.010  -0.313  0.00  0.00    +0.018 C 
ATOM      5  C   UNL     1      -0.412  -2.700   0.629  0.00  0.00    -0.027 A 
ATOM      6  C   UNL     1       0.520  -1.972   1.290  0.00  0.00    -0.021 A 
ATOM      7  S   UNL     1       1.417  -3.156   2.252  0.00  0.00    -0.080 S 
ATOM      8  C   UNL     1       0.610  -4.536   1.811  0.00  0.00    +0.080 A 
ATOM      9  C   UNL     1      -0.373  -4.122   0.903  0.00  0.00    +0.067 A 
ATOM     10  C   UNL     1      -1.253  -5.169   0.322  0.00  0.00    +0.220 C 
ATOM     11  N   UNL     1      -1.228  -6.354   0.869  0.00  0.00    -0.223 NA
ATOM     12  C   UNL     1      -0.446  -6.703   2.049  0.00  0.00    +0.227 C 
ATOM     13  N   UNL     1       0.754  -5.856   2.175  0.00  0.00    -0.313 N 
ATOM     14  C   UNL     1       0.715  -0.492   1.197  0.00  0.00    -0.036 C 
ATOM     15  H   UNL     1       1.598  -6.208   2.497  0.00  0.00    +0.149 HD
ATOM     16  H   UNL     1       0.475  -0.329  -0.828  0.00  0.00    -0.082 HD
ENDROOT
BRANCH  12  17
ATOM     17  C   UNL     1      -1.302  -6.527   3.276  0.00  0.00    +0.036 A 
ATOM     18  C   UNL     1      -0.736  -6.078   4.454  0.00  0.00    +0.014 A 
ATOM     19  C   UNL     1      -1.518  -5.916   5.581  0.00  0.00    +0.046 A 
ATOM     20  C   UNL     1      -2.875  -6.204   5.533  0.00  0.00    +0.120 A 
ATOM     21  C   UNL     1      -3.445  -6.655   4.353  0.00  0.00    +0.091 A 
ATOM     22  C   UNL     1      -2.659  -6.811   3.221  0.00  0.00    +0.127 A 
BRANCH  22  23
ATOM     23  O   UNL     1      -3.216  -7.248   2.061  0.00  0.00    -0.506 OA
ATOM     24  H   UNL     1      -3.212  -8.209   1.960  0.00  0.00    +0.292 HD
ENDBRANCH  22  23
BRANCH  20  25
ATOM     25  O   UNL     1      -3.644  -6.045   6.642  0.00  0.00    -0.507 OA
ATOM     26  H   UNL     1      -4.036  -5.165   6.727  0.00  0.00    +0.292 HD
ENDBRANCH  20  25
ENDBRANCH  12  17
BRANCH  10  27
ATOM     27  O   UNL     1      -2.052  -4.904  -0.738  0.00  0.00    -0.492 OA
ATOM     28  H   UNL     1      -2.579  -5.659  -1.031  0.00  0.00    +0.294 HD
ENDBRANCH  10  27
TORSDOF 4
