REMARK  Name = ZINC09968647
REMARK  9 active torsions:
REMARK  status: ('A' for Active; 'I' for Inactive)
REMARK    1  A    between atoms: C_1  and  C_2
REMARK    2  A    between atoms: C_2  and  O_3
REMARK    3  A    between atoms: O_3  and  C_4
REMARK    4  A    between atoms: C_6  and  C_12
REMARK    5  A    between atoms: C_9  and  O_10
REMARK    6  A    between atoms: C_17  and  C_27
REMARK    7  A    between atoms: C_19  and  C_23
REMARK    8  A    between atoms: C_23  and  O_25
REMARK    9  A    between atoms: O_25  and  C_26
REMARK                            x       y       z     vdW  Elec       q    Type
REMARK                         _______ _______ _______ _____ _____    ______ ____
ROOT
ATOM      1  C   UNL     1      -2.663   2.401  -2.492  0.00  0.00    +0.136 C 
ATOM      2  C   UNL     1      -2.167   1.879  -1.165  0.00  0.00    +0.037 C 
ATOM      3  C   UNL     1      -2.916   1.679  -0.067  0.00  0.00    +0.017 C 
ATOM      4  C   UNL     1      -2.287   1.141   1.207  0.00  0.00    +0.055 C 
ATOM      5  C   UNL     1      -0.841   1.633   1.325  0.00  0.00    +0.013 C 
ATOM      6  C   UNL     1      -0.079   1.124   0.096  0.00  0.00    +0.171 C 
ATOM      7  C   UNL     1      -0.779   1.608  -1.139  0.00  0.00    +0.177 C 
ATOM      8  O   UNL     1      -0.130   1.774  -2.153  0.00  0.00    -0.291 OA
ATOM      9  C   UNL     1      -0.201   1.077   2.599  0.00  0.00    +0.009 C 
ATOM     10  N   UNL     1      -4.251   1.911   0.011  0.00  0.00    -0.316 N 
ATOM     11  C   UNL     1      -4.888   3.058  -0.448  0.00  0.00    +0.052 A 
ATOM     12  C   UNL     1      -5.527   3.942   0.404  0.00  0.00    +0.025 A 
ATOM     13  C   UNL     1      -6.183   5.040  -0.126  0.00  0.00    +0.002 A 
ATOM     14  C   UNL     1      -6.200   5.250  -1.492  0.00  0.00    +0.002 A 
ATOM     15  C   UNL     1      -5.545   4.378  -2.344  0.00  0.00    +0.025 A 
ATOM     16  C   UNL     1      -4.870   3.290  -1.815  0.00  0.00    +0.049 A 
ATOM     17  N   UNL     1      -4.104   2.447  -2.620  0.00  0.00    -0.331 N 
ATOM     18  H   UNL     1      -4.803   1.224   0.418  0.00  0.00    +0.152 HD
ATOM     19  H   UNL     1      -4.544   1.884  -3.275  0.00  0.00    +0.147 HD
ENDROOT
BRANCH   1  22
ATOM     20  C   UNL     1      -0.760   5.335  -3.922  0.00  0.00    +0.163 A 
ATOM     21  C   UNL     1      -1.256   4.054  -3.735  0.00  0.00    +0.055 A 
ATOM     22  C   UNL     1      -2.121   3.793  -2.690  0.00  0.00    -0.018 A 
ATOM     23  C   UNL     1      -2.487   4.806  -1.822  0.00  0.00    +0.025 A 
ATOM     24  C   UNL     1      -1.992   6.085  -1.999  0.00  0.00    +0.063 A 
ATOM     25  C   UNL     1      -1.128   6.354  -3.049  0.00  0.00    +0.173 A 
ATOM     26 BR   UNL     1      -2.494   7.466  -0.809  0.00  0.00    -0.046 Br
BRANCH  25  27
ATOM     27  O   UNL     1      -0.639   7.611  -3.224  0.00  0.00    -0.503 OA
ATOM     28  H   UNL     1       0.191   7.780  -2.758  0.00  0.00    +0.292 HD
ENDBRANCH  25  27
BRANCH  20  29
ATOM     29  O   UNL     1       0.088   5.594  -4.953  0.00  0.00    -0.489 OA
BRANCH  29  31
ATOM     30  C   UNL     1       1.378   4.981  -6.902  0.00  0.00    +0.048 C 
ATOM     31  C   UNL     1       0.421   4.500  -5.810  0.00  0.00    +0.226 C 
ENDBRANCH  29  31
ENDBRANCH  20  29
ENDBRANCH   1  22
BRANCH   6  32
ATOM     32  C   UNL     1       1.331   1.655   0.119  0.00  0.00    +0.318 C 
ATOM     33  O   UNL     1       1.695   2.363   1.028  0.00  0.00    -0.250 OA
BRANCH  32  34
ATOM     34  O   UNL     1       2.183   1.342  -0.870  0.00  0.00    -0.467 OA
ATOM     35  C   UNL     1       3.525   1.889  -0.782  0.00  0.00    +0.280 C 
ENDBRANCH  32  34
ENDBRANCH   6  32
TORSDOF 6
