REMARK  Name = ZINC14983102
REMARK  11 active torsions:
REMARK  status: ('A' for Active; 'I' for Inactive)
REMARK    1  A    between atoms: C_1  and  C_2
REMARK    2  A    between atoms: C_8  and  C_28
REMARK    3  A    between atoms: C_12  and  C_14
REMARK    4  A    between atoms: C_12  and  C_17
REMARK    5  A    between atoms: C_14  and  C_15
REMARK    6  A    between atoms: C_15  and  O_16
REMARK    7  A    between atoms: C_17  and  O_18
REMARK    8  A    between atoms: C_21  and  O_27
REMARK    9  A    between atoms: C_23  and  C_24
REMARK   10  A    between atoms: C_23  and  C_25
REMARK   11  A    between atoms: C_25  and  O_26
REMARK                            x       y       z     vdW  Elec       q    Type
REMARK                         _______ _______ _______ _____ _____    ______ ____
ROOT
ATOM      1  C   UNL     1      -3.434   3.804  -2.703  0.00  0.00    +0.010 C 
ATOM      2  C   UNL     1      -2.280   3.019  -3.322  0.00  0.00    +0.018 C 
ATOM      3  C   UNL     1      -2.764   2.179  -4.493  0.00  0.00    +0.006 C 
ATOM      4  C   UNL     1      -3.414   0.874  -4.025  0.00  0.00    +0.005 C 
ATOM      5  C   UNL     1      -2.384   0.106  -3.194  0.00  0.00    +0.008 C 
ATOM      6  C   UNL     1      -2.082   0.882  -1.923  0.00  0.00    +0.001 C 
ATOM      7  C   UNL     1      -1.488   2.243  -2.286  0.00  0.00    +0.079 C 
ATOM      8  C   UNL     1      -0.041   2.066  -2.814  0.00  0.00    +0.039 C 
ATOM      9  C   UNL     1       0.555   3.465  -2.483  0.00  0.00    +0.040 C 
ATOM     10  C   UNL     1      -0.123   3.776  -1.130  0.00  0.00    +0.095 C 
ATOM     11  O   UNL     1      -1.347   3.032  -1.090  0.00  0.00    -0.364 OA
ATOM     12  C   UNL     1      -1.083   0.094  -1.067  0.00  0.00    +0.012 C 
ATOM     13  C   UNL     1      -1.674  -1.276  -0.730  0.00  0.00    +0.032 C 
ATOM     14  C   UNL     1      -1.871  -2.075  -2.012  0.00  0.00    +0.123 C 
ATOM     15  C   UNL     1      -2.765  -1.346  -3.013  0.00  0.00    +0.020 C 
ATOM     16  C   UNL     1      -4.233  -1.521  -2.618  0.00  0.00    +0.016 C 
ATOM     17  C   UNL     1      -3.337   1.109  -1.071  0.00  0.00    +0.014 C 
ENDROOT
BRANCH  14  18
ATOM     18  O   UNL     1      -0.599  -2.336  -2.615  0.00  0.00    -0.391 OA
ATOM     19  H   UNL     1       0.023  -2.798  -2.037  0.00  0.00    +0.210 HD
ENDBRANCH  14  18
BRANCH  10  20
ATOM     20  C   UNL     1      -0.411   5.274  -1.023  0.00  0.00    +0.065 C 
BRANCH  20  21
ATOM     21  C   UNL     1       0.895   6.056  -1.173  0.00  0.00    +0.158 C 
BRANCH  21  22
ATOM     22  O   UNL     1       0.631   7.455  -1.040  0.00  0.00    -0.395 OA
ATOM     23  H   UNL     1       1.416   8.013  -1.124  0.00  0.00    +0.209 HD
ENDBRANCH  21  22
ENDBRANCH  20  21
ENDBRANCH  10  20
BRANCH  10  24
ATOM     24  C   UNL     1       0.790   3.343   0.019  0.00  0.00    +0.190 C 
BRANCH  24  25
ATOM     25  O   UNL     1       0.168   3.659   1.266  0.00  0.00    -0.392 OA
ATOM     26  H   UNL     1       0.692   3.411   2.041  0.00  0.00    +0.210 HD
ENDBRANCH  24  25
ENDBRANCH  10  24
BRANCH  15  27
ATOM     27  C   UNL     1      -2.575  -2.063  -4.373  0.00  0.00    +0.165 C 
BRANCH  27  28
ATOM     28  O   UNL     1      -2.927  -3.442  -4.239  0.00  0.00    -0.394 OA
ATOM     29  H   UNL     1      -2.832  -3.953  -5.054  0.00  0.00    +0.209 HD
ENDBRANCH  27  28
ENDBRANCH  15  27
TORSDOF 8
