REMARK  Name = ZINC66792600
REMARK  8 active torsions:
REMARK  status: ('A' for Active; 'I' for Inactive)
REMARK    1  A    between atoms: C_1  and  C_2
REMARK    2  A    between atoms: C_9  and  C_11
REMARK    3  A    between atoms: N_14  and  C_17
REMARK    4  A    between atoms: C_17  and  N_18
REMARK    5  A    between atoms: C_23  and  C_25
REMARK    6  A    between atoms: C_25  and  C_26
REMARK    7  A    between atoms: C_25  and  C_27
REMARK    8  A    between atoms: C_25  and  C_28
REMARK                            x       y       z     vdW  Elec       q    Type
REMARK                         _______ _______ _______ _____ _____    ______ ____
ROOT
ATOM      1  C   UNL     1       0.477  -4.260   2.010  0.00  0.00    +0.072 C 
ATOM      2  C   UNL     1      -0.309  -4.664   0.758  0.00  0.00    -0.006 C 
ATOM      3  C   UNL     1      -0.342  -6.191   0.654  0.00  0.00    -0.075 C 
ATOM      4  N   UNL     1      -0.992  -6.752   1.844  0.00  0.00    +0.393 N 
ATOM      5  C   UNL     1      -0.205  -6.429   3.041  0.00  0.00    -0.075 C 
ATOM      6  C   UNL     1      -0.167  -4.912   3.237  0.00  0.00    -0.006 C 
ATOM      7  H   UNL     1      -1.918  -6.361   1.936  0.00  0.00    -0.079 HD
ENDROOT
BRANCH   1  15
ATOM      8  C   UNL     1       4.796  -2.566   0.096  0.00  0.00    +0.009 C 
ATOM      9  C   UNL     1       3.716  -2.038   1.041  0.00  0.00    +0.003 C 
ATOM     10  C   UNL     1       3.666  -0.511   0.958  0.00  0.00    +0.006 C 
ATOM     11  C   UNL     1       2.608   0.020   1.928  0.00  0.00    +0.019 C 
ATOM     12  C   UNL     1       1.234  -0.531   1.531  0.00  0.00    +0.108 C 
ATOM     13  N   UNL     1       1.313  -1.996   1.468  0.00  0.00    -0.301 N 
ATOM     14  C   UNL     1       2.355  -2.613   0.635  0.00  0.00    +0.111 C 
ATOM     15  C   UNL     1       0.447  -2.761   2.161  0.00  0.00    +0.219 C 
ATOM     16  O   UNL     1      -0.357  -2.243   2.907  0.00  0.00    -0.275 OA
ENDBRANCH   1  15
BRANCH   4  17
ATOM     17  C   UNL     1      -1.091  -8.211   1.704  0.00  0.00    +0.073 C 
BRANCH  17  18
ATOM     18  N   UNL     1      -1.845  -8.760   2.834  0.00  0.00    -0.246 N 
ATOM     19  C   UNL     1      -1.183  -9.403   3.814  0.00  0.00    +0.266 A 
ATOM     20  O   UNL     1       0.030  -9.527   3.761  0.00  0.00    -0.266 OA
ATOM     21  C   UNL     1      -1.907  -9.934   4.904  0.00  0.00    +0.073 A 
ATOM     22  C   UNL     1      -3.262  -9.766   4.911  0.00  0.00    +0.031 A 
ATOM     23  C   UNL     1      -3.854  -9.079   3.838  0.00  0.00    +0.067 A 
ATOM     24  N   UNL     1      -3.120  -8.611   2.867  0.00  0.00    -0.174 NA
BRANCH  23  25
ATOM     25  C   UNL     1      -5.347  -8.875   3.812  0.00  0.00    +0.006 C 
ATOM     26  C   UNL     1      -5.735  -8.104   2.549  0.00  0.00    +0.017 C 
ATOM     27  C   UNL     1      -6.047 -10.235   3.816  0.00  0.00    +0.017 C 
ATOM     28  C   UNL     1      -5.774  -8.078   5.047  0.00  0.00    +0.017 C 
ENDBRANCH  23  25
ENDBRANCH  17  18
ENDBRANCH   4  17
TORSDOF 4
