REMARK  Name = ZINC20898614
REMARK  8 active torsions:
REMARK  status: ('A' for Active; 'I' for Inactive)
REMARK    1  A    between atoms: C_1  and  C_2
REMARK    2  A    between atoms: C_5  and  C_9
REMARK    3  A    between atoms: C_6  and  O_8
REMARK    4  A    between atoms: C_14  and  C_23
REMARK    5  A    between atoms: C_26  and  O_29
REMARK    6  A    between atoms: O_29  and  C_30
REMARK    7  A    between atoms: N_33  and  C_38
REMARK    8  A    between atoms: N_36  and  C_37
REMARK                            x       y       z     vdW  Elec       q    Type
REMARK                         _______ _______ _______ _____ _____    ______ ____
ROOT
ATOM      1  C   UNL     1      -1.205  -2.091   0.806  0.00  0.00    +0.154 C 
ATOM      2  C   UNL     1       0.111  -2.709   0.384  0.00  0.00    +0.073 A 
ATOM      3  C   UNL     1       0.410  -3.980   0.165  0.00  0.00    +0.082 A 
ATOM      4  C   UNL     1       1.852  -4.023  -0.186  0.00  0.00    +0.089 A 
ATOM      5  C   UNL     1       2.304  -2.727  -0.143  0.00  0.00    +0.069 A 
ATOM      6  N   UNL     1       1.247  -1.935   0.182  0.00  0.00    -0.306 N 
ATOM      7  C   UNL     1       1.212  -0.541   0.333  0.00  0.00    +0.068 A 
ATOM      8  C   UNL     1       2.369   0.213   0.372  0.00  0.00    +0.028 A 
ATOM      9  C   UNL     1       2.290   1.583   0.548  0.00  0.00    +0.002 A 
ATOM     10  C   UNL     1       1.058   2.196   0.683  0.00  0.00    +0.002 A 
ATOM     11  C   UNL     1      -0.104   1.449   0.637  0.00  0.00    +0.025 A 
ATOM     12  C   UNL     1      -0.037   0.076   0.455  0.00  0.00    +0.052 A 
ATOM     13  N   UNL     1      -1.206  -0.687   0.366  0.00  0.00    -0.330 N 
ATOM     14  C   UNL     1       2.478  -5.315  -0.482  0.00  0.00    +0.266 A 
ATOM     15  O   UNL     1       3.655  -5.415  -0.774  0.00  0.00    -0.267 OA
ATOM     16  N   UNL     1       1.655  -6.392  -0.409  0.00  0.00    -0.263 N 
ATOM     17  C   UNL     1       0.359  -6.318  -0.091  0.00  0.00    +0.332 A 
ATOM     18  O   UNL     1      -0.268  -7.359  -0.061  0.00  0.00    -0.246 OA
ATOM     19  N   UNL     1      -0.314  -5.182   0.200  0.00  0.00    -0.294 N 
ATOM     20  C   UNL     1      -1.739  -5.205   0.537  0.00  0.00    +0.154 C 
ATOM     21  C   UNL     1       2.220  -7.713  -0.695  0.00  0.00    +0.157 C 
ATOM     22  H   UNL     1      -2.127  -0.237  -0.033  0.00  0.00    +0.147 HD
ENDROOT
BRANCH   1  27
ATOM     23  C   UNL     1      -1.724  -2.338   6.559  0.00  0.00    +0.044 C 
ATOM     24  C   UNL     1      -1.591  -2.274   5.059  0.00  0.00    -0.047 A 
ATOM     25  C   UNL     1      -0.356  -2.461   4.466  0.00  0.00    +0.004 A 
ATOM     26  C   UNL     1      -0.232  -2.402   3.091  0.00  0.00    +0.010 A 
ATOM     27  C   UNL     1      -1.341  -2.156   2.305  0.00  0.00    +0.020 A 
ATOM     28  C   UNL     1      -2.580  -1.962   2.898  0.00  0.00    +0.122 A 
ATOM     29  C   UNL     1      -2.704  -2.027   4.279  0.00  0.00    +0.049 A 
BRANCH  28  30
ATOM     30  O   UNL     1      -3.672  -1.714   2.128  0.00  0.00    -0.506 OA
ATOM     31  H   UNL     1      -4.654  -1.561   2.599  0.00  0.00    +0.292 HD
ENDBRANCH  28  30
ENDBRANCH   1  27
BRANCH   5  32
ATOM     32  C   UNL     1       3.684  -2.276  -0.402  0.00  0.00    -0.000 A 
ATOM     33  C   UNL     1       3.939  -1.346  -1.414  0.00  0.00    +0.013 A 
ATOM     34  C   UNL     1       5.229  -0.925  -1.651  0.00  0.00    +0.046 A 
ATOM     35  C   UNL     1       6.277  -1.429  -0.891  0.00  0.00    +0.120 A 
ATOM     36  C   UNL     1       6.029  -2.357   0.113  0.00  0.00    +0.046 A 
ATOM     37  C   UNL     1       4.741  -2.781   0.359  0.00  0.00    +0.013 A 
BRANCH  35  38
ATOM     38  O   UNL     1       7.548  -1.014  -1.130  0.00  0.00    -0.495 OA
ATOM     39  C   UNL     1       7.732  -0.059  -2.177  0.00  0.00    +0.277 C 
ENDBRANCH  35  38
ENDBRANCH   5  32
TORSDOF 4
