REMARK  Name = ZINC05270028
REMARK  8 active torsions:
REMARK  status: ('A' for Active; 'I' for Inactive)
REMARK    1  A    between atoms: C_1  and  C_2
REMARK    2  A    between atoms: C_5  and  C_30
REMARK    3  A    between atoms: C_6  and  C_8
REMARK    4  A    between atoms: C_8  and  N_9
REMARK    5  A    between atoms: C_13  and  C_16
REMARK    6  A    between atoms: N_18  and  C_19
REMARK    7  A    between atoms: C_22  and  N_27
REMARK    8  A    between atoms: C_24  and  C_25
REMARK                            x       y       z     vdW  Elec       q    Type
REMARK                         _______ _______ _______ _____ _____    ______ ____
ROOT
ATOM      1  N   UNL     1      -3.489   0.820  -1.297  0.00  0.00    -0.310 N 
ATOM      2  C   UNL     1      -2.828   0.016  -2.164  0.00  0.00    +0.089 A 
ATOM      3  C   UNL     1      -2.888   0.226  -3.504  0.00  0.00    +0.019 A 
ATOM      4  C   UNL     1      -3.639   1.285  -4.014  0.00  0.00    +0.020 A 
ATOM      5  C   UNL     1      -4.321   2.116  -3.128  0.00  0.00    +0.101 A 
ATOM      6  C   UNL     1      -4.232   1.853  -1.736  0.00  0.00    +0.264 A 
ATOM      7  O   UNL     1      -4.823   2.563  -0.941  0.00  0.00    -0.267 OA
ENDROOT
BRANCH   5   8
ATOM      8  C   UNL     1      -5.123   3.244  -3.627  0.00  0.00    +0.254 C 
ATOM      9  O   UNL     1      -5.280   3.396  -4.823  0.00  0.00    -0.270 OA
ATOM     10  N   UNL     1      -5.685   4.107  -2.758  0.00  0.00    -0.280 N 
ATOM     11  H   UNL     1      -5.501   4.029  -1.809  0.00  0.00    +0.155 HD
BRANCH  10  12
ATOM     12  C   UNL     1      -6.529   5.113  -3.223  0.00  0.00    +0.051 A 
ATOM     13  C   UNL     1      -7.178   4.971  -4.442  0.00  0.00    +0.027 A 
ATOM     14  C   UNL     1      -8.014   5.968  -4.901  0.00  0.00    +0.034 A 
ATOM     15  C   UNL     1      -8.214   7.117  -4.152  0.00  0.00    +0.128 A 
ATOM     16  C   UNL     1      -7.579   7.275  -2.939  0.00  0.00    +0.053 A 
ATOM     17  C   UNL     1      -6.732   6.272  -2.459  0.00  0.00    +0.075 A 
BRANCH  15  18
ATOM     18  N   UNL     1      -9.114   8.178  -4.656  0.00  0.00    +0.056 N 
ATOM     19  O   UNL     1      -9.677   8.041  -5.727  0.00  0.00    -0.126 OA
ATOM     20  O   UNL     1      -9.292   9.188  -3.999  0.00  0.00    -0.126 OA
ENDBRANCH  15  18
BRANCH  17  21
ATOM     21  C   UNL     1      -6.074   6.428  -1.197  0.00  0.00    +0.101 C 
ATOM     22  N   UNL     1      -5.551   6.552  -0.196  0.00  0.00    -0.191 NA
ENDBRANCH  17  21
ENDBRANCH  10  12
ENDBRANCH   5   8
BRANCH   1  23
ATOM     23  C   UNL     1      -3.397   0.558   0.141  0.00  0.00    +0.160 C 
BRANCH  23  29
ATOM     24  C   UNL     1       0.560   3.554  -0.496  0.00  0.00    +0.044 C 
ATOM     25  C   UNL     1      -0.313   2.719   0.405  0.00  0.00    -0.050 A 
ATOM     26  C   UNL     1      -0.025   2.625   1.754  0.00  0.00    +0.003 A 
ATOM     27  C   UNL     1      -0.826   1.860   2.580  0.00  0.00    +0.004 A 
ATOM     28  C   UNL     1      -1.916   1.188   2.057  0.00  0.00    -0.046 A 
ATOM     29  C   UNL     1      -2.206   1.286   0.710  0.00  0.00    -0.025 A 
ATOM     30  C   UNL     1      -1.402   2.047  -0.117  0.00  0.00    +0.009 A 
ATOM     31  C   UNL     1      -2.789   0.353   2.958  0.00  0.00    +0.044 C 
ENDBRANCH  23  29
ENDBRANCH   1  23
TORSDOF 6
