REMARK  Name = ZINC14159047
REMARK  9 active torsions:
REMARK  status: ('A' for Active; 'I' for Inactive)
REMARK    1  A    between atoms: C_1  and  C_2
REMARK    2  A    between atoms: C_7  and  N_8
REMARK    3  A    between atoms: N_8  and  C_9
REMARK    4  A    between atoms: C_9  and  N_11
REMARK    5  A    between atoms: N_13  and  C_14
REMARK    6  A    between atoms: C_14  and  C_15
REMARK    7  A    between atoms: C_15  and  C_16
REMARK    8  A    between atoms: C_24  and  C_29
REMARK    9  A    between atoms: C_26  and  C_28
REMARK                            x       y       z     vdW  Elec       q    Type
REMARK                         _______ _______ _______ _____ _____    ______ ____
ROOT
ATOM      1  N   UNL     1       6.446  -0.398  -2.985  0.00  0.00    -0.159 NA
ATOM      2  C   UNL     1       5.130  -0.284  -2.921  0.00  0.00    +0.195 C 
ATOM      3  N   UNL     1       4.494  -0.385  -1.717  0.00  0.00    -0.357 N 
ATOM      4  N   UNL     1       4.406  -0.064  -4.061  0.00  0.00    -0.297 N 
ATOM      5  C   UNL     1       5.038  -0.073  -5.298  0.00  0.00    +0.231 A 
ATOM      6  N   UNL     1       6.321  -0.395  -5.365  0.00  0.00    -0.217 NA
ATOM      7  C   UNL     1       6.952  -0.417  -6.528  0.00  0.00    +0.044 A 
ATOM      8  C   UNL     1       6.256  -0.089  -7.681  0.00  0.00    +0.046 A 
ATOM      9  C   UNL     1       4.916   0.248  -7.573  0.00  0.00    +0.044 A 
ATOM     10  N   UNL     1       4.345   0.246  -6.380  0.00  0.00    -0.217 NA
ATOM     11  C   UNL     1       4.120   0.612  -8.800  0.00  0.00    +0.066 C 
ATOM     12  C   UNL     1       8.410  -0.790  -6.596  0.00  0.00    +0.066 C 
ATOM     13  H   UNL     1       4.998  -0.611  -0.920  0.00  0.00    +0.162 HD
ATOM     14  H   UNL     1       3.451   0.098  -4.006  0.00  0.00    +0.171 HD
ENDROOT
BRANCH   1  15
ATOM     15  C   UNL     1       7.144  -0.728  -1.889  0.00  0.00    +0.161 C 
ATOM     16  S   UNL     1       6.930  -2.266  -1.169  0.00  0.00    -0.016 S 
BRANCH  15  17
ATOM     17  N   UNL     1       8.015   0.151  -1.355  0.00  0.00    -0.295 N 
ATOM     18  H   UNL     1       8.081   1.048  -1.717  0.00  0.00    +0.154 HD
BRANCH  17  25
ATOM     19  C   UNL     1      10.736   0.982  -1.357  0.00  0.00    +0.045 C 
ATOM     20  C   UNL     1      10.156   0.152  -0.240  0.00  0.00    -0.029 A 
ATOM     21  C   UNL     1      10.951  -0.227   0.824  0.00  0.00    +0.005 A 
ATOM     22  C   UNL     1      10.420  -0.987   1.850  0.00  0.00    +0.000 A 
ATOM     23  C   UNL     1       9.092  -1.370   1.814  0.00  0.00    +0.002 A 
ATOM     24  C   UNL     1       8.290  -0.990   0.755  0.00  0.00    +0.023 A 
ATOM     25  C   UNL     1       8.822  -0.231  -0.279  0.00  0.00    +0.036 A 
ENDBRANCH  17  25
ENDBRANCH  15  17
ENDBRANCH   1  15
BRANCH   3  26
ATOM     26  C   UNL     1       3.050  -0.152  -1.630  0.00  0.00    +0.120 C 
BRANCH  26  27
ATOM     27  C   UNL     1       2.613  -0.205  -0.165  0.00  0.00    +0.063 C 
BRANCH  27  28
ATOM     28  C   UNL     1       1.113  -0.087  -0.084  0.00  0.00    -0.009 A 
ATOM     29  C   UNL     1       0.173  -1.058  -0.191  0.00  0.00    +0.011 A 
ATOM     30  C   UNL     1      -1.161  -0.714  -0.088  0.00  0.00    +0.008 A 
ATOM     31  C   UNL     1      -1.491   0.583   0.129  0.00  0.00    +0.045 A 
ATOM     32  S   UNL     1       0.112   1.368   0.180  0.00  0.00    -0.102 S 
ENDBRANCH  27  28
ENDBRANCH  26  27
ENDBRANCH   3  26
TORSDOF 6
