REMARK  Name = ZINC36207207
REMARK  16 active torsions:
REMARK  status: ('A' for Active; 'I' for Inactive)
REMARK    1  A    between atoms: C_1  and  C_2
REMARK    2  A    between atoms: C_2  and  O_3
REMARK    3  A    between atoms: O_3  and  C_4
REMARK    4  A    between atoms: C_4  and  C_6
REMARK    5  A    between atoms: C_7  and  C_38
REMARK    6  A    between atoms: C_13  and  C_17
REMARK    7  A    between atoms: C_17  and  N_18
REMARK    8  A    between atoms: N_18  and  C_19
REMARK    9  A    between atoms: N_18  and  C_26
REMARK   10  A    between atoms: C_19  and  C_20
REMARK   11  A    between atoms: C_26  and  C_27
REMARK   12  A    between atoms: C_27  and  C_29
REMARK   13  A    between atoms: C_27  and  O_37
REMARK   14  A    between atoms: C_29  and  O_30
REMARK   15  A    between atoms: O_30  and  C_31
REMARK   16  A    between atoms: C_31  and  C_32
REMARK                            x       y       z     vdW  Elec       q    Type
REMARK                         _______ _______ _______ _____ _____    ______ ____
ROOT
ATOM      1  N   UNL     1       4.461  -2.817  -8.470  0.00  0.00    +0.389 N 
ATOM      2  H   UNL     1       3.789  -2.087  -8.656  0.00  0.00    -0.081 HD
ENDROOT
BRANCH   1   3
ATOM      3  C   UNL     1       3.753  -4.080  -8.220  0.00  0.00    -0.003 C 
BRANCH   3  11
ATOM      4  C   UNL     1       0.103  -1.836  -3.569  0.00  0.00    +0.102 A 
ATOM      5  C   UNL     1       0.079  -3.118  -4.037  0.00  0.00    -0.015 A 
ATOM      6  C   UNL     1       0.936  -3.496  -5.072  0.00  0.00    +0.076 A 
ATOM      7  C   UNL     1       1.083  -4.814  -5.731  0.00  0.00    +0.260 A 
ATOM      8  O   UNL     1       0.401  -5.763  -5.388  0.00  0.00    -0.267 OA
ATOM      9  N   UNL     1       1.991  -4.936  -6.719  0.00  0.00    -0.312 N 
ATOM     10  H   UNL     1       2.100  -5.792  -7.161  0.00  0.00    +0.170 HD
ATOM     11  C   UNL     1       2.754  -3.885  -7.109  0.00  0.00    +0.094 A 
ATOM     12  N   UNL     1       2.650  -2.711  -6.550  0.00  0.00    -0.229 NA
ATOM     13  C   UNL     1       1.788  -2.482  -5.567  0.00  0.00    +0.116 A 
ATOM     14  S   UNL     1       1.354  -1.069  -4.585  0.00  0.00    -0.062 S 
ATOM     15  C   UNL     1      -0.871  -4.123  -3.437  0.00  0.00    +0.046 C 
BRANCH   4  16
ATOM     16  C   UNL     1      -0.703  -1.236  -2.503  0.00  0.00    +0.346 C 
ATOM     17  O   UNL     1      -1.520  -1.911  -1.905  0.00  0.00    -0.244 OA
BRANCH  16  18
ATOM     18  O   UNL     1      -0.538   0.064  -2.183  0.00  0.00    -0.461 OA
BRANCH  18  20
ATOM     19  C   UNL     1      -1.031   2.061  -0.914  0.00  0.00    +0.048 C 
ATOM     20  C   UNL     1      -1.357   0.582  -1.133  0.00  0.00    +0.229 C 
ENDBRANCH  18  20
ENDBRANCH  16  18
ENDBRANCH   4  16
ENDBRANCH   3  11
ENDBRANCH   1   3
BRANCH   1  21
ATOM     21  C   UNL     1       5.258  -2.460  -7.289  0.00  0.00    -0.042 C 
BRANCH  21  22
ATOM     22  C   UNL     1       6.167  -3.608  -6.932  0.00  0.00    -0.064 A 
ATOM     23  C   UNL     1       5.741  -4.577  -6.044  0.00  0.00    +0.002 A 
ATOM     24  C   UNL     1       6.575  -5.630  -5.716  0.00  0.00    +0.000 A 
ATOM     25  C   UNL     1       7.836  -5.713  -6.277  0.00  0.00    +0.000 A 
ATOM     26  C   UNL     1       8.262  -4.743  -7.165  0.00  0.00    +0.000 A 
ATOM     27  C   UNL     1       7.426  -3.693  -7.496  0.00  0.00    +0.002 A 
ENDBRANCH  21  22
ENDBRANCH   1  21
BRANCH   1  28
ATOM     28  C   UNL     1       5.348  -2.974  -9.630  0.00  0.00    -0.044 C 
BRANCH  28  29
ATOM     29  C   UNL     1       5.797  -1.595 -10.118  0.00  0.00    +0.124 C 
BRANCH  29  30
ATOM     30  O   UNL     1       6.642  -0.994  -9.136  0.00  0.00    -0.391 OA
ATOM     31  H   UNL     1       7.496  -1.435  -9.028  0.00  0.00    +0.210 HD
ENDBRANCH  29  30
BRANCH  29  32
ATOM     32  C   UNL     1       6.568  -1.745 -11.431  0.00  0.00    +0.189 C 
BRANCH  32  33
ATOM     33  O   UNL     1       6.887  -0.451 -11.947  0.00  0.00    -0.370 OA
BRANCH  33  34
ATOM     34  C   UNL     1       7.612  -0.479 -13.179  0.00  0.00    +0.234 C 
BRANCH  34  35
ATOM     35  C   UNL     1       7.892   0.932 -13.628  0.00  0.00    +0.130 A 
ATOM     36  C   UNL     1       8.982   1.656 -13.313  0.00  0.00    +0.047 A 
ATOM     37  C   UNL     1       8.834   2.913 -13.943  0.00  0.00    +0.041 A 
ATOM     38  C   UNL     1       7.664   2.883 -14.604  0.00  0.00    +0.195 A 
ATOM     39  O   UNL     1       7.100   1.678 -14.415  0.00  0.00    -0.465 OA
ENDBRANCH  34  35
ENDBRANCH  33  34
ENDBRANCH  32  33
ENDBRANCH  29  32
ENDBRANCH  28  29
ENDBRANCH   1  28
TORSDOF 14
