REMARK  Name = ZINC36586877
REMARK  15 active torsions:
REMARK  status: ('A' for Active; 'I' for Inactive)
REMARK    1  A    between atoms: C_1  and  C_2
REMARK    2  A    between atoms: C_5  and  S_8
REMARK    3  A    between atoms: S_8  and  C_11
REMARK    4  A    between atoms: C_11  and  N_12
REMARK    5  A    between atoms: C_13  and  C_15
REMARK    6  A    between atoms: C_15  and  C_17
REMARK    7  A    between atoms: C_15  and  N_24
REMARK    8  A    between atoms: C_20  and  O_23
REMARK    9  A    between atoms: N_24  and  C_35
REMARK   10  A    between atoms: C_25  and  C_27
REMARK   11  A    between atoms: C_31  and  O_34
REMARK   12  A    between atoms: C_32  and  O_33
REMARK   13  A    between atoms: C_35  and  C_36
REMARK   14  A    between atoms: C_35  and  C_37
REMARK   15  A    between atoms: C_35  and  C_38
REMARK                            x       y       z     vdW  Elec       q    Type
REMARK                         _______ _______ _______ _____ _____    ______ ____
ROOT
ATOM      1  C   UNL     1       2.072  -7.979   3.711  0.00  0.00    +0.193 C 
ENDROOT
BRANCH   1   2
ATOM      2  C   UNL     1       1.252  -6.861   3.120  0.00  0.00    -0.018 A 
ATOM      3  C   UNL     1       0.583  -5.982   3.951  0.00  0.00    +0.009 A 
ATOM      4  C   UNL     1      -0.170  -4.957   3.412  0.00  0.00    +0.046 A 
ATOM      5  C   UNL     1      -0.253  -4.809   2.035  0.00  0.00    +0.117 A 
ATOM      6  C   UNL     1       0.421  -5.692   1.203  0.00  0.00    +0.046 A 
ATOM      7  C   UNL     1       1.176  -6.712   1.747  0.00  0.00    +0.009 A 
BRANCH   5   8
ATOM      8  O   UNL     1      -0.992  -3.801   1.502  0.00  0.00    -0.507 OA
ATOM      9  H   UNL     1      -0.498  -2.982   1.361  0.00  0.00    +0.292 HD
ENDBRANCH   5   8
ENDBRANCH   1   2
BRANCH   1  11
ATOM     10  N   UNL     1       0.817  -9.617   2.347  0.00  0.00    -0.294 N 
ATOM     11  C   UNL     1       1.336  -9.283   3.545  0.00  0.00    +0.239 C 
ATOM     12  O   UNL     1       1.210 -10.033   4.490  0.00  0.00    -0.273 OA
ATOM     13  H   UNL     1       0.918  -9.017   1.591  0.00  0.00    +0.150 HD
BRANCH  10  14
ATOM     14  C   UNL     1       0.101 -10.885   2.186  0.00  0.00    +0.278 C 
BRANCH  14  15
ATOM     15  S   UNL     1      -1.679 -10.605   2.393  0.00  0.00    +0.013 S 
ATOM     16  O   UNL     1      -1.919  -9.819   3.553  0.00  0.00    -0.168 OA
ATOM     17  O   UNL     1      -2.393 -11.815   2.178  0.00  0.00    -0.168 OA
BRANCH  15  22
ATOM     18  C   UNL     1      -3.242  -7.051  -2.225  0.00  0.00    +0.044 C 
ATOM     19  C   UNL     1      -2.851  -7.939  -1.072  0.00  0.00    -0.050 A 
ATOM     20  C   UNL     1      -2.901  -9.313  -1.210  0.00  0.00    +0.005 A 
ATOM     21  C   UNL     1      -2.543 -10.128  -0.152  0.00  0.00    +0.027 A 
ATOM     22  C   UNL     1      -2.134  -9.567   1.044  0.00  0.00    +0.090 A 
ATOM     23  C   UNL     1      -2.084  -8.193   1.182  0.00  0.00    +0.027 A 
ATOM     24  C   UNL     1      -2.438  -7.379   0.122  0.00  0.00    +0.005 A 
ENDBRANCH  15  22
ENDBRANCH  14  15
ENDBRANCH  10  14
ENDBRANCH   1  11
BRANCH   1  25
ATOM     25  N   UNL     1       2.294  -7.721   5.136  0.00  0.00    -0.277 N 
ATOM     26  C   UNL     1       1.419  -8.185   6.049  0.00  0.00    +0.252 C 
ATOM     27  O   UNL     1       0.235  -8.254   5.777  0.00  0.00    -0.270 OA
BRANCH  26  28
ATOM     28  C   UNL     1       1.896  -8.611   7.379  0.00  0.00    +0.082 A 
ATOM     29  C   UNL     1       3.154  -8.207   7.836  0.00  0.00    +0.017 A 
ATOM     30  C   UNL     1       3.596  -8.606   9.078  0.00  0.00    +0.005 A 
ATOM     31  C   UNL     1       2.800  -9.407   9.880  0.00  0.00    +0.049 A 
ATOM     32  C   UNL     1       1.552  -9.815   9.442  0.00  0.00    +0.159 A 
ATOM     33  C   UNL     1       1.089  -9.416   8.191  0.00  0.00    +0.171 A 
BRANCH  33  34
ATOM     34  O   UNL     1      -0.136  -9.809   7.760  0.00  0.00    -0.503 OA
ATOM     35  H   UNL     1      -0.133 -10.646   7.275  0.00  0.00    +0.292 HD
ENDBRANCH  33  34
BRANCH  32  36
ATOM     36  O   UNL     1       0.776 -10.602  10.235  0.00  0.00    -0.503 OA
ATOM     37  H   UNL     1       0.189 -10.109  10.824  0.00  0.00    +0.292 HD
ENDBRANCH  32  36
ENDBRANCH  26  28
BRANCH  25  38
ATOM     38  C   UNL     1       3.468  -6.958   5.568  0.00  0.00    +0.030 C 
ATOM     39  C   UNL     1       3.864  -5.967   4.471  0.00  0.00    +0.031 C 
ATOM     40  C   UNL     1       3.135  -6.194   6.851  0.00  0.00    +0.031 C 
ATOM     41  C   UNL     1       4.630  -7.917   5.832  0.00  0.00    +0.031 C 
ENDBRANCH  25  38
ENDBRANCH   1  25
TORSDOF 11
