REMARK  Name = ZINC13511357
REMARK  6 active torsions:
REMARK  status: ('A' for Active; 'I' for Inactive)
REMARK    1  A    between atoms: C_4  and  C_7
REMARK    2  A    between atoms: C_7  and  N_8
REMARK    3  A    between atoms: C_25  and  C_31
REMARK    4  A    between atoms: C_25  and  C_33
REMARK    5  A    between atoms: C_26  and  N_30
REMARK    6  A    between atoms: C_27  and  C_28
REMARK                            x       y       z     vdW  Elec       q    Type
REMARK                         _______ _______ _______ _____ _____    ______ ____
ROOT
ATOM      1  N   UNL     1       0.002  -0.004   0.002  0.00  0.00    -0.294 NA
ATOM      2  C   UNL     1       0.580  -0.531   1.251  0.00  0.00    +0.112 C 
ATOM      3  C   UNL     1       0.403  -2.030   1.239  0.00  0.00    -0.006 C 
ATOM      4  C   UNL     1       0.451  -2.689   0.096  0.00  0.00    -0.025 C 
ATOM      5  C   UNL     1       0.731  -2.022  -1.220  0.00  0.00    +0.056 C 
ATOM      6  C   UNL     1       0.745  -0.513  -1.154  0.00  0.00    +0.094 C 
ATOM      7  C   UNL     1      -0.265  -2.554  -2.245  0.00  0.00    +0.118 C 
ATOM      8  C   UNL     1      -1.673  -2.242  -1.842  0.00  0.00    -0.008 A 
ATOM      9  C   UNL     1      -2.409  -2.609  -0.737  0.00  0.00    +0.006 A 
ATOM     10  C   UNL     1      -3.718  -2.143  -0.667  0.00  0.00    +0.000 A 
ATOM     11  C   UNL     1      -4.250  -1.347  -1.661  0.00  0.00    +0.002 A 
ATOM     12  C   UNL     1      -3.516  -0.974  -2.776  0.00  0.00    +0.023 A 
ATOM     13  C   UNL     1      -2.201  -1.436  -2.858  0.00  0.00    +0.038 A 
ATOM     14  N   UNL     1      -1.254  -1.221  -3.844  0.00  0.00    -0.284 N 
ATOM     15  C   UNL     1      -0.087  -1.840  -3.567  0.00  0.00    +0.231 C 
ATOM     16  O   UNL     1       0.916  -1.827  -4.250  0.00  0.00    -0.274 OA
ATOM     17  C   UNL     1      -0.068  -4.056  -2.425  0.00  0.00    +0.199 C 
ATOM     18  C   UNL     1      -0.032  -4.772  -1.108  0.00  0.00    +0.055 C 
ATOM     19  C   UNL     1       0.220  -4.155   0.074  0.00  0.00    +0.074 C 
ATOM     20  H   UNL     1      -1.502  -0.605  -4.720  0.00  0.00    +0.155 HD
ENDROOT
BRANCH  18  21
ATOM     21  N   UNL     1      -0.266  -6.119  -1.098  0.00  0.00    -0.358 N 
ATOM     22  H   UNL     1      -0.247  -6.673  -0.148  0.00  0.00    +0.142 HD
ATOM     23  H   UNL     1      -0.473  -6.648  -2.040  0.00  0.00    +0.142 HD
ENDBRANCH  18  21
BRANCH  19  24
ATOM     24  C   UNL     1       0.264  -4.912   1.289  0.00  0.00    +0.101 C 
ATOM     25  N   UNL     1       0.299  -5.512   2.253  0.00  0.00    -0.191 NA
ENDBRANCH  19  24
BRANCH  17  26
ATOM     26  C   UNL     1       1.200  -4.292  -3.135  0.00  0.00    +0.092 C 
ATOM     27  N   UNL     1       2.178  -4.474  -3.683  0.00  0.00    -0.194 NA
ENDBRANCH  17  26
BRANCH  17  28
ATOM     28  C   UNL     1      -1.177  -4.590  -3.233  0.00  0.00    +0.092 C 
ATOM     29  N   UNL     1      -2.032  -5.003  -3.856  0.00  0.00    -0.194 NA
ENDBRANCH  17  28
BRANCH   1  30
ATOM     30  C   UNL     1      -0.018   1.465   0.010  0.00  0.00    +0.120 C 
BRANCH  30  34
ATOM     31  C   UNL     1       3.990   2.944  -0.020  0.00  0.00    +0.000 A 
ATOM     32  C   UNL     1       3.330   2.711  -1.212  0.00  0.00    +0.000 A 
ATOM     33  C   UNL     1       2.033   2.232  -1.203  0.00  0.00    +0.005 A 
ATOM     34  C   UNL     1       1.396   1.986  -0.001  0.00  0.00    -0.033 A 
ATOM     35  C   UNL     1       2.054   2.225   1.192  0.00  0.00    +0.005 A 
ATOM     36  C   UNL     1       3.352   2.699   1.182  0.00  0.00    +0.000 A 
ENDBRANCH  30  34
ENDBRANCH   1  30
TORSDOF 6
