REMARK  Name = ZINC04737705
REMARK  3 active torsions:
REMARK  status: ('A' for Active; 'I' for Inactive)
REMARK    1  A    between atoms: C_1  and  C_2
REMARK    2  A    between atoms: C_10  and  O_26
REMARK    3  A    between atoms: N_22  and  N_23
REMARK                            x       y       z     vdW  Elec       q    Type
REMARK                         _______ _______ _______ _____ _____    ______ ____
ROOT
ATOM      1  C   UNL     1       0.528   2.551  -0.591  0.00  0.00    +0.018 C 
ATOM      2  C   UNL     1      -0.294   2.936   0.641  0.00  0.00    +0.011 C 
ATOM      3  C   UNL     1      -0.092   4.407   0.929  0.00  0.00    +0.013 C 
ATOM      4  C   UNL     1      -0.956   4.881   2.071  0.00  0.00    +0.009 C 
ATOM      5  C   UNL     1      -2.425   4.674   1.680  0.00  0.00    +0.023 C 
ATOM      6  C   UNL     1      -3.303   5.177   2.802  0.00  0.00    -0.041 A 
ATOM      7  C   UNL     1      -3.526   6.545   2.885  0.00  0.00    +0.008 A 
ATOM      8  C   UNL     1      -4.309   7.068   3.891  0.00  0.00    +0.046 A 
ATOM      9  C   UNL     1      -4.878   6.219   4.830  0.00  0.00    +0.117 A 
ATOM     10  C   UNL     1      -4.659   4.855   4.744  0.00  0.00    +0.049 A 
ATOM     11  C   UNL     1      -3.873   4.330   3.726  0.00  0.00    -0.040 A 
ATOM     12  C   UNL     1      -3.696   2.834   3.683  0.00  0.00    +0.036 C 
ATOM     13  C   UNL     1      -2.502   2.449   2.779  0.00  0.00    +0.009 C 
ATOM     14  C   UNL     1      -2.677   3.191   1.453  0.00  0.00    +0.001 C 
ATOM     15  C   UNL     1      -1.774   2.600   0.379  0.00  0.00    +0.005 C 
ATOM     16  C   UNL     1      -1.775   1.055   0.583  0.00  0.00    +0.010 C 
ATOM     17  C   UNL     1      -0.809   0.849   1.770  0.00  0.00    +0.053 C 
ATOM     18  C   UNL     1       0.113   2.055   1.797  0.00  0.00    +0.045 C 
ATOM     19  N   UNL     1       1.053   2.280   2.637  0.00  0.00    -0.180 NA
ENDROOT
BRANCH  19  20
ATOM     20  N   UNL     1       1.312   1.361   3.662  0.00  0.00    -0.249 N 
ATOM     21  C   UNL     1       2.323   1.603   4.564  0.00  0.00    +0.187 C 
ATOM     22  N   UNL     1       2.577   0.701   5.571  0.00  0.00    -0.370 N 
ATOM     23  H   UNL     1       0.779   0.554   3.736  0.00  0.00    +0.192 HD
ATOM     24  H   UNL     1       3.773   2.948   5.053  0.00  0.00    +0.159 HD
ATOM     25  H   UNL     1       2.044  -0.106   5.645  0.00  0.00    +0.159 HD
ATOM     26  H   UNL     1       3.289   0.872   6.207  0.00  0.00    +0.159 HD
ATOM     27  N   UNL     1       3.014   2.724   4.409  0.00  0.00    -0.370 N 
ATOM     28  H   UNL     1       2.785   3.365   3.641  0.00  0.00    +0.159 HD
ENDBRANCH  19  20
BRANCH   9  29
ATOM     29  O   UNL     1      -5.648   6.724   5.829  0.00  0.00    -0.507 OA
ATOM     30  H   UNL     1      -5.155   6.954   6.628  0.00  0.00    +0.292 HD
ENDBRANCH   9  29
TORSDOF 2
