REMARK  Name = ZINC04180851
REMARK  10 active torsions:
REMARK  status: ('A' for Active; 'I' for Inactive)
REMARK    1  A    between atoms: C_1  and  C_2
REMARK    2  A    between atoms: C_2  and  C_3
REMARK    3  A    between atoms: C_6  and  O_9
REMARK    4  A    between atoms: O_9  and  C_10
REMARK    5  A    between atoms: C_10  and  C_11
REMARK    6  A    between atoms: C_11  and  N_12
REMARK    7  A    between atoms: N_12  and  C_13
REMARK    8  A    between atoms: C_15  and  N_22
REMARK    9  A    between atoms: C_18  and  N_19
REMARK   10  A    between atoms: C_26  and  C_29
REMARK                            x       y       z     vdW  Elec       q    Type
REMARK                         _______ _______ _______ _____ _____    ______ ____
ROOT
ATOM      1  C   UNL     1       5.068  -1.553  -8.181  0.00  0.00    +0.060 A 
ATOM      2  C   UNL     1       5.735  -2.724  -8.512  0.00  0.00    +0.048 A 
ATOM      3  C   UNL     1       5.907  -3.068  -9.845  0.00  0.00    +0.031 A 
ATOM      4  C   UNL     1       5.411  -2.239 -10.844  0.00  0.00    +0.025 A 
ATOM      5  C   UNL     1       4.748  -1.074 -10.512  0.00  0.00    +0.036 A 
ATOM      6  C   UNL     1       4.569  -0.732  -9.185  0.00  0.00    +0.147 A 
ENDROOT
BRANCH   3   7
ATOM      7  N   UNL     1       6.579  -4.245 -10.182  0.00  0.00    -0.333 N 
ATOM      8  C   UNL     1       6.888  -4.565 -11.584  0.00  0.00    +0.086 C 
ATOM      9  C   UNL     1       6.412  -5.992 -11.873  0.00  0.00    -0.063 C 
ATOM     10  N   UNL     1       7.008  -6.913 -10.896  0.00  0.00    +0.383 N 
ATOM     11  C   UNL     1       6.517  -6.598  -9.549  0.00  0.00    -0.057 C 
ATOM     12  C   UNL     1       7.003  -5.198  -9.144  0.00  0.00    +0.089 C 
ATOM     13  C   UNL     1       7.056  -7.630  -8.556  0.00  0.00    -0.012 C 
ATOM     14  H   UNL     1       6.755  -7.861 -11.132  0.00  0.00    -0.085 HD
ATOM     15  H   UNL     1       8.012  -6.820 -10.918  0.00  0.00    -0.085 HD
ENDBRANCH   3   7
BRANCH   6  16
ATOM     16  N   UNL     1       3.852   0.514  -8.833  0.00  0.00    +0.058 N 
ATOM     17  O   UNL     1       3.117   0.538  -7.873  0.00  0.00    -0.126 OA
ATOM     18  O   UNL     1       4.000   1.508  -9.505  0.00  0.00    -0.126 OA
ENDBRANCH   6  16
BRANCH   1  19
ATOM     19  N   UNL     1       4.892  -1.203  -6.840  0.00  0.00    -0.339 N 
ATOM     20  H   UNL     1       4.502  -0.345  -6.610  0.00  0.00    +0.146 HD
BRANCH  19  21
ATOM     21  C   UNL     1       5.298  -2.131  -5.782  0.00  0.00    +0.142 C 
BRANCH  21  22
ATOM     22  C   UNL     1       4.999  -1.509  -4.416  0.00  0.00    +0.247 C 
BRANCH  22  23
ATOM     23  O   UNL     1       3.587  -1.354  -4.262  0.00  0.00    -0.490 OA
BRANCH  23  27
ATOM     24  C   UNL     1       2.260   0.292  -0.720  0.00  0.00    -0.047 A 
ATOM     25  C   UNL     1       1.350  -0.080  -1.692  0.00  0.00    +0.007 A 
ATOM     26  C   UNL     1       1.792  -0.631  -2.879  0.00  0.00    +0.046 A 
ATOM     27  C   UNL     1       3.150  -0.811  -3.095  0.00  0.00    +0.121 A 
ATOM     28  C   UNL     1       4.061  -0.436  -2.119  0.00  0.00    +0.046 A 
ATOM     29  C   UNL     1       3.615   0.119  -0.935  0.00  0.00    +0.007 A 
BRANCH  24  31
ATOM     30  C   UNL     1       1.686   2.413   0.429  0.00  0.00    +0.009 C 
ATOM     31  C   UNL     1       1.775   0.893   0.575  0.00  0.00    +0.032 C 
ENDBRANCH  24  31
ENDBRANCH  23  27
ENDBRANCH  22  23
ENDBRANCH  21  22
ENDBRANCH  19  21
ENDBRANCH   1  19
TORSDOF 8
