REMARK  Name = ZINC67559563
REMARK  9 active torsions:
REMARK  status: ('A' for Active; 'I' for Inactive)
REMARK    1  A    between atoms: C_1  and  C_2
REMARK    2  A    between atoms: C_7  and  S_8
REMARK    3  A    between atoms: S_8  and  N_11
REMARK    4  A    between atoms: C_14  and  C_22
REMARK    5  A    between atoms: C_14  and  O_23
REMARK    6  A    between atoms: C_15  and  C_18
REMARK    7  A    between atoms: C_18  and  C_19
REMARK    8  A    between atoms: C_19  and  C_20
REMARK    9  A    between atoms: C_19  and  C_21
REMARK                            x       y       z     vdW  Elec       q    Type
REMARK                         _______ _______ _______ _____ _____    ______ ____
ROOT
ATOM      1  N   UNL     1       1.448   1.016   2.806  0.00  0.00    -0.176 NA
ATOM      2  C   UNL     1       2.646   0.407   3.400  0.00  0.00    +0.112 C 
ATOM      3  C   UNL     1       3.186   1.341   4.488  0.00  0.00    +0.052 C 
ATOM      4  C   UNL     1       3.416   2.732   3.892  0.00  0.00    +0.069 C 
ATOM      5  C   UNL     1       2.088   3.298   3.385  0.00  0.00    +0.036 C 
ATOM      6  C   UNL     1       1.538   2.384   2.279  0.00  0.00    +0.115 C 
ATOM      7  C   UNL     1       3.988   3.659   4.967  0.00  0.00    +0.041 C 
ENDROOT
BRANCH   1   8
ATOM      8  S   UNL     1       0.025   0.172   2.725  0.00  0.00    +0.061 S 
ATOM      9  O   UNL     1      -1.015   1.137   2.643  0.00  0.00    -0.153 OA
ATOM     10  O   UNL     1       0.075  -0.808   3.753  0.00  0.00    -0.153 OA
BRANCH   8  17
ATOM     11  C   UNL     1      -0.018   1.503   0.010  0.00  0.00    +0.046 C 
ATOM     12  C   UNL     1       0.002  -0.004   0.002  0.00  0.00    -0.021 A 
ATOM     13  C   UNL     1       0.006  -0.688  -1.199  0.00  0.00    +0.043 A 
ATOM     14  C   UNL     1       0.025  -2.072  -1.206  0.00  0.00    +0.124 A 
ATOM     15  C   UNL     1       0.041  -2.770  -0.010  0.00  0.00    +0.040 A 
ATOM     16  C   UNL     1       0.037  -2.084   1.189  0.00  0.00    +0.031 A 
ATOM     17  C   UNL     1       0.023  -0.701   1.195  0.00  0.00    +0.109 A 
ATOM     18  F   UNL     1       0.028  -2.742  -2.380  0.00  0.00    -0.205 F 
ENDBRANCH   8  17
ENDBRANCH   1   8
BRANCH   4  19
ATOM     19  O   UNL     1       4.340   2.637   2.805  0.00  0.00    -0.388 OA
ATOM     20  H   UNL     1       5.206   2.286   3.055  0.00  0.00    +0.210 HD
ENDBRANCH   4  19
BRANCH   5  21
ATOM     21  C   UNL     1       2.314   4.702   2.820  0.00  0.00    +0.010 C 
BRANCH  21  22
ATOM     22  C   UNL     1       0.969   5.316   2.427  0.00  0.00    -0.017 C 
ATOM     23  C   UNL     1       0.115   5.517   3.681  0.00  0.00    +0.007 C 
ATOM     24  C   UNL     1       1.204   6.668   1.749  0.00  0.00    +0.007 C 
ENDBRANCH  21  22
ENDBRANCH   5  21
TORSDOF 5
