REMARK  Name = ZINC64502565
REMARK  11 active torsions:
REMARK  status: ('A' for Active; 'I' for Inactive)
REMARK    1  A    between atoms: C_1  and  C_2
REMARK    2  A    between atoms: C_4  and  C_34
REMARK    3  A    between atoms: C_6  and  C_33
REMARK    4  A    between atoms: C_9  and  C_10
REMARK    5  A    between atoms: C_15  and  C_18
REMARK    6  A    between atoms: C_18  and  C_19
REMARK    7  A    between atoms: N_21  and  C_22
REMARK    8  A    between atoms: C_22  and  C_23
REMARK    9  A    between atoms: C_23  and  C_24
REMARK   10  A    between atoms: C_34  and  O_36
REMARK   11  A    between atoms: O_36  and  C_37
REMARK                            x       y       z     vdW  Elec       q    Type
REMARK                         _______ _______ _______ _____ _____    ______ ____
ROOT
ATOM      1  C   UNL     1       2.243  -0.547   1.306  0.00  0.00    +0.261 C 
ATOM      2  O   UNL     1       2.923  -0.050   0.431  0.00  0.00    -0.269 OA
ATOM      3  N   UNL     1       2.832  -1.127   2.370  0.00  0.00    -0.297 N 
ATOM      4  C   UNL     1       2.025  -1.651   3.480  0.00  0.00    +0.108 C 
ATOM      5  C   UNL     1       2.412  -3.113   3.725  0.00  0.00    +0.023 C 
ATOM      6  C   UNL     1       3.923  -3.206   3.949  0.00  0.00    +0.001 C 
ATOM      7  C   UNL     1       4.656  -2.715   2.698  0.00  0.00    +0.023 C 
ATOM      8  C   UNL     1       4.294  -1.254   2.439  0.00  0.00    +0.108 C 
ENDROOT
BRANCH   1  14
ATOM      9  C   UNL     1      -0.009   1.504  -0.053  0.00  0.00    +0.015 C 
ATOM     10  C   UNL     1       0.001  -0.026  -0.008  0.00  0.00    +0.055 C 
ATOM     11  C   UNL     1      -1.431  -0.573   0.207  0.00  0.00    +0.130 C 
ATOM     12  C   UNL     1      -1.446  -0.754   1.743  0.00  0.00    +0.117 C 
ATOM     13  N   UNL     1      -0.036  -0.900   2.123  0.00  0.00    -0.279 NA
ATOM     14  C   UNL     1       0.763  -0.516   1.203  0.00  0.00    +0.101 C 
ATOM     15  C   UNL     1      -2.056   0.476   2.418  0.00  0.00    +0.033 C 
BRANCH  11  16
ATOM     16  C   UNL     1      -2.468   0.429  -0.233  0.00  0.00    +0.313 C 
ATOM     17  O   UNL     1      -2.458   1.548   0.223  0.00  0.00    -0.250 OA
BRANCH  16  18
ATOM     18  O   UNL     1      -3.402   0.078  -1.131  0.00  0.00    -0.468 OA
ATOM     19  C   UNL     1      -4.353   1.078  -1.502  0.00  0.00    +0.280 C 
ENDBRANCH  16  18
ENDBRANCH  11  16
ENDBRANCH   1  14
BRANCH   6  20
ATOM     20  C   UNL     1       4.308  -4.660   4.227  0.00  0.00    +0.099 C 
BRANCH  20  21
ATOM     21  C   UNL     1       5.774  -4.734   4.568  0.00  0.00    +0.213 C 
ATOM     22  O   UNL     1       6.445  -3.724   4.586  0.00  0.00    -0.276 OA
ATOM     23  N   UNL     1       6.340  -5.924   4.853  0.00  0.00    -0.315 N 
ATOM     24  H   UNL     1       5.804  -6.732   4.838  0.00  0.00    +0.149 HD
BRANCH  23  25
ATOM     25  C   UNL     1       7.765  -5.996   5.184  0.00  0.00    +0.108 C 
BRANCH  25  26
ATOM     26  C   UNL     1       8.151  -7.451   5.463  0.00  0.00    +0.052 C 
BRANCH  26  27
ATOM     27  C   UNL     1       9.617  -7.525   5.804  0.00  0.00    -0.040 C 
ATOM     28  C   UNL     1      10.165  -7.527   7.041  0.00  0.00    -0.001 A 
ATOM     29  C   UNL     1       9.583  -7.461   8.386  0.00  0.00    +0.010 A 
ATOM     30  C   UNL     1      10.407  -7.481   9.459  0.00  0.00    +0.001 A 
ATOM     31  C   UNL     1      11.799  -7.563   9.318  0.00  0.00    +0.002 A 
ATOM     32  C   UNL     1      12.407  -7.627   8.115  0.00  0.00    +0.026 A 
ATOM     33  C   UNL     1      11.638  -7.613   6.919  0.00  0.00    +0.043 A 
ATOM     34  N   UNL     1      11.987  -7.663   5.656  0.00  0.00    -0.380 N 
ATOM     35  C   UNL     1      10.773  -7.620   4.833  0.00  0.00    +0.144 C 
ATOM     36  H   UNL     1      12.895  -7.722   5.321  0.00  0.00    +0.160 HD
ENDBRANCH  26  27
ENDBRANCH  25  26
ENDBRANCH  23  25
ENDBRANCH  20  21
ENDBRANCH   6  20
TORSDOF 8
