REMARK  Name = ZINC58848963
REMARK  10 active torsions:
REMARK  status: ('A' for Active; 'I' for Inactive)
REMARK    1  A    between atoms: C_1  and  O_2
REMARK    2  A    between atoms: O_2  and  C_3
REMARK    3  A    between atoms: C_6  and  O_37
REMARK    4  A    between atoms: C_7  and  C_9
REMARK    5  A    between atoms: C_20  and  S_25
REMARK    6  A    between atoms: S_25  and  N_28
REMARK    7  A    between atoms: N_28  and  C_29
REMARK    8  A    between atoms: C_34  and  O_35
REMARK    9  A    between atoms: O_35  and  C_36
REMARK   10  A    between atoms: O_37  and  C_38
REMARK                            x       y       z     vdW  Elec       q    Type
REMARK                         _______ _______ _______ _____ _____    ______ ____
ROOT
ATOM      1  C   UNL     1      -2.047  -3.941   0.102  0.00  0.00    +0.109 C 
ATOM      2  C   UNL     1      -2.388  -4.396   1.489  0.00  0.00    +0.029 C 
ATOM      3  C   UNL     1      -1.557  -3.666   2.565  0.00  0.00    +0.033 C 
ATOM      4  C   UNL     1      -1.491  -4.660   3.705  0.00  0.00    -0.030 C 
ATOM      5  C   UNL     1      -1.793  -5.864   3.294  0.00  0.00    -0.023 C 
ATOM      6  C   UNL     1      -2.075  -5.854   1.812  0.00  0.00    +0.049 C 
ATOM      7  C   UNL     1      -0.854  -6.368   1.103  0.00  0.00    -0.018 A 
ATOM      8  C   UNL     1      -0.293  -7.560   1.538  0.00  0.00    +0.034 A 
ATOM      9  C   UNL     1       0.836  -8.067   0.926  0.00  0.00    +0.109 A 
ATOM     10  C   UNL     1       1.419  -7.386  -0.128  0.00  0.00    +0.030 A 
ATOM     11  C   UNL     1       0.866  -6.202  -0.570  0.00  0.00    +0.025 A 
ATOM     12  C   UNL     1      -0.276  -5.693   0.043  0.00  0.00    +0.031 A 
ATOM     13  N   UNL     1      -0.843  -4.531  -0.445  0.00  0.00    -0.336 N 
ATOM     14  H   UNL     1      -0.392  -4.076  -1.173  0.00  0.00    +0.147 HD
ENDROOT
BRANCH   1  19
ATOM     15  C   UNL     1      -0.459  -0.512   0.126  0.00  0.00    +0.121 A 
ATOM     16  C   UNL     1      -1.575   0.311   0.149  0.00  0.00    +0.049 A 
ATOM     17  C   UNL     1      -2.841  -0.242   0.157  0.00  0.00    +0.049 A 
ATOM     18  C   UNL     1      -2.995  -1.621   0.142  0.00  0.00    +0.125 A 
ATOM     19  C   UNL     1      -1.879  -2.443   0.118  0.00  0.00    +0.018 A 
ATOM     20  C   UNL     1      -0.613  -1.890   0.105  0.00  0.00    +0.054 A 
BRANCH  15  22
ATOM     21  C   UNL     1       0.872   1.459   0.141  0.00  0.00    +0.277 C 
ATOM     22  O   UNL     1       0.787   0.033   0.118  0.00  0.00    -0.495 OA
ENDBRANCH  15  22
BRANCH  18  23
ATOM     23  O   UNL     1      -4.241  -2.165   0.150  0.00  0.00    -0.495 OA
ATOM     24  C   UNL     1      -5.345  -1.258   0.175  0.00  0.00    +0.277 C 
ENDBRANCH  18  23
ENDBRANCH   1  19
BRANCH   9  25
ATOM     25  S   UNL     1       1.536  -9.582   1.489  0.00  0.00    +0.072 S 
ATOM     26  O   UNL     1       2.905  -9.564   1.107  0.00  0.00    -0.150 OA
ATOM     27  O   UNL     1       1.124  -9.743   2.840  0.00  0.00    -0.150 OA
BRANCH  25  28
ATOM     28  N   UNL     1       0.821 -10.802   0.627  0.00  0.00    -0.213 N 
ATOM     29  H   UNL     1       0.315 -11.490   1.089  0.00  0.00    +0.174 HD
BRANCH  28  30
ATOM     30  C   UNL     1       0.945 -10.841  -0.766  0.00  0.00    +0.090 A 
ATOM     31  C   UNL     1       2.123 -10.428  -1.371  0.00  0.00    +0.028 A 
ATOM     32  C   UNL     1       2.243 -10.467  -2.748  0.00  0.00    +0.002 A 
ATOM     33  C   UNL     1       1.192 -10.917  -3.524  0.00  0.00    +0.004 A 
ATOM     34  C   UNL     1       0.014 -11.329  -2.928  0.00  0.00    +0.047 A 
ATOM     35  C   UNL     1      -0.113 -11.298  -1.549  0.00  0.00    +0.142 A 
BRANCH  35  36
ATOM     36  O   UNL     1      -1.269 -11.709  -0.961  0.00  0.00    -0.493 OA
ATOM     37  C   UNL     1      -2.310 -12.165  -1.827  0.00  0.00    +0.277 C 
ENDBRANCH  35  36
ENDBRANCH  28  30
ENDBRANCH  25  28
ENDBRANCH   9  25
TORSDOF 7
