REMARK  Name = ZINC14247025
REMARK  10 active torsions:
REMARK  status: ('A' for Active; 'I' for Inactive)
REMARK    1  A    between atoms: C_1  and  N_2
REMARK    2  A    between atoms: N_2  and  C_3
REMARK    3  A    between atoms: C_3  and  C_4
REMARK    4  A    between atoms: N_7  and  C_9
REMARK    5  A    between atoms: C_9  and  C_10
REMARK    6  A    between atoms: C_16  and  C_18
REMARK    7  A    between atoms: N_23  and  S_25
REMARK    8  A    between atoms: S_25  and  C_28
REMARK    9  A    between atoms: C_31  and  O_34
REMARK   10  A    between atoms: O_34  and  C_35
REMARK                            x       y       z     vdW  Elec       q    Type
REMARK                         _______ _______ _______ _____ _____    ______ ____
ROOT
ATOM      1  C   UNL     1      -1.743   5.368   3.155  0.00  0.00    +0.132 C 
ATOM      2  N   UNL     1      -2.729   5.167   2.090  0.00  0.00    -0.300 N 
ATOM      3  C   UNL     1      -2.525   4.221   1.153  0.00  0.00    +0.220 C 
ATOM      4  O   UNL     1      -3.342   4.055   0.271  0.00  0.00    -0.275 OA
ENDROOT
BRANCH   3   5
ATOM      5  C   UNL     1      -1.283   3.369   1.199  0.00  0.00    +0.091 C 
ATOM      6  C   UNL     1      -0.046   4.264   1.096  0.00  0.00    +0.015 C 
ATOM      7  C   UNL     1       1.217   3.403   1.176  0.00  0.00    +0.018 C 
ATOM      8  C   UNL     1       1.234   2.417   0.003  0.00  0.00    +0.109 C 
ATOM      9  N   UNL     1      -0.020   1.652   0.011  0.00  0.00    -0.176 NA
ATOM     10  C   UNL     1      -1.295   2.383   0.021  0.00  0.00    +0.122 C 
BRANCH   9  11
ATOM     11  S   UNL     1       0.002  -0.004   0.002  0.00  0.00    +0.061 S 
ATOM     12  O   UNL     1      -1.243  -0.424  -0.539  0.00  0.00    -0.153 OA
ATOM     13  O   UNL     1       1.248  -0.390  -0.563  0.00  0.00    -0.153 OA
BRANCH  11  14
ATOM     14  C   UNL     1       0.025  -0.534   1.682  0.00  0.00    +0.106 A 
ATOM     15  C   UNL     1       1.232  -0.731   2.327  0.00  0.00    +0.032 A 
ATOM     16  C   UNL     1       1.253  -1.141   3.646  0.00  0.00    +0.047 A 
ATOM     17  C   UNL     1       0.061  -1.366   4.320  0.00  0.00    +0.120 A 
ATOM     18  C   UNL     1      -1.148  -1.173   3.669  0.00  0.00    +0.047 A 
ATOM     19  C   UNL     1      -1.164  -0.758   2.352  0.00  0.00    +0.032 A 
BRANCH  17  20
ATOM     20  O   UNL     1       0.079  -1.774   5.616  0.00  0.00    -0.495 OA
ATOM     21  C   UNL     1       1.361  -1.952   6.223  0.00  0.00    +0.277 C 
ENDBRANCH  17  20
ENDBRANCH  11  14
ENDBRANCH   9  11
ENDBRANCH   3   5
BRANCH   2  22
ATOM     22  C   UNL     1      -3.937   5.995   2.045  0.00  0.00    +0.145 C 
BRANCH  22  23
ATOM     23  C   UNL     1      -5.032   5.330   2.839  0.00  0.00    +0.007 A 
ATOM     24  C   UNL     1      -5.974   4.424   2.342  0.00  0.00    +0.139 A 
ATOM     25  N   UNL     1      -6.755   4.064   3.329  0.00  0.00    -0.179 NA
ATOM     26  N   UNL     1      -6.339   4.739   4.484  0.00  0.00    -0.267 N 
ATOM     27  C   UNL     1      -5.281   5.509   4.157  0.00  0.00    +0.113 A 
BRANCH  26  28
ATOM     28  C   UNL     1      -6.947   4.628   5.812  0.00  0.00    +0.178 C 
BRANCH  28  29
ATOM     29  C   UNL     1      -8.419   4.939   5.719  0.00  0.00    -0.026 A 
ATOM     30  C   UNL     1      -8.863   6.237   5.884  0.00  0.00    +0.005 A 
ATOM     31  C   UNL     1     -10.212   6.523   5.794  0.00  0.00    +0.000 A 
ATOM     32  C   UNL     1     -11.118   5.508   5.548  0.00  0.00    +0.000 A 
ATOM     33  C   UNL     1     -10.675   4.209   5.388  0.00  0.00    +0.000 A 
ATOM     34  C   UNL     1      -9.325   3.924   5.474  0.00  0.00    +0.005 A 
ENDBRANCH  28  29
ENDBRANCH  26  28
ENDBRANCH  22  23
ENDBRANCH   2  22
TORSDOF 8
