REMARK  Name = ZINC39836300
REMARK  9 active torsions:
REMARK  status: ('A' for Active; 'I' for Inactive)
REMARK    1  A    between atoms: C_1  and  C_2
REMARK    2  A    between atoms: C_4  and  O_9
REMARK    3  A    between atoms: O_9  and  C_10
REMARK    4  A    between atoms: C_10  and  C_12
REMARK    5  A    between atoms: C_10  and  C_13
REMARK    6  A    between atoms: N_15  and  C_16
REMARK    7  A    between atoms: C_17  and  C_27
REMARK    8  A    between atoms: C_22  and  C_26
REMARK    9  A    between atoms: N_29  and  C_30
REMARK                            x       y       z     vdW  Elec       q    Type
REMARK                         _______ _______ _______ _____ _____    ______ ____
ROOT
ATOM      1  C   UNL     1      -1.092  -6.697  -4.798  0.00  0.00    +0.085 A 
ATOM      2  C   UNL     1      -1.264  -8.043  -5.081  0.00  0.00    +0.069 A 
ATOM      3  C   UNL     1      -1.883  -8.382  -6.351  0.00  0.00    -0.023 A 
ATOM      4  C   UNL     1      -2.215  -7.312  -7.106  0.00  0.00    -0.004 A 
ATOM      5  S   UNL     1      -1.724  -5.913  -6.142  0.00  0.00    -0.077 S 
ATOM      6  C   UNL     1      -2.861  -7.331  -8.457  0.00  0.00    +0.046 C 
ATOM      7  C   UNL     1      -2.749  -8.753  -9.025  0.00  0.00    -0.009 C 
ATOM      8  C   UNL     1      -3.189  -9.752  -7.952  0.00  0.00    +0.008 C 
ATOM      9  C   UNL     1      -2.152  -9.801  -6.828  0.00  0.00    +0.037 C 
ATOM     10  C   UNL     1      -3.651  -8.886 -10.254  0.00  0.00    +0.008 C 
ENDROOT
BRANCH   1  13
ATOM     11  C   UNL     1      -0.450  -4.788  -3.553  0.00  0.00    +0.258 C 
ATOM     12  O   UNL     1      -0.864  -4.079  -4.445  0.00  0.00    -0.271 OA
ATOM     13  N   UNL     1      -0.533  -6.129  -3.664  0.00  0.00    -0.276 N 
ATOM     14  H   UNL     1      -0.201  -6.696  -2.950  0.00  0.00    +0.155 HD
BRANCH  11  15
ATOM     15  C   UNL     1       0.158  -4.171  -2.320  0.00  0.00    +0.256 C 
ATOM     16  C   UNL     1       1.640  -4.543  -2.241  0.00  0.00    +0.062 C 
BRANCH  15  17
ATOM     17  O   UNL     1       0.028  -2.749  -2.386  0.00  0.00    -0.480 OA
BRANCH  17  21
ATOM     18  C   UNL     1      -0.469   1.461   0.033  0.00  0.00    +0.045 C 
ATOM     19  C   UNL     1      -0.213  -0.024   0.013  0.00  0.00    -0.029 A 
ATOM     20  C   UNL     1      -0.210  -0.708  -1.188  0.00  0.00    +0.050 A 
ATOM     21  C   UNL     1       0.025  -2.075  -1.206  0.00  0.00    +0.122 A 
ATOM     22  C   UNL     1       0.258  -2.752  -0.018  0.00  0.00    +0.047 A 
ATOM     23  C   UNL     1       0.255  -2.065   1.181  0.00  0.00    +0.024 A 
ATOM     24  C   UNL     1       0.025  -0.701   1.196  0.00  0.00    +0.044 A 
ATOM     25 CL   UNL     1       0.029   0.162   2.702  0.00  0.00    -0.083 Cl
ENDBRANCH  17  21
ENDBRANCH  15  17
ENDBRANCH  11  15
ENDBRANCH   1  13
BRANCH   2  26
ATOM     26  C   UNL     1      -0.840  -9.082  -4.137  0.00  0.00    +0.247 C 
ATOM     27  O   UNL     1      -1.614  -9.488  -3.290  0.00  0.00    -0.270 OA
ATOM     28  N   UNL     1       0.407  -9.588  -4.208  0.00  0.00    -0.307 N 
ATOM     29  H   UNL     1       1.024  -9.264  -4.883  0.00  0.00    +0.149 HD
BRANCH  28  30
ATOM     30  C   UNL     1       0.832 -10.626  -3.265  0.00  0.00    +0.096 C 
ATOM     31  C   UNL     1       1.364  -9.973  -1.979  0.00  0.00    +0.046 C 
ATOM     32  C   UNL     1       2.103 -11.026  -1.119  0.00  0.00    +0.168 C 
ATOM     33  S   UNL     1       2.711 -12.221  -2.377  0.00  0.00    -0.029 S 
ATOM     34  O   UNL     1       2.100 -13.484  -2.149  0.00  0.00    -0.174 OA
ATOM     35  O   UNL     1       4.127 -12.133  -2.453  0.00  0.00    -0.174 OA
ATOM     36  C   UNL     1       1.980 -11.467  -3.892  0.00  0.00    +0.188 C 
ENDBRANCH  28  30
ENDBRANCH   2  26
TORSDOF 6
