REMARK  Name = ZINC06195005
REMARK  9 active torsions:
REMARK  status: ('A' for Active; 'I' for Inactive)
REMARK    1  A    between atoms: C_1  and  C_2
REMARK    2  A    between atoms: C_2  and  O_3
REMARK    3  A    between atoms: O_3  and  C_4
REMARK    4  A    between atoms: C_13  and  C_25
REMARK    5  A    between atoms: C_15  and  C_21
REMARK    6  A    between atoms: C_15  and  C_23
REMARK    7  A    between atoms: C_16  and  N_20
REMARK    8  A    between atoms: C_17  and  C_18
REMARK    9  A    between atoms: C_30  and  C_31
REMARK                            x       y       z     vdW  Elec       q    Type
REMARK                         _______ _______ _______ _____ _____    ______ ____
ROOT
ATOM      1  C   UNL     1      -0.933   3.058  -3.701  0.00  0.00    +0.403 C 
ATOM      2  O   UNL     1      -1.488   1.990  -3.533  0.00  0.00    -0.226 OA
ATOM      3  N   UNL     1      -1.478   4.186  -3.203  0.00  0.00    -0.263 N 
ATOM      4  C   UNL     1      -0.832   5.499  -3.389  0.00  0.00    +0.138 C 
ATOM      5  C   UNL     1      -0.623   6.086  -2.016  0.00  0.00    -0.003 C 
ATOM      6  C   UNL     1      -1.418   5.773  -1.011  0.00  0.00    -0.026 C 
ATOM      7  C   UNL     1      -2.600   4.857  -1.121  0.00  0.00    +0.048 C 
ATOM      8  C   UNL     1      -2.739   4.160  -2.454  0.00  0.00    +0.120 C 
ATOM      9  C   UNL     1      -2.553   3.868   0.044  0.00  0.00    +0.068 C 
ATOM     10  C   UNL     1      -2.692   4.643   1.355  0.00  0.00    +0.188 C 
ATOM     11  C   UNL     1      -1.734   5.794   1.423  0.00  0.00    +0.054 C 
ATOM     12  C   UNL     1      -1.139   6.343   0.334  0.00  0.00    +0.074 C 
ENDROOT
BRANCH   9  13
ATOM     13  C   UNL     1      -1.238   3.133   0.029  0.00  0.00    -0.029 A 
ATOM     14  C   UNL     1      -0.052   3.834   0.143  0.00  0.00    +0.004 A 
ATOM     15  C   UNL     1       1.154   3.160   0.129  0.00  0.00    +0.000 A 
ATOM     16  C   UNL     1       1.175   1.783   0.000  0.00  0.00    +0.001 A 
ATOM     17  C   UNL     1      -0.011   1.082  -0.113  0.00  0.00    +0.012 A 
ATOM     18  C   UNL     1      -1.217   1.757  -0.104  0.00  0.00    +0.058 A 
BRANCH  18  19
ATOM     19  C   UNL     1      -2.509   0.993  -0.234  0.00  0.00    +0.418 C 
ATOM     20  F   UNL     1      -2.233  -0.374  -0.350  0.00  0.00    -0.166 F 
ATOM     21  F   UNL     1      -3.298   1.214   0.900  0.00  0.00    -0.166 F 
ATOM     22  F   UNL     1      -3.196   1.429  -1.372  0.00  0.00    -0.166 F 
ENDBRANCH  18  19
ENDBRANCH   9  13
BRANCH  11  23
ATOM     23  N   UNL     1      -1.444   6.320   2.651  0.00  0.00    -0.358 N 
ATOM     24  H   UNL     1      -0.745   7.165   2.736  0.00  0.00    +0.142 HD
ATOM     25  H   UNL     1      -1.910   5.899   3.554  0.00  0.00    +0.142 HD
ENDBRANCH  11  23
BRANCH  12  26
ATOM     26  C   UNL     1      -0.253   7.459   0.479  0.00  0.00    +0.101 C 
ATOM     27  N   UNL     1       0.450   8.344   0.593  0.00  0.00    -0.191 NA
ENDBRANCH  12  26
BRANCH  10  28
ATOM     28  C   UNL     1      -4.067   5.156   1.466  0.00  0.00    +0.091 C 
ATOM     29  N   UNL     1      -5.128   5.552   1.552  0.00  0.00    -0.194 NA
ENDBRANCH  10  28
BRANCH  10  30
ATOM     30  C   UNL     1      -2.427   3.733   2.481  0.00  0.00    +0.091 C 
ATOM     31  N   UNL     1      -2.222   3.031   3.350  0.00  0.00    -0.194 NA
ENDBRANCH  10  30
BRANCH   1  32
ATOM     32  O   UNL     1       0.226   3.115  -4.384  0.00  0.00    -0.451 OA
BRANCH  32  34
ATOM     33  C   UNL     1       2.066   2.124  -5.634  0.00  0.00    +0.048 C 
ATOM     34  C   UNL     1       0.754   1.862  -4.891  0.00  0.00    +0.230 C 
ENDBRANCH  32  34
ENDBRANCH   1  32
TORSDOF 8
