REMARK  Name = ZINC20573650
REMARK  3 active torsions:
REMARK  status: ('A' for Active; 'I' for Inactive)
REMARK    1  A    between atoms: C_3  and  C_8
REMARK    2  A    between atoms: N_10  and  C_11
REMARK    3  A    between atoms: C_11  and  C_12
REMARK                            x       y       z     vdW  Elec       q    Type
REMARK                         _______ _______ _______ _____ _____    ______ ____
ROOT
ATOM      1  C   UNL     1       7.249   1.289  -0.061  0.00  0.00    +0.233 C 
ATOM      2  O   UNL     1       7.042   0.094  -0.065  0.00  0.00    -0.274 OA
ATOM      3  N   UNL     1       8.514   1.754  -0.071  0.00  0.00    -0.300 N 
ATOM      4  C   UNL     1       8.780   3.199  -0.060  0.00  0.00    +0.110 C 
ATOM      5  C   UNL     1       9.726   3.517   1.102  0.00  0.00    +0.047 C 
ATOM      6  C   UNL     1      10.978   2.646   0.990  0.00  0.00    +0.064 C 
ATOM      7  C   UNL     1      10.590   1.169   1.069  0.00  0.00    +0.047 C 
ATOM      8  C   UNL     1       9.653   0.827  -0.087  0.00  0.00    +0.110 C 
ATOM      9  C   UNL     1      11.930   2.981   2.109  0.00  0.00    +0.057 A 
ATOM     10  C   UNL     1      13.262   3.135   1.928  0.00  0.00    +0.039 A 
ATOM     11  N   UNL     1      13.800   3.432   3.140  0.00  0.00    -0.349 N 
ATOM     12  H   UNL     1      14.736   3.599   3.330  0.00  0.00    +0.166 HD
ATOM     13  C   UNL     1      12.781   3.449   4.031  0.00  0.00    +0.171 A 
ATOM     14  N   UNL     1      11.666   3.177   3.402  0.00  0.00    -0.348 N 
ATOM     15  C   UNL     1      13.942   2.984   0.592  0.00  0.00    +0.070 C 
ATOM     16  C   UNL     1      12.969   2.263  -0.352  0.00  0.00    +0.088 C 
ATOM     17  N   UNL     1      11.651   2.911  -0.291  0.00  0.00    -0.305 NA
ATOM     18  H   UNL     1      11.073   2.629  -1.069  0.00  0.00    +0.123 HD
ATOM     19  H   UNL     1      10.788   3.127   3.810  0.00  0.00    +0.166 HD
ENDROOT
BRANCH   1  20
ATOM     20  C   UNL     1       6.091   2.254  -0.045  0.00  0.00    +0.200 C 
BRANCH  20  23
ATOM     21  C   UNL     1       3.656   2.164  -0.022  0.00  0.00    +0.245 C 
ATOM     22  O   UNL     1       3.641   3.380  -0.015  0.00  0.00    -0.270 OA
ATOM     23  N   UNL     1       4.832   1.505  -0.036  0.00  0.00    -0.303 N 
ATOM     24  H   UNL     1       4.844   0.535  -0.042  0.00  0.00    +0.150 HD
BRANCH  21  27
ATOM     25  C   UNL     1      -0.017   1.379   0.010  0.00  0.00    +0.004 A 
ATOM     26  C   UNL     1       1.167   2.088   0.002  0.00  0.00    +0.013 A 
ATOM     27  C   UNL     1       2.385   1.409  -0.013  0.00  0.00    +0.039 A 
ATOM     28  C   UNL     1       2.400   0.013  -0.021  0.00  0.00    +0.051 A 
ATOM     29  C   UNL     1       1.208  -0.686  -0.013  0.00  0.00    +0.124 A 
ATOM     30  C   UNL     1       0.002  -0.004   0.002  0.00  0.00    +0.038 A 
ATOM     31  F   UNL     1       1.219  -2.037  -0.021  0.00  0.00    -0.205 F 
ENDBRANCH  21  27
ENDBRANCH  20  23
ENDBRANCH   1  20
TORSDOF 3
