REMARK  Name = ZINC66665742
REMARK  9 active torsions:
REMARK  status: ('A' for Active; 'I' for Inactive)
REMARK    1  A    between atoms: C_1  and  C_2
REMARK    2  A    between atoms: C_7  and  N_12
REMARK    3  A    between atoms: C_9  and  C_11
REMARK    4  A    between atoms: C_13  and  C_15
REMARK    5  A    between atoms: C_15  and  C_17
REMARK    6  A    between atoms: C_15  and  N_18
REMARK    7  A    between atoms: C_24  and  C_26
REMARK    8  A    between atoms: C_26  and  C_27
REMARK    9  A    between atoms: C_26  and  C_28
REMARK                            x       y       z     vdW  Elec       q    Type
REMARK                         _______ _______ _______ _____ _____    ______ ____
ROOT
ATOM      1  C   UNL     1       2.959  -3.627   3.650  0.00  0.00    +0.141 C 
ATOM      2  C   UNL     1       1.705  -3.516   4.519  0.00  0.00    +0.034 C 
ENDROOT
BRANCH   1   3
ATOM      3  N   UNL     1       3.294  -5.044   3.453  0.00  0.00    -0.279 NA
ATOM      4  C   UNL     1       2.141  -5.790   2.923  0.00  0.00    +0.104 C 
ATOM      5  C   UNL     1       2.434  -7.288   3.028  0.00  0.00    +0.119 C 
ATOM      6  N   UNL     1       3.743  -7.582   2.451  0.00  0.00    -0.313 N 
ATOM      7  C   UNL     1       4.675  -6.645   2.246  0.00  0.00    +0.231 C 
ATOM      8  O   UNL     1       5.747  -6.982   1.791  0.00  0.00    -0.274 OA
ATOM      9  C   UNL     1       4.448  -5.192   2.555  0.00  0.00    +0.146 C 
ATOM     10  H   UNL     1       3.946  -8.499   2.207  0.00  0.00    +0.149 HD
BRANCH   9  11
ATOM     11  C   UNL     1       5.694  -4.617   3.232  0.00  0.00    +0.009 C 
ATOM     12  C   UNL     1       6.026  -5.441   4.477  0.00  0.00    +0.009 C 
ATOM     13  C   UNL     1       6.872  -4.668   2.257  0.00  0.00    +0.009 C 
ENDBRANCH   9  11
ENDBRANCH   1   3
BRANCH   1  15
ATOM     14  N   UNL     1       2.974  -1.672   2.135  0.00  0.00    -0.311 N 
ATOM     15  C   UNL     1       2.703  -2.981   2.313  0.00  0.00    +0.230 C 
ATOM     16  O   UNL     1       2.254  -3.637   1.398  0.00  0.00    -0.274 OA
ATOM     17  H   UNL     1       3.333  -1.147   2.867  0.00  0.00    +0.149 HD
BRANCH  14  23
ATOM     18  C   UNL     1       4.286   2.051  -0.841  0.00  0.00    +0.008 C 
ATOM     19  C   UNL     1       3.375   0.832  -0.681  0.00  0.00    -0.009 C 
ATOM     20  C   UNL     1       1.913   1.274  -0.762  0.00  0.00    +0.003 C 
ATOM     21  C   UNL     1       1.002   0.055  -0.603  0.00  0.00    +0.002 C 
ATOM     22  C   UNL     1       1.262  -0.602   0.754  0.00  0.00    +0.022 C 
ATOM     23  C   UNL     1       2.725  -1.044   0.835  0.00  0.00    +0.076 C 
ATOM     24  C   UNL     1       3.635   0.175   0.676  0.00  0.00    +0.009 C 
ATOM     25  C   UNL     1       3.343   1.180   1.793  0.00  0.00    +0.009 C 
ENDBRANCH  14  23
ENDBRANCH   1  15
TORSDOF 4
