REMARK  Name = ZINC35267042
REMARK  4 active torsions:
REMARK  status: ('A' for Active; 'I' for Inactive)
REMARK    1  A    between atoms: C_4  and  C_7
REMARK    2  A    between atoms: C_17  and  C_19
REMARK    3  A    between atoms: C_25  and  C_27
REMARK    4  A    between atoms: C_27  and  N_28
REMARK                            x       y       z     vdW  Elec       q    Type
REMARK                         _______ _______ _______ _____ _____    ______ ____
ROOT
ATOM      1  C   UNL     1       3.692  -0.680  -0.037  0.00  0.00    +0.013 C 
ATOM      2  C   UNL     1       3.717  -2.025   0.057  0.00  0.00    -0.024 C 
ATOM      3  C   UNL     1       2.428  -2.790   0.059  0.00  0.00    +0.037 C 
ATOM      4  C   UNL     1       2.585  -4.273   0.328  0.00  0.00    +0.005 C 
ATOM      5  C   UNL     1       3.889  -4.854  -0.213  0.00  0.00    +0.012 C 
ATOM      6  C   UNL     1       5.051  -4.174   0.512  0.00  0.00    +0.066 C 
ATOM      7  C   UNL     1       4.960  -2.694   0.147  0.00  0.00    +0.068 C 
ATOM      8  N   UNL     1       6.154  -2.256  -0.057  0.00  0.00    -0.181 NA
ATOM      9  N   UNL     1       7.120  -3.269  -0.106  0.00  0.00    -0.186 N 
ATOM     10  C   UNL     1       6.413  -4.580  -0.079  0.00  0.00    +0.140 C 
ATOM     11  C   UNL     1       8.455  -3.092  -0.152  0.00  0.00    +0.219 C 
ATOM     12  O   UNL     1       9.193  -4.054  -0.193  0.00  0.00    -0.276 OA
ENDROOT
BRANCH   1  16
ATOM     13  C   UNL     1       0.027   1.326  -0.776  0.00  0.00    +0.000 A 
ATOM     14  C   UNL     1       0.909   1.827   0.165  0.00  0.00    +0.001 A 
ATOM     15  C   UNL     1       2.102   1.181   0.411  0.00  0.00    +0.008 A 
ATOM     16  C   UNL     1       2.420   0.016  -0.293  0.00  0.00    -0.025 A 
ATOM     17  C   UNL     1       1.524  -0.484  -1.243  0.00  0.00    +0.008 A 
ATOM     18  C   UNL     1       0.335   0.173  -1.478  0.00  0.00    +0.001 A 
ENDBRANCH   1  16
BRANCH  10  19
ATOM     19  C   UNL     1       6.255  -5.120  -1.477  0.00  0.00    -0.024 A 
ATOM     20  C   UNL     1       6.119  -4.251  -2.543  0.00  0.00    +0.005 A 
ATOM     21  C   UNL     1       5.974  -4.747  -3.825  0.00  0.00    +0.000 A 
ATOM     22  C   UNL     1       5.968  -6.112  -4.042  0.00  0.00    +0.000 A 
ATOM     23  C   UNL     1       6.106  -6.981  -2.976  0.00  0.00    +0.000 A 
ATOM     24  C   UNL     1       6.254  -6.485  -1.694  0.00  0.00    +0.005 A 
ENDBRANCH  10  19
BRANCH  11  25
ATOM     25  C   UNL     1       9.032  -1.700  -0.151  0.00  0.00    +0.021 C 
BRANCH  25  26
ATOM     26  N   UNL     1      10.498  -1.776  -0.205  0.00  0.00    +0.392 N 
ATOM     27  C   UNL     1      11.066  -0.424  -0.098  0.00  0.00    -0.059 C 
ATOM     28  C   UNL     1      12.579  -0.539   0.098  0.00  0.00    +0.085 C 
ATOM     29  N   UNL     1      13.148  -1.415  -0.924  0.00  0.00    -0.319 N 
ATOM     30  C   UNL     1      12.402  -2.261  -1.643  0.00  0.00    +0.196 C 
ATOM     31  O   UNL     1      12.952  -2.973  -2.457  0.00  0.00    -0.278 OA
ATOM     32  C   UNL     1      10.912  -2.367  -1.484  0.00  0.00    +0.019 C 
ATOM     33  H   UNL     1      14.103  -1.381  -1.087  0.00  0.00    +0.149 HD
ATOM     34  H   UNL     1      10.834  -2.348   0.555  0.00  0.00    -0.080 HD
ENDBRANCH  25  26
ENDBRANCH  11  25
TORSDOF 4
