REMARK  Name = ZINC44380294
REMARK  4 active torsions:
REMARK  status: ('A' for Active; 'I' for Inactive)
REMARK    1  A    between atoms: C_1  and  C_2
REMARK    2  A    between atoms: C_3  and  C_17
REMARK    3  A    between atoms: C_8  and  C_10
REMARK    4  A    between atoms: N_22  and  C_23
REMARK                            x       y       z     vdW  Elec       q    Type
REMARK                         _______ _______ _______ _____ _____    ______ ____
ROOT
ATOM      1  C   UNL     1      -0.023   1.506   0.014  0.00  0.00    +0.067 C 
ATOM      2  C   UNL     1      -0.013  -0.001   0.005  0.00  0.00    +0.058 A 
ATOM      3  C   UNL     1      -0.026  -0.714  -1.168  0.00  0.00    +0.081 A 
ATOM      4  S   UNL     1      -0.005  -2.385  -0.539  0.00  0.00    -0.049 S 
ATOM      5  C   UNL     1       0.016  -2.016   1.103  0.00  0.00    +0.165 A 
ATOM      6  N   UNL     1       0.013  -0.699   1.119  0.00  0.00    -0.229 NA
ATOM      7  N   UNL     1       0.038  -2.889   2.180  0.00  0.00    -0.260 N 
ATOM      8  C   UNL     1       0.053  -2.406   3.438  0.00  0.00    +0.255 C 
ATOM      9  O   UNL     1       0.143  -1.208   3.630  0.00  0.00    -0.270 OA
ATOM     10  H   UNL     1       0.042  -3.847   2.028  0.00  0.00    +0.157 HD
ENDROOT
BRANCH   8  11
ATOM     11  C   UNL     1      -0.039  -3.328   4.580  0.00  0.00    +0.101 A 
ATOM     12  C   UNL     1      -0.145  -2.837   5.881  0.00  0.00    +0.020 A 
ATOM     13  C   UNL     1      -0.231  -3.742   6.939  0.00  0.00    +0.018 A 
ATOM     14  C   UNL     1      -0.211  -5.078   6.697  0.00  0.00    +0.086 A 
ATOM     15  N   UNL     1      -0.108  -5.562   5.436  0.00  0.00    -0.328 N 
ATOM     16  C   UNL     1      -0.028  -4.732   4.378  0.00  0.00    +0.261 A 
ATOM     17  O   UNL     1       0.058  -5.187   3.250  0.00  0.00    -0.267 OA
ATOM     18  H   UNL     1      -0.096  -6.521   5.292  0.00  0.00    +0.168 HD
ENDBRANCH   8  11
BRANCH   3  19
ATOM     19  C   UNL     1      -0.050  -0.235  -2.559  0.00  0.00    +0.173 A 
ATOM     20  N   UNL     1      -0.059   1.020  -2.954  0.00  0.00    -0.128 NA
ATOM     21  N   UNL     1      -0.080   1.075  -4.238  0.00  0.00    -0.121 NA
ATOM     22  C   UNL     1      -0.086  -0.137  -4.743  0.00  0.00    +0.202 A 
ATOM     23  S   UNL     1      -0.113  -0.554  -6.455  0.00  0.00    -0.009 SA
ATOM     24  N   UNL     1      -0.061  -1.014  -3.695  0.00  0.00    -0.304 N 
ATOM     25  C   UNL     1      -0.051  -2.478  -3.764  0.00  0.00    +0.153 C 
ENDBRANCH   3  19
TORSDOF 2
