REMARK  Name = ZINC23126680
REMARK  12 active torsions:
REMARK  status: ('A' for Active; 'I' for Inactive)
REMARK    1  A    between atoms: C_1  and  C_2
REMARK    2  A    between atoms: C_2  and  C_3
REMARK    3  A    between atoms: C_2  and  O_4
REMARK    4  A    between atoms: O_4  and  C_5
REMARK    5  A    between atoms: C_8  and  C_11
REMARK    6  A    between atoms: C_13  and  C_16
REMARK    7  A    between atoms: C_16  and  N_17
REMARK    8  A    between atoms: N_24  and  C_27
REMARK    9  A    between atoms: C_29  and  O_35
REMARK   10  A    between atoms: C_31  and  O_33
REMARK   11  A    between atoms: O_33  and  C_34
REMARK   12  A    between atoms: O_35  and  C_36
REMARK                            x       y       z     vdW  Elec       q    Type
REMARK                         _______ _______ _______ _____ _____    ______ ____
ROOT
ATOM      1  N   UNL     1      -4.828  -8.194  -4.378  0.00  0.00    -0.214 N 
ATOM      2  C   UNL     1      -4.393  -8.784  -5.633  0.00  0.00    +0.216 C 
ATOM      3  C   UNL     1      -5.832  -8.850  -6.272  0.00  0.00    +0.246 C 
ATOM      4  C   UNL     1      -5.618  -9.743  -7.386  0.00  0.00    +0.255 C 
ATOM      5  O   UNL     1      -6.170  -9.719  -8.466  0.00  0.00    -0.272 OA
ATOM      6  N   UNL     1      -4.655 -10.624  -6.960  0.00  0.00    -0.207 N 
ATOM      7  C   UNL     1      -4.062 -10.236  -5.772  0.00  0.00    +0.251 C 
ATOM      8  O   UNL     1      -3.419 -10.918  -5.003  0.00  0.00    -0.273 OA
ATOM      9  N   UNL     1      -6.432  -7.665  -5.860  0.00  0.00    -0.156 NA
ATOM     10  N   UNL     1      -5.909  -7.350  -4.750  0.00  0.00    -0.082 NA
ENDROOT
BRANCH   6  11
ATOM     11  C   UNL     1      -4.300 -11.787  -7.657  0.00  0.00    +0.051 A 
ATOM     12  C   UNL     1      -3.319 -12.627  -7.151  0.00  0.00    +0.069 A 
ATOM     13  C   UNL     1      -2.968 -13.778  -7.840  0.00  0.00    +0.125 A 
ATOM     14  C   UNL     1      -3.597 -14.089  -9.037  0.00  0.00    +0.091 A 
ATOM     15  C   UNL     1      -4.578 -13.249  -9.543  0.00  0.00    +0.125 A 
ATOM     16  C   UNL     1      -4.934 -12.101  -8.851  0.00  0.00    +0.069 A 
BRANCH  15  17
ATOM     17  O   UNL     1      -5.194 -13.554 -10.715  0.00  0.00    -0.495 OA
ATOM     18  C   UNL     1      -4.782 -14.754 -11.372  0.00  0.00    +0.277 C 
ENDBRANCH  15  17
BRANCH  13  19
ATOM     19  O   UNL     1      -2.007 -14.601  -7.345  0.00  0.00    -0.495 OA
ATOM     20  C   UNL     1      -1.696 -15.768  -8.107  0.00  0.00    +0.277 C 
ENDBRANCH  13  19
ENDBRANCH   6  11
BRANCH   1  21
ATOM     21  C   UNL     1      -4.283  -8.423  -3.038  0.00  0.00    +0.227 C 
BRANCH  21  24
ATOM     22  C   UNL     1      -2.164  -5.622  -2.124  0.00  0.00    +0.202 A 
ATOM     23  N   UNL     1      -3.349  -6.250  -2.221  0.00  0.00    -0.190 NA
ATOM     24  C   UNL     1      -3.189  -7.423  -2.763  0.00  0.00    +0.247 A 
ATOM     25  O   UNL     1      -1.889  -7.592  -3.035  0.00  0.00    -0.336 OA
ATOM     26  N   UNL     1      -1.234  -6.404  -2.617  0.00  0.00    -0.056 NA
BRANCH  22  30
ATOM     27  C   UNL     1      -1.538  -1.739  -0.505  0.00  0.00    +0.121 A 
ATOM     28  C   UNL     1      -0.462  -2.466  -0.996  0.00  0.00    +0.046 A 
ATOM     29  C   UNL     1      -0.662  -3.725  -1.521  0.00  0.00    +0.015 A 
ATOM     30  C   UNL     1      -1.946  -4.268  -1.559  0.00  0.00    +0.023 A 
ATOM     31  C   UNL     1      -3.024  -3.535  -1.065  0.00  0.00    +0.015 A 
ATOM     32  C   UNL     1      -2.817  -2.279  -0.536  0.00  0.00    +0.046 A 
BRANCH  27  33
ATOM     33  O   UNL     1      -1.339  -0.499   0.012  0.00  0.00    -0.489 OA
BRANCH  33  35
ATOM     34  C   UNL     1      -1.982   1.169   1.638  0.00  0.00    +0.051 C 
ATOM     35  C   UNL     1      -2.466   0.143   0.612  0.00  0.00    +0.167 C 
ATOM     36  C   UNL     1      -3.284   0.851  -0.470  0.00  0.00    +0.051 C 
ENDBRANCH  33  35
ENDBRANCH  27  33
ENDBRANCH  22  30
ENDBRANCH  21  24
ENDBRANCH   1  21
TORSDOF 8
