REMARK  Name = ZINC66057388
REMARK  5 active torsions:
REMARK  status: ('A' for Active; 'I' for Inactive)
REMARK    1  A    between atoms: C_3  and  O_9
REMARK    2  A    between atoms: O_9  and  C_10
REMARK    3  A    between atoms: C_10  and  C_11
REMARK    4  A    between atoms: C_16  and  C_19
REMARK    5  A    between atoms: N_21  and  N_22
REMARK                            x       y       z     vdW  Elec       q    Type
REMARK                         _______ _______ _______ _____ _____    ______ ____
ROOT
ATOM      1  C   UNL     1       4.840   4.126  -0.023  0.00  0.00    +0.253 C 
ATOM      2  O   UNL     1       5.811   3.400  -0.036  0.00  0.00    -0.272 OA
ATOM      3  N   UNL     1       4.998   5.465  -0.018  0.00  0.00    -0.299 N 
ATOM      4  C   UNL     1       3.832   6.357   0.004  0.00  0.00    +0.108 C 
ATOM      5  C   UNL     1       3.946   7.347  -1.159  0.00  0.00    +0.032 C 
ATOM      6  C   UNL     1       5.292   8.071  -1.078  0.00  0.00    +0.079 C 
ATOM      7  C   UNL     1       6.428   7.052  -1.197  0.00  0.00    +0.032 C 
ATOM      8  C   UNL     1       6.342   6.059  -0.028  0.00  0.00    +0.108 C 
ENDROOT
BRANCH   6   9
ATOM      9  C   UNL     1       5.394   9.070  -2.202  0.00  0.00    +0.229 C 
ATOM     10  O   UNL     1       4.480   9.191  -2.990  0.00  0.00    -0.274 OA
ATOM     11  N   UNL     1       6.500   9.828  -2.331  0.00  0.00    -0.253 N 
ATOM     12  H   UNL     1       7.231   9.731  -1.700  0.00  0.00    +0.169 HD
BRANCH  11  13
ATOM     13  N   UNL     1       6.592  10.734  -3.349  0.00  0.00    -0.254 NA
ATOM     14  H   UNL     1       7.473  11.226  -3.317  0.00  0.00    +0.140 HD
ATOM     15  H   UNL     1       6.460  10.287  -4.244  0.00  0.00    +0.140 HD
ENDBRANCH  11  13
ENDBRANCH   6   9
BRANCH   1  16
ATOM     16  C   UNL     1       3.455   3.532  -0.013  0.00  0.00    +0.324 C 
BRANCH  16  17
ATOM     17  O   UNL     1       3.548   2.106  -0.021  0.00  0.00    -0.482 OA
BRANCH  17  20
ATOM     18  C   UNL     1      -0.017   1.379   0.010  0.00  0.00    +0.019 A 
ATOM     19  C   UNL     1       1.170   2.087   0.002  0.00  0.00    +0.048 A 
ATOM     20  C   UNL     1       2.380   1.411  -0.013  0.00  0.00    +0.135 A 
ATOM     21  C   UNL     1       2.397   0.023  -0.021  0.00  0.00    +0.061 A 
ATOM     22  C   UNL     1       1.208  -0.682  -0.013  0.00  0.00    +0.034 A 
ATOM     23  C   UNL     1       0.002  -0.004   0.002  0.00  0.00    +0.019 A 
ATOM     24 BR   UNL     1      -1.623  -0.970   0.012  0.00  0.00    -0.050 Br
ATOM     25 BR   UNL     1       4.046  -0.903  -0.042  0.00  0.00    -0.046 Br
ENDBRANCH  17  20
ENDBRANCH  16  17
ENDBRANCH   1  16
TORSDOF 5
