REMARK  Name = ZINC12282254
REMARK  8 active torsions:
REMARK  status: ('A' for Active; 'I' for Inactive)
REMARK    1  A    between atoms: C_1  and  C_2
REMARK    2  A    between atoms: C_2  and  O_3
REMARK    3  A    between atoms: O_3  and  C_4
REMARK    4  A    between atoms: C_9  and  N_12
REMARK    5  A    between atoms: C_13  and  C_15
REMARK    6  A    between atoms: C_24  and  C_26
REMARK    7  A    between atoms: C_26  and  C_28
REMARK    8  A    between atoms: C_26  and  C_34
REMARK                            x       y       z     vdW  Elec       q    Type
REMARK                         _______ _______ _______ _____ _____    ______ ____
ROOT
ATOM      1  C   UNL     1      -1.098   2.162  -0.810  0.00  0.00    +0.082 C 
ATOM      2  C   UNL     1      -1.093   2.149   0.720  0.00  0.00    +0.021 C 
ATOM      3  C   UNL     1       0.039   1.475  -0.054  0.00  0.00    -0.015 C 
ATOM      4  C   UNL     1       1.409   2.161  -0.051  0.00  0.00    +0.026 C 
ATOM      5  C   UNL     1       2.221   1.637   1.139  0.00  0.00    +0.108 C 
ATOM      6  N   UNL     1       2.207   0.169   1.112  0.00  0.00    -0.301 N 
ATOM      7  C   UNL     1       0.918  -0.536   1.125  0.00  0.00    +0.108 C 
ATOM      8  C   UNL     1       0.080  -0.056  -0.066  0.00  0.00    +0.026 C 
ATOM      9  C   UNL     1       3.362  -0.524   1.076  0.00  0.00    +0.223 C 
ATOM     10  O   UNL     1       3.346  -1.735   1.135  0.00  0.00    -0.275 OA
ENDROOT
BRANCH   1  12
ATOM     11  N   UNL     1      -0.258   3.469  -2.735  0.00  0.00    -0.312 N 
ATOM     12  C   UNL     1      -0.789   3.467  -1.496  0.00  0.00    +0.217 C 
ATOM     13  O   UNL     1      -1.018   4.517  -0.933  0.00  0.00    -0.275 OA
ATOM     14  H   UNL     1      -0.075   2.630  -3.185  0.00  0.00    +0.149 HD
BRANCH  11  20
ATOM     15  C   UNL     1       0.177   6.803  -6.950  0.00  0.00    +0.403 C 
ATOM     16  O   UNL     1       1.140   6.658  -7.677  0.00  0.00    -0.226 OA
ATOM     17  N   UNL     1       0.248   6.435  -5.656  0.00  0.00    -0.267 N 
ATOM     18  C   UNL     1       1.483   5.857  -5.108  0.00  0.00    +0.113 C 
ATOM     19  C   UNL     1       1.148   4.521  -4.438  0.00  0.00    +0.041 C 
ATOM     20  C   UNL     1       0.042   4.739  -3.402  0.00  0.00    +0.076 C 
ATOM     21  C   UNL     1      -1.217   5.259  -4.099  0.00  0.00    +0.041 C 
ATOM     22  C   UNL     1      -0.908   6.603  -4.765  0.00  0.00    +0.113 C 
BRANCH  15  23
ATOM     23  O   UNL     1      -0.961   7.331  -7.439  0.00  0.00    -0.451 OA
BRANCH  23  25
ATOM     24  C   UNL     1      -2.333   8.282  -9.211  0.00  0.00    +0.048 C 
ATOM     25  C   UNL     1      -0.966   7.705  -8.842  0.00  0.00    +0.230 C 
ENDBRANCH  23  25
ENDBRANCH  15  23
ENDBRANCH  11  20
ENDBRANCH   1  12
BRANCH   9  26
ATOM     26  C   UNL     1       4.675   0.207   0.962  0.00  0.00    +0.108 C 
BRANCH  26  27
ATOM     27  C   UNL     1       4.963   0.500  -0.488  0.00  0.00    -0.035 A 
ATOM     28  C   UNL     1       5.084  -0.539  -1.392  0.00  0.00    +0.004 A 
ATOM     29  C   UNL     1       5.344  -0.271  -2.723  0.00  0.00    +0.000 A 
ATOM     30  C   UNL     1       5.491   1.036  -3.149  0.00  0.00    +0.000 A 
ATOM     31  C   UNL     1       5.374   2.075  -2.244  0.00  0.00    +0.000 A 
ATOM     32  C   UNL     1       5.110   1.807  -0.914  0.00  0.00    +0.004 A 
ENDBRANCH  26  27
BRANCH  26  33
ATOM     33  C   UNL     1       5.795  -0.662   1.538  0.00  0.00    +0.005 C 
ATOM     34  C   UNL     1       5.495  -1.000   3.013  0.00  0.00    +0.004 C 
ATOM     35  C   UNL     1       6.883  -0.965   3.700  0.00  0.00    +0.000 C 
ATOM     36  C   UNL     1       7.585   0.221   2.994  0.00  0.00    +0.000 C 
ATOM     37  C   UNL     1       7.124   0.114   1.526  0.00  0.00    +0.004 C 
ENDBRANCH  26  33
ENDBRANCH   9  26
TORSDOF 7
