REMARK  Name = ZINC57719427
REMARK  5 active torsions:
REMARK  status: ('A' for Active; 'I' for Inactive)
REMARK    1  A    between atoms: N_12  and  C_14
REMARK    2  A    between atoms: C_14  and  C_15
REMARK    3  A    between atoms: C_15  and  C_17
REMARK    4  A    between atoms: C_15  and  O_25
REMARK    5  A    between atoms: C_17  and  C_18
REMARK                            x       y       z     vdW  Elec       q    Type
REMARK                         _______ _______ _______ _____ _____    ______ ____
ROOT
ATOM      1  C   UNL     1      -0.017   1.378   0.010  0.00  0.00    +0.002 A 
ATOM      2  C   UNL     1       1.167   2.094   0.002  0.00  0.00    +0.002 A 
ATOM      3  C   UNL     1       2.380   1.429  -0.026  0.00  0.00    +0.028 A 
ATOM      4  C   UNL     1       2.406   0.049  -0.046  0.00  0.00    +0.067 A 
ATOM      5  C   UNL     1       1.212  -0.680  -0.014  0.00  0.00    +0.052 A 
ATOM      6  C   UNL     1       0.002  -0.004   0.002  0.00  0.00    +0.025 A 
ATOM      7  N   UNL     1       1.244  -2.079   0.035  0.00  0.00    -0.333 N 
ATOM      8  C   UNL     1       2.366  -2.814  -0.566  0.00  0.00    +0.058 C 
ATOM      9  C   UNL     1       2.133  -2.967  -2.069  0.00  0.00    +0.028 C 
ATOM     10  C   UNL     1       0.886  -3.827  -2.299  0.00  0.00    -0.016 C 
ATOM     11  C   UNL     1       1.065  -5.173  -1.593  0.00  0.00    -0.079 C 
ATOM     12  N   UNL     1       1.249  -4.955  -0.153  0.00  0.00    +0.383 N 
ATOM     13  C   UNL     1       2.482  -4.193   0.081  0.00  0.00    -0.046 C 
ATOM     14  C   UNL     1       3.628  -2.026  -0.322  0.00  0.00    +0.045 A 
ATOM     15  N   UNL     1       3.611  -0.667  -0.096  0.00  0.00    -0.316 N 
ATOM     16  C   UNL     1       4.887  -0.239   0.061  0.00  0.00    +0.091 A 
ATOM     17  C   UNL     1       5.707  -1.309  -0.043  0.00  0.00    +0.020 A 
ATOM     18  C   UNL     1       4.899  -2.442  -0.282  0.00  0.00    +0.025 A 
ATOM     19  H   UNL     1       0.524  -2.564   0.467  0.00  0.00    +0.147 HD
ATOM     20  H   UNL     1       0.462  -4.439   0.211  0.00  0.00    -0.082 HD
ENDROOT
BRANCH  12  21
ATOM     21  C   UNL     1       1.340  -6.252   0.530  0.00  0.00    -0.047 C 
BRANCH  21  22
ATOM     22  C   UNL     1       0.007  -6.991   0.399  0.00  0.00    +0.102 C 
BRANCH  22  23
ATOM     23  O   UNL     1      -1.031  -6.211   0.995  0.00  0.00    -0.393 OA
ATOM     24  H   UNL     1      -0.896  -6.029   1.935  0.00  0.00    +0.210 HD
ENDBRANCH  22  23
BRANCH  22  25
ATOM     25  C   UNL     1       0.101  -8.343   1.110  0.00  0.00    +0.064 C 
BRANCH  25  26
ATOM     26  C   UNL     1      -1.168  -9.122   0.878  0.00  0.00    -0.045 A 
ATOM     27  C   UNL     1      -2.230  -8.990   1.753  0.00  0.00    +0.005 A 
ATOM     28  C   UNL     1      -3.394  -9.704   1.540  0.00  0.00    +0.015 A 
ATOM     29  C   UNL     1      -3.496 -10.552   0.451  0.00  0.00    +0.018 A 
ATOM     30  C   UNL     1      -2.433 -10.683  -0.424  0.00  0.00    +0.015 A 
ATOM     31  C   UNL     1      -1.271  -9.964  -0.213  0.00  0.00    +0.005 A 
ATOM     32 BR   UNL     1      -5.088 -11.530   0.160  0.00  0.00    -0.050 Br
ENDBRANCH  25  26
ENDBRANCH  22  25
ENDBRANCH  21  22
ENDBRANCH  12  21
TORSDOF 5
