REMARK  Name = ZINC36586044
REMARK  14 active torsions:
REMARK  status: ('A' for Active; 'I' for Inactive)
REMARK    1  A    between atoms: C_1  and  C_2
REMARK    2  A    between atoms: C_2  and  C_3
REMARK    3  A    between atoms: C_3  and  C_4
REMARK    4  A    between atoms: C_4  and  N_5
REMARK    5  A    between atoms: C_6  and  C_8
REMARK    6  A    between atoms: C_8  and  C_10
REMARK    7  A    between atoms: C_8  and  N_17
REMARK    8  A    between atoms: C_13  and  O_16
REMARK    9  A    between atoms: N_17  and  C_28
REMARK   10  A    between atoms: C_18  and  C_20
REMARK   11  A    between atoms: C_21  and  C_22
REMARK   12  A    between atoms: C_28  and  C_29
REMARK   13  A    between atoms: C_28  and  C_30
REMARK   14  A    between atoms: C_28  and  C_31
REMARK                            x       y       z     vdW  Elec       q    Type
REMARK                         _______ _______ _______ _____ _____    ______ ____
ROOT
ATOM      1  C   UNL     1       2.773  -4.403  -4.159  0.00  0.00    +0.194 C 
ENDROOT
BRANCH   1   2
ATOM      2  C   UNL     1       4.199  -4.046  -4.492  0.00  0.00    -0.018 A 
ATOM      3  C   UNL     1       5.240  -4.744  -3.907  0.00  0.00    +0.009 A 
ATOM      4  C   UNL     1       6.548  -4.418  -4.210  0.00  0.00    +0.046 A 
ATOM      5  C   UNL     1       6.816  -3.390  -5.102  0.00  0.00    +0.117 A 
ATOM      6  C   UNL     1       5.770  -2.692  -5.688  0.00  0.00    +0.046 A 
ATOM      7  C   UNL     1       4.464  -3.025  -5.385  0.00  0.00    +0.009 A 
BRANCH   5   8
ATOM      8  O   UNL     1       8.102  -3.067  -5.402  0.00  0.00    -0.507 OA
ATOM      9  H   UNL     1       8.463  -3.551  -6.157  0.00  0.00    +0.292 HD
ENDBRANCH   5   8
ENDBRANCH   1   2
BRANCH   1  11
ATOM     10  N   UNL     1       1.926  -2.093  -3.906  0.00  0.00    -0.313 N 
ATOM     11  C   UNL     1       2.155  -3.297  -3.344  0.00  0.00    +0.238 C 
ATOM     12  O   UNL     1       1.864  -3.489  -2.183  0.00  0.00    -0.273 OA
ATOM     13  H   UNL     1       2.159  -1.940  -4.835  0.00  0.00    +0.149 HD
BRANCH  10  14
ATOM     14  C   UNL     1       1.325  -1.017  -3.114  0.00  0.00    +0.104 C 
BRANCH  14  15
ATOM     15  C   UNL     1       1.174   0.233  -3.983  0.00  0.00    +0.018 C 
BRANCH  15  17
ATOM     16  C   UNL     1       0.396   2.607  -4.025  0.00  0.00    +0.004 C 
ATOM     17  C   UNL     1       0.547   1.357  -3.156  0.00  0.00    -0.002 C 
ENDBRANCH  15  17
ENDBRANCH  14  15
ENDBRANCH  10  14
ENDBRANCH   1  11
BRANCH   1  18
ATOM     18  N   UNL     1       2.749  -5.649  -3.388  0.00  0.00    -0.270 N 
ATOM     19  C   UNL     1       3.299  -5.691  -2.159  0.00  0.00    +0.293 C 
ATOM     20  O   UNL     1       3.893  -4.723  -1.724  0.00  0.00    -0.260 OA
BRANCH  18  21
ATOM     21  C   UNL     1       2.127  -6.849  -3.954  0.00  0.00    +0.031 C 
ATOM     22  C   UNL     1       1.664  -6.557  -5.383  0.00  0.00    +0.031 C 
ATOM     23  C   UNL     1       3.144  -7.991  -3.971  0.00  0.00    +0.031 C 
ATOM     24  C   UNL     1       0.923  -7.250  -3.100  0.00  0.00    +0.031 C 
ENDBRANCH  18  21
BRANCH  19  25
ATOM     25  C   UNL     1       3.184  -6.877  -1.363  0.00  0.00    -0.003 C 
ATOM     26  C   UNL     1       3.090  -7.849  -0.711  0.00  0.00    -0.057 C 
BRANCH  26  27
ATOM     27  C   UNL     1       2.975  -9.034   0.084  0.00  0.00    +0.025 A 
ATOM     28  C   UNL     1       2.298 -10.152  -0.414  0.00  0.00    +0.017 A 
ATOM     29  C   UNL     1       2.192 -11.290   0.357  0.00  0.00    +0.001 A 
ATOM     30  C   UNL     1       2.754 -11.327   1.622  0.00  0.00    +0.000 A 
ATOM     31  C   UNL     1       3.425 -10.225   2.122  0.00  0.00    +0.001 A 
ATOM     32  C   UNL     1       3.545  -9.082   1.360  0.00  0.00    +0.017 A 
ENDBRANCH  26  27
ENDBRANCH  19  25
ENDBRANCH   1  18
TORSDOF 10
