REMARK  Name = ZINC58357717
REMARK  7 active torsions:
REMARK  status: ('A' for Active; 'I' for Inactive)
REMARK    1  A    between atoms: C_1  and  C_2
REMARK    2  A    between atoms: C_2  and  C_17
REMARK    3  A    between atoms: C_3  and  C_4
REMARK    4  A    between atoms: N_6  and  C_7
REMARK    5  A    between atoms: N_10  and  C_13
REMARK    6  A    between atoms: C_13  and  C_14
REMARK    7  A    between atoms: C_20  and  C_23
REMARK                            x       y       z     vdW  Elec       q    Type
REMARK                         _______ _______ _______ _____ _____    ______ ____
ROOT
ATOM      1  C   UNL     1       0.042  -2.148   1.158  0.00  0.00    +0.237 C 
ATOM      2  O   UNL     1       0.040  -2.751   0.101  0.00  0.00    -0.271 OA
ATOM      3  N   UNL     1       0.062  -2.829   2.321  0.00  0.00    -0.309 N 
ATOM      4  H   UNL     1       0.064  -2.348   3.164  0.00  0.00    +0.149 HD
ENDROOT
BRANCH   3   5
ATOM      5  C   UNL     1       0.082  -4.293   2.313  0.00  0.00    +0.070 C 
ATOM      6  C   UNL     1      -1.350  -4.824   2.208  0.00  0.00    +0.004 C 
ATOM      7  C   UNL     1      -1.328  -6.353   2.280  0.00  0.00    -0.076 C 
ATOM      8  N   UNL     1      -0.740  -6.777   3.556  0.00  0.00    +0.385 N 
ATOM      9  C   UNL     1       0.657  -6.333   3.632  0.00  0.00    -0.076 C 
ATOM     10  C   UNL     1       0.712  -4.804   3.612  0.00  0.00    +0.004 C 
ATOM     11  H   UNL     1      -1.263  -6.373   4.318  0.00  0.00    -0.081 HD
BRANCH   8  12
ATOM     12  C   UNL     1      -0.792  -8.242   3.654  0.00  0.00    +0.018 C 
BRANCH  12  13
ATOM     13  C   UNL     1      -0.302  -8.673   5.012  0.00  0.00    +0.194 C 
ATOM     14  O   UNL     1       0.056  -7.841   5.819  0.00  0.00    -0.278 OA
ATOM     15  N   UNL     1      -0.261  -9.982   5.330  0.00  0.00    -0.331 N 
ATOM     16  H   UNL     1      -0.547 -10.647   4.685  0.00  0.00    +0.145 HD
ATOM     17  H   UNL     1       0.055 -10.259   6.205  0.00  0.00    +0.145 HD
ENDBRANCH  12  13
ENDBRANCH   8  12
ENDBRANCH   3   5
BRANCH   1  20
ATOM     18  C   UNL     1      -0.018   1.503   0.010  0.00  0.00    +0.044 C 
ATOM     19  C   UNL     1       0.002  -0.004   0.002  0.00  0.00    -0.038 C 
ATOM     20  C   UNL     1       0.022  -0.684   1.166  0.00  0.00    +0.071 C 
BRANCH  19  21
ATOM     21  C   UNL     1      -0.000  -0.733  -1.277  0.00  0.00    -0.022 A 
ATOM     22  C   UNL     1       1.100  -1.515  -1.642  0.00  0.00    +0.009 A 
ATOM     23  C   UNL     1       1.091  -2.195  -2.842  0.00  0.00    +0.013 A 
ATOM     24  C   UNL     1      -0.004  -2.105  -3.683  0.00  0.00    +0.055 A 
ATOM     25  C   UNL     1      -1.097  -1.333  -3.329  0.00  0.00    +0.013 A 
ATOM     26  C   UNL     1      -1.105  -0.652  -2.130  0.00  0.00    +0.009 A 
BRANCH  24  27
ATOM     27  C   UNL     1      -0.006  -2.850  -4.993  0.00  0.00    +0.417 C 
ATOM     28  F   UNL     1      -0.550  -4.125  -4.803  0.00  0.00    -0.166 F 
ATOM     29  F   UNL     1      -0.775  -2.149  -5.928  0.00  0.00    -0.166 F 
ATOM     30  F   UNL     1       1.306  -2.969  -5.464  0.00  0.00    -0.166 F 
ENDBRANCH  24  27
ENDBRANCH  19  21
ENDBRANCH   1  20
TORSDOF 6
