REMARK  Name = ZINC25180376
REMARK  7 active torsions:
REMARK  status: ('A' for Active; 'I' for Inactive)
REMARK    1  A    between atoms: C_7  and  C_11
REMARK    2  A    between atoms: C_11  and  C_13
REMARK    3  A    between atoms: C_11  and  C_32
REMARK    4  A    between atoms: C_13  and  N_14
REMARK    5  A    between atoms: C_15  and  C_17
REMARK    6  A    between atoms: C_17  and  C_18
REMARK    7  A    between atoms: C_18  and  N_19
REMARK                            x       y       z     vdW  Elec       q    Type
REMARK                         _______ _______ _______ _____ _____    ______ ____
ROOT
ATOM      1  C   UNL     1       4.301   4.598   1.235  0.00  0.00    +0.117 C 
ENDROOT
BRANCH   1   2
ATOM      2  N   UNL     1       5.729   4.274   1.281  0.00  0.00    -0.314 N 
ATOM      3  C   UNL     1       6.489   4.726   2.298  0.00  0.00    +0.215 C 
ATOM      4  O   UNL     1       5.992   5.400   3.175  0.00  0.00    -0.276 OA
ATOM      5  H   UNL     1       6.180   3.663   0.486  0.00  0.00    +0.149 HD
BRANCH   3   6
ATOM      6  C   UNL     1       7.958   4.393   2.346  0.00  0.00    +0.117 C 
BRANCH   6   7
ATOM      7  C   UNL     1       8.584   5.021   3.593  0.00  0.00    +0.136 C 
BRANCH   7   8
ATOM      8  N   UNL     1      10.012   4.698   3.639  0.00  0.00    -0.293 N 
ATOM      9  C   UNL     1      10.928   5.545   3.033  0.00  0.00    +0.059 A 
ATOM     10  C   UNL     1      10.528   6.699   2.378  0.00  0.00    +0.027 A 
ATOM     11  C   UNL     1      11.472   7.515   1.788  0.00  0.00    +0.002 A 
ATOM     12  C   UNL     1      12.819   7.192   1.843  0.00  0.00    +0.001 A 
ATOM     13  C   UNL     1      13.237   6.048   2.490  0.00  0.00    +0.015 A 
ATOM     14  C   UNL     1      12.294   5.216   3.090  0.00  0.00    +0.063 A 
ATOM     15  C   UNL     1      12.685   3.981   3.793  0.00  0.00    +0.262 A 
ATOM     16  O   UNL     1      13.853   3.651   3.872  0.00  0.00    -0.267 OA
ATOM     17  N   UNL     1      11.713   3.226   4.350  0.00  0.00    -0.274 N 
ATOM     18  H   UNL     1      11.973   2.297   4.878  0.00  0.00    +0.173 HD
ATOM     19  C   UNL     1      10.422   3.586   4.273  0.00  0.00    +0.330 A 
ATOM     20  O   UNL     1       9.587   2.872   4.795  0.00  0.00    -0.246 OA
ENDBRANCH   7   8
ENDBRANCH   6   7
ENDBRANCH   3   6
ENDBRANCH   1   2
BRANCH   1  21
ATOM     21  C   UNL     1       3.675   3.969  -0.012  0.00  0.00    +0.069 C 
BRANCH  21  28
ATOM     22  C   UNL     1      -0.013   1.076   0.008  0.00  0.00    +0.001 A 
ATOM     23  C   UNL     1      -1.227   1.748   0.017  0.00  0.00    +0.002 A 
ATOM     24  C   UNL     1      -1.268   3.125   0.031  0.00  0.00    +0.026 A 
ATOM     25  C   UNL     1      -0.082   3.852   0.024  0.00  0.00    +0.047 A 
ATOM     26  C   UNL     1       1.146   3.166   0.008  0.00  0.00    +0.003 A 
ATOM     27  C   UNL     1       1.164   1.770   0.000  0.00  0.00    +0.010 A 
ATOM     28  C   UNL     1       2.186   4.198   0.004  0.00  0.00    -0.013 A 
ATOM     29  C   UNL     1       1.560   5.385   0.016  0.00  0.00    +0.088 A 
ATOM     30  N   UNL     1       0.205   5.198   0.028  0.00  0.00    -0.360 N 
ATOM     31  H   UNL     1      -0.612   5.934   0.040  0.00  0.00    +0.165 HD
ENDBRANCH  21  28
BRANCH  21  32
ATOM     32  C   UNL     1       4.268   4.602  -1.244  0.00  0.00    -0.020 A 
ATOM     33  C   UNL     1       4.136   5.962  -1.455  0.00  0.00    +0.006 A 
ATOM     34  C   UNL     1       4.679   6.542  -2.586  0.00  0.00    +0.000 A 
ATOM     35  C   UNL     1       5.355   5.763  -3.507  0.00  0.00    +0.001 A 
ATOM     36  C   UNL     1       5.487   4.404  -3.297  0.00  0.00    +0.020 A 
ATOM     37  C   UNL     1       4.948   3.823  -2.163  0.00  0.00    +0.045 A 
ATOM     38 CL   UNL     1       5.120   2.116  -1.896  0.00  0.00    -0.083 Cl
ENDBRANCH  21  32
ENDBRANCH   1  21
TORSDOF 7
