REMARK  Name = ZINC14470938
REMARK  5 active torsions:
REMARK  status: ('A' for Active; 'I' for Inactive)
REMARK    1  A    between atoms: C_5  and  C_7
REMARK    2  A    between atoms: N_9  and  C_10
REMARK    3  A    between atoms: C_10  and  C_11
REMARK    4  A    between atoms: C_18  and  C_27
REMARK    5  A    between atoms: C_31  and  N_33
REMARK                            x       y       z     vdW  Elec       q    Type
REMARK                         _______ _______ _______ _____ _____    ______ ____
ROOT
ATOM      1  C   UNL     1      -3.673   4.506  -1.173  0.00  0.00    +0.001 A 
ATOM      2  C   UNL     1      -2.783   3.602  -0.617  0.00  0.00    +0.006 A 
ATOM      3  C   UNL     1      -1.443   3.903  -0.513  0.00  0.00    -0.019 A 
ATOM      4  C   UNL     1      -0.950   5.124  -0.982  0.00  0.00    +0.044 A 
ATOM      5  C   UNL     1      -1.863   6.041  -1.542  0.00  0.00    +0.058 A 
ATOM      6  C   UNL     1      -3.217   5.723  -1.631  0.00  0.00    +0.015 A 
ATOM      7  N   UNL     1       0.384   5.494  -0.938  0.00  0.00    -0.336 N 
ATOM      8  C   UNL     1       1.310   4.570  -0.265  0.00  0.00    +0.105 C 
ATOM      9  C   UNL     1       0.879   3.164  -0.629  0.00  0.00    +0.029 C 
ATOM     10  C   UNL     1      -0.481   2.967   0.111  0.00  0.00    +0.049 C 
ATOM     11  C   UNL     1      -0.666   1.495   0.082  0.00  0.00    -0.023 C 
ATOM     12  C   UNL     1       0.531   0.920   0.056  0.00  0.00    -0.030 C 
ATOM     13  C   UNL     1       1.624   1.992   0.019  0.00  0.00    +0.033 C 
ATOM     14  H   UNL     1       0.722   5.739  -1.857  0.00  0.00    +0.147 HD
ENDROOT
BRANCH   8  15
ATOM     15  C   UNL     1       1.232   4.761   1.228  0.00  0.00    -0.025 A 
ATOM     16  C   UNL     1       2.301   4.402   2.027  0.00  0.00    +0.007 A 
ATOM     17  C   UNL     1       2.230   4.577   3.396  0.00  0.00    +0.022 A 
ATOM     18  C   UNL     1       1.088   5.112   3.967  0.00  0.00    +0.071 A 
ATOM     19  C   UNL     1       0.019   5.471   3.166  0.00  0.00    +0.145 A 
ATOM     20  C   UNL     1       0.093   5.301   1.796  0.00  0.00    +0.039 A 
ATOM     21 CL   UNL     1       0.998   5.333   5.686  0.00  0.00    -0.081 Cl
BRANCH  19  22
ATOM     22  N   UNL     1      -1.202   6.044   3.775  0.00  0.00    +0.058 N 
ATOM     23  O   UNL     1      -2.144   6.360   3.070  0.00  0.00    -0.126 OA
ATOM     24  O   UNL     1      -1.266   6.199   4.982  0.00  0.00    -0.126 OA
ENDBRANCH  19  22
ENDBRANCH   8  15
BRANCH   5  25
ATOM     25  C   UNL     1      -1.383   7.344  -2.036  0.00  0.00    +0.246 C 
ATOM     26  O   UNL     1      -0.203   7.626  -1.960  0.00  0.00    -0.270 OA
ATOM     27  N   UNL     1      -2.253   8.223  -2.572  0.00  0.00    -0.309 N 
ATOM     28  H   UNL     1      -3.195   7.999  -2.633  0.00  0.00    +0.149 HD
BRANCH  27  29
ATOM     29  C   UNL     1      -1.776   9.518  -3.063  0.00  0.00    +0.136 C 
BRANCH  29  30
ATOM     30  C   UNL     1      -2.955  10.320  -3.618  0.00  0.00    +0.135 C 
ATOM     31  C   UNL     1      -2.446  11.634  -4.247  0.00  0.00    +0.035 C 
ATOM     32  C   UNL     1      -3.541  12.650  -3.815  0.00  0.00    +0.031 C 
ATOM     33  C   UNL     1      -3.927  12.093  -2.422  0.00  0.00    +0.160 C 
ATOM     34  O   UNL     1      -3.851  10.665  -2.554  0.00  0.00    -0.375 OA
ENDBRANCH  29  30
ENDBRANCH  27  29
ENDBRANCH   5  25
TORSDOF 5
