REMARK  Name = ZINC63698843
REMARK  3 active torsions:
REMARK  status: ('A' for Active; 'I' for Inactive)
REMARK    1  A    between atoms: C_1  and  C_2
REMARK    2  A    between atoms: C_4  and  C_14
REMARK    3  A    between atoms: C_14  and  C_16
REMARK                            x       y       z     vdW  Elec       q    Type
REMARK                         _______ _______ _______ _____ _____    ______ ____
ROOT
ATOM      1  C   UNL     1      -1.553   1.475   2.114  0.00  0.00    +0.067 C 
ATOM      2  C   UNL     1      -1.314  -0.008   2.000  0.00  0.00    +0.064 C 
ATOM      3  C   UNL     1      -1.889  -0.796   1.121  0.00  0.00    +0.008 C 
ATOM      4  C   UNL     1      -2.728  -0.537  -0.099  0.00  0.00    +0.100 C 
ATOM      5  C   UNL     1      -1.912  -1.060  -1.293  0.00  0.00    +0.111 C 
ATOM      6  C   UNL     1      -1.148  -2.296  -0.949  0.00  0.00    +0.216 C 
ATOM      7  O   UNL     1      -0.767  -2.965  -1.886  0.00  0.00    -0.276 OA
ATOM      8  N   UNL     1      -0.832  -2.755   0.264  0.00  0.00    -0.289 N 
ATOM      9  C   UNL     1      -1.409  -2.197   1.480  0.00  0.00    +0.243 C 
ATOM     10  N   UNL     1      -0.440  -1.936   2.542  0.00  0.00    -0.160 NA
ATOM     11  N   UNL     1      -0.469  -0.722   2.788  0.00  0.00    -0.157 NA
ATOM     12  H   UNL     1      -0.196  -3.484   0.339  0.00  0.00    +0.151 HD
ENDROOT
BRANCH   4  13
ATOM     13  C   UNL     1      -2.984   0.940  -0.249  0.00  0.00    +0.171 C 
ATOM     14  O   UNL     1      -2.221   1.625  -0.898  0.00  0.00    -0.291 OA
BRANCH  13  15
ATOM     15  C   UNL     1      -4.156   1.552   0.391  0.00  0.00    +0.022 A 
ATOM     16  C   UNL     1      -5.035   0.765   1.145  0.00  0.00    +0.015 A 
ATOM     17  C   UNL     1      -6.133   1.341   1.741  0.00  0.00    +0.050 A 
ATOM     18  C   UNL     1      -6.375   2.704   1.599  0.00  0.00    +0.162 A 
ATOM     19  C   UNL     1      -5.503   3.494   0.852  0.00  0.00    +0.163 A 
ATOM     20  C   UNL     1      -4.396   2.924   0.253  0.00  0.00    +0.060 A 
ATOM     21  O   UNL     1      -5.723   4.830   0.711  0.00  0.00    -0.485 OA
ATOM     22  C   UNL     1      -7.039   5.302   1.019  0.00  0.00    +0.270 C 
ATOM     23  C   UNL     1      -7.476   4.672   2.348  0.00  0.00    +0.270 C 
ATOM     24  O   UNL     1      -7.468   3.249   2.195  0.00  0.00    -0.485 OA
ENDBRANCH  13  15
ENDBRANCH   4  13
TORSDOF 2
