REMARK  Name = ZINC55935906
REMARK  10 active torsions:
REMARK  status: ('A' for Active; 'I' for Inactive)
REMARK    1  A    between atoms: C_1  and  C_2
REMARK    2  A    between atoms: C_2  and  C_4
REMARK    3  A    between atoms: C_2  and  N_16
REMARK    4  A    between atoms: N_9  and  C_10
REMARK    5  A    between atoms: N_19  and  C_22
REMARK    6  A    between atoms: C_22  and  C_23
REMARK    7  A    between atoms: C_23  and  C_24
REMARK    8  A    between atoms: C_24  and  C_25
REMARK    9  A    between atoms: C_24  and  C_26
REMARK   10  A    between atoms: C_24  and  C_27
REMARK                            x       y       z     vdW  Elec       q    Type
REMARK                         _______ _______ _______ _____ _____    ______ ____
ROOT
ATOM      1  C   UNL     1      -0.019   1.526   0.010  0.00  0.00    +0.034 C 
ATOM      2  C   UNL     1       0.002  -0.004   0.002  0.00  0.00    +0.140 C 
ENDROOT
BRANCH   2   3
ATOM      3  C   UNL     1      -1.412  -0.526   0.013  0.00  0.00    +0.237 C 
ATOM      4  O   UNL     1      -1.790  -1.233   0.922  0.00  0.00    -0.274 OA
ATOM      5  N   UNL     1      -2.256  -0.206  -0.988  0.00  0.00    -0.239 N 
ATOM      6  C   UNL     1      -3.520  -0.672  -0.979  0.00  0.00    +0.306 C 
ATOM      7  O   UNL     1      -3.899  -1.381  -0.067  0.00  0.00    -0.252 OA
ATOM      8  N   UNL     1      -4.364  -0.353  -1.980  0.00  0.00    -0.296 N 
ATOM      9  H   UNL     1      -1.953   0.360  -1.716  0.00  0.00    +0.159 HD
ATOM     10  H   UNL     1      -4.061   0.213  -2.707  0.00  0.00    +0.151 HD
BRANCH   8  11
ATOM     11  C   UNL     1      -5.738  -0.860  -1.970  0.00  0.00    +0.074 C 
ATOM     12  C   UNL     1      -5.770  -2.260  -2.586  0.00  0.00    +0.022 C 
ATOM     13  C   UNL     1      -7.205  -2.789  -2.575  0.00  0.00    +0.002 C 
ATOM     14  C   UNL     1      -8.101  -1.853  -3.389  0.00  0.00    +0.000 C 
ATOM     15  C   UNL     1      -8.069  -0.453  -2.772  0.00  0.00    +0.002 C 
ATOM     16  C   UNL     1      -6.633   0.077  -2.783  0.00  0.00    +0.022 C 
ENDBRANCH   8  11
ENDBRANCH   2   3
BRANCH   2  17
ATOM     17  N   UNL     1       0.713  -0.491   1.192  0.00  0.00    -0.295 NA
ATOM     18  C   UNL     1       0.069  -0.010   2.423  0.00  0.00    +0.066 C 
ATOM     19  C   UNL     1       0.802  -0.586   3.637  0.00  0.00    -0.063 C 
ATOM     20  N   UNL     1       2.209  -0.167   3.603  0.00  0.00    +0.381 N 
ATOM     21  C   UNL     1       2.845  -0.675   2.380  0.00  0.00    -0.063 C 
ATOM     22  C   UNL     1       2.129  -0.100   1.156  0.00  0.00    +0.066 C 
ATOM     23  H   UNL     1       2.261   0.841   3.615  0.00  0.00    -0.082 HD
BRANCH  20  24
ATOM     24  C   UNL     1       2.908  -0.705   4.778  0.00  0.00    -0.078 C 
BRANCH  24  25
ATOM     25  C   UNL     1       4.340  -0.168   4.810  0.00  0.00    -0.013 C 
BRANCH  25  26
ATOM     26  C   UNL     1       5.068  -0.728   6.034  0.00  0.00    -0.039 C 
ATOM     27  C   UNL     1       5.098  -2.256   5.953  0.00  0.00    +0.010 C 
ATOM     28  C   UNL     1       6.500  -0.191   6.066  0.00  0.00    +0.010 C 
ATOM     29  C   UNL     1       4.334  -0.299   7.305  0.00  0.00    +0.010 C 
ENDBRANCH  25  26
ENDBRANCH  24  25
ENDBRANCH  20  24
ENDBRANCH   2  17
TORSDOF 6
