REMARK  Name = ZINC57845317
REMARK  7 active torsions:
REMARK  status: ('A' for Active; 'I' for Inactive)
REMARK    1  A    between atoms: C_1  and  C_2
REMARK    2  A    between atoms: C_2  and  C_4
REMARK    3  A    between atoms: C_2  and  N_6
REMARK    4  A    between atoms: C_4  and  N_5
REMARK    5  A    between atoms: C_9  and  C_14
REMARK    6  A    between atoms: C_17  and  O_20
REMARK    7  A    between atoms: O_20  and  C_21
REMARK                            x       y       z     vdW  Elec       q    Type
REMARK                         _______ _______ _______ _____ _____    ______ ____
ROOT
ATOM      1  N   UNL     1       0.711  -0.489   1.189  0.00  0.00    -0.223 N 
ATOM      2  C   UNL     1       0.160  -1.284   2.127  0.00  0.00    +0.248 C 
ATOM      3  O   UNL     1      -0.973  -1.716   2.148  0.00  0.00    -0.273 OA
ATOM      4  C   UNL     1       1.251  -1.527   3.151  0.00  0.00    +0.191 C 
ATOM      5  N   UNL     1       2.397  -0.769   2.621  0.00  0.00    -0.284 N 
ATOM      6  C   UNL     1       1.986  -0.203   1.472  0.00  0.00    +0.310 C 
ATOM      7  O   UNL     1       2.694   0.494   0.771  0.00  0.00    -0.252 OA
ATOM      8  H   UNL     1       3.278  -0.695   3.021  0.00  0.00    +0.151 HD
ENDROOT
BRANCH   4   9
ATOM      9  C   UNL     1       0.839  -0.997   4.500  0.00  0.00    -0.018 A 
ATOM     10  C   UNL     1       0.943   0.355   4.772  0.00  0.00    +0.009 A 
ATOM     11  C   UNL     1       0.567   0.843   6.008  0.00  0.00    +0.046 A 
ATOM     12  C   UNL     1       0.083  -0.024   6.977  0.00  0.00    +0.120 A 
ATOM     13  C   UNL     1      -0.021  -1.379   6.702  0.00  0.00    +0.046 A 
ATOM     14  C   UNL     1       0.351  -1.862   5.463  0.00  0.00    +0.009 A 
BRANCH  12  15
ATOM     15  O   UNL     1      -0.288   0.454   8.194  0.00  0.00    -0.495 OA
ATOM     16  C   UNL     1      -0.777  -0.496   9.143  0.00  0.00    +0.277 C 
ENDBRANCH  12  15
ENDBRANCH   4   9
BRANCH   1  18
ATOM     17  C   UNL     1      -0.019   1.526   0.010  0.00  0.00    +0.026 C 
ATOM     18  C   UNL     1       0.002  -0.004   0.002  0.00  0.00    +0.065 C 
BRANCH  18  19
ATOM     19  C   UNL     1       0.718  -0.497  -1.257  0.00  0.00    -0.063 C 
BRANCH  19  20
ATOM     20  N   UNL     1       0.844  -1.960  -1.207  0.00  0.00    +0.379 N 
ATOM     21  H   UNL     1       1.377  -2.224  -0.392  0.00  0.00    -0.090 HD
ATOM     22  H   UNL     1      -0.074  -2.375  -1.158  0.00  0.00    -0.090 HD
ATOM     23  H   UNL     1       1.316  -2.286  -2.037  0.00  0.00    -0.090 HD
ENDBRANCH  19  20
ENDBRANCH  18  19
ENDBRANCH   1  18
TORSDOF 5
