REMARK  Name = ZINC02258874
REMARK  8 active torsions:
REMARK  status: ('A' for Active; 'I' for Inactive)
REMARK    1  A    between atoms: C_1  and  C_2
REMARK    2  A    between atoms: C_2  and  N_3
REMARK    3  A    between atoms: N_8  and  C_18
REMARK    4  A    between atoms: N_11  and  C_12
REMARK    5  A    between atoms: C_12  and  N_63
REMARK    6  A    between atoms: C_18  and  C_19
REMARK    7  A    between atoms: N_20  and  C_23
REMARK    8  A    between atoms: C_23  and  N_65
REMARK                            x       y       z     vdW  Elec       q    Type
REMARK                         _______ _______ _______ _____ _____    ______ ____
ROOT
ATOM      1  N   UNL     1       0.375   1.799  -0.415  0.00  0.00    -0.264 N 
ATOM      2  C   UNL     1       1.797   2.081  -0.176  0.00  0.00    +0.206 C 
ATOM      3  C   UNL     1       2.460   0.680  -0.219  0.00  0.00    +0.206 C 
ATOM      4  N   UNL     1       2.949   0.485   1.153  0.00  0.00    -0.264 N 
ATOM      5  C   UNL     1       2.642   1.560   1.891  0.00  0.00    +0.306 C 
ATOM      6  O   UNL     1       2.932   1.661   3.067  0.00  0.00    -0.252 OA
ATOM      7  N   UNL     1       1.988   2.513   1.216  0.00  0.00    -0.280 N 
ATOM      8  N   UNL     1       1.335  -0.229  -0.477  0.00  0.00    -0.280 N 
ATOM      9  C   UNL     1       0.204   0.481  -0.574  0.00  0.00    +0.306 C 
ATOM     10  O   UNL     1      -0.880  -0.026  -0.786  0.00  0.00    -0.252 OA
ENDROOT
BRANCH   1  12
ATOM     11  C   UNL     1      -0.777   3.367  -1.897  0.00  0.00    +0.024 C 
ATOM     12  C   UNL     1      -0.689   2.805  -0.477  0.00  0.00    +0.108 C 
ENDBRANCH   1  12
BRANCH   4  13
ATOM     13  C   UNL     1       3.660  -0.700   1.639  0.00  0.00    +0.108 C 
ATOM     14  C   UNL     1       5.168  -0.468   1.534  0.00  0.00    +0.024 C 
ENDBRANCH   4  13
BRANCH   7  15
ATOM     15  C   UNL     1       1.535   3.789   1.776  0.00  0.00    +0.036 C 
BRANCH  15  21
ATOM     16  C   UNL     1       3.652   4.884   2.196  0.00  0.00    -0.077 C 
ATOM     17  C   UNL     1       4.641   5.912   1.642  0.00  0.00    -0.019 C 
ATOM     18  C   UNL     1       3.980   7.293   1.627  0.00  0.00    -0.004 C 
ATOM     19  C   UNL     1       2.702   7.229   0.786  0.00  0.00    -0.019 C 
ATOM     20  C   UNL     1       1.769   6.163   1.365  0.00  0.00    -0.077 C 
ATOM     21  N   UNL     1       2.455   4.854   1.328  0.00  0.00    +0.390 N 
ATOM     22  H   UNL     1       2.748   4.658   0.364  0.00  0.00    -0.080 HD
ENDBRANCH  15  21
ENDBRANCH   7  15
BRANCH   8  23
ATOM     23  C   UNL     1       1.436  -1.685  -0.610  0.00  0.00    +0.036 C 
BRANCH  23  29
ATOM     24  C   UNL     1       0.927  -1.967  -2.960  0.00  0.00    -0.077 C 
ATOM     25  C   UNL     1       1.552  -2.178  -4.341  0.00  0.00    -0.019 C 
ATOM     26  C   UNL     1       2.258  -3.536  -4.375  0.00  0.00    -0.004 C 
ATOM     27  C   UNL     1       3.312  -3.582  -3.266  0.00  0.00    -0.019 C 
ATOM     28  C   UNL     1       2.637  -3.331  -1.916  0.00  0.00    -0.077 C 
ATOM     29  N   UNL     1       1.997  -1.999  -1.940  0.00  0.00    +0.390 N 
ATOM     30  H   UNL     1       2.705  -1.294  -2.178  0.00  0.00    -0.080 HD
ENDBRANCH  23  29
ENDBRANCH   8  23
TORSDOF 6
