REMARK  Name = ZINC04623659
REMARK  5 active torsions:
REMARK  status: ('A' for Active; 'I' for Inactive)
REMARK    1  A    between atoms: C_1  and  O_2
REMARK    2  A    between atoms: O_2  and  C_3
REMARK    3  A    between atoms: C_5  and  C_27
REMARK    4  A    between atoms: C_10  and  C_19
REMARK    5  A    between atoms: C_22  and  C_25
REMARK                            x       y       z     vdW  Elec       q    Type
REMARK                         _______ _______ _______ _____ _____    ______ ____
ROOT
ATOM      1  C   UNL     1      -3.506   1.031   1.466  0.00  0.00    +0.142 A 
ATOM      2  C   UNL     1      -4.530   0.318   0.882  0.00  0.00    +0.062 A 
ATOM      3  C   UNL     1      -5.722   0.119   1.587  0.00  0.00    +0.067 A 
ATOM      4  C   UNL     1      -5.866   0.653   2.867  0.00  0.00    +0.021 A 
ATOM      5  C   UNL     1      -4.838   1.374   3.451  0.00  0.00    -0.015 A 
ATOM      6  C   UNL     1      -3.656   1.567   2.752  0.00  0.00    +0.074 A 
ATOM      7  N   UNL     1      -2.591   2.288   3.283  0.00  0.00    -0.334 N 
ATOM      8  C   UNL     1      -2.586   2.277   4.745  0.00  0.00    +0.105 C 
ATOM      9  C   UNL     1      -3.907   2.851   5.263  0.00  0.00    +0.029 C 
ATOM     10  C   UNL     1      -5.059   1.918   4.832  0.00  0.00    +0.049 C 
ATOM     11  C   UNL     1      -5.033   0.804   5.854  0.00  0.00    -0.023 C 
ATOM     12  C   UNL     1      -4.417   1.195   6.942  0.00  0.00    -0.030 C 
ATOM     13  C   UNL     1      -3.950   2.631   6.802  0.00  0.00    +0.033 C 
ATOM     14  H   UNL     1      -1.712   1.957   2.915  0.00  0.00    +0.147 HD
ENDROOT
BRANCH   8  15
ATOM     15  C   UNL     1      -2.427   0.861   5.237  0.00  0.00    -0.027 A 
ATOM     16  C   UNL     1      -1.970   0.626   6.522  0.00  0.00    +0.006 A 
ATOM     17  C   UNL     1      -1.826  -0.667   6.980  0.00  0.00    +0.015 A 
ATOM     18  C   UNL     1      -2.133  -1.740   6.140  0.00  0.00    +0.063 A 
ATOM     19  C   UNL     1      -2.588  -1.495   4.843  0.00  0.00    +0.015 A 
ATOM     20  C   UNL     1      -2.732  -0.197   4.400  0.00  0.00    +0.006 A 
BRANCH  18  21
ATOM     21  C   UNL     1      -1.976  -3.128   6.622  0.00  0.00    +0.387 C 
ATOM     22  O   UNL     1      -2.244  -4.059   5.889  0.00  0.00    -0.241 OA
ATOM     23  O   UNL     1      -1.537  -3.361   7.874  0.00  0.00    -0.241 OA
ENDBRANCH  18  21
ENDBRANCH   8  15
BRANCH   3  24
ATOM     24  C   UNL     1      -6.824  -0.646   0.977  0.00  0.00    +0.387 C 
ATOM     25  O   UNL     1      -7.860  -0.812   1.589  0.00  0.00    -0.241 OA
ATOM     26  O   UNL     1      -6.682  -1.161  -0.261  0.00  0.00    -0.241 OA
ENDBRANCH   3  24
BRANCH   1  28
ATOM     27  C   UNL     1      -2.254   0.650  -0.520  0.00  0.00    +0.277 C 
ATOM     28  O   UNL     1      -2.343   1.221   0.786  0.00  0.00    -0.493 OA
ENDBRANCH   1  28
TORSDOF 4
