REMARK  Name = ZINC65129437
REMARK  7 active torsions:
REMARK  status: ('A' for Active; 'I' for Inactive)
REMARK    1  A    between atoms: C_4  and  O_7
REMARK    2  A    between atoms: O_7  and  C_8
REMARK    3  A    between atoms: C_8  and  C_9
REMARK    4  A    between atoms: C_9  and  N_10
REMARK    5  A    between atoms: C_17  and  S_20
REMARK    6  A    between atoms: S_20  and  N_23
REMARK    7  A    between atoms: N_26  and  C_29
REMARK                            x       y       z     vdW  Elec       q    Type
REMARK                         _______ _______ _______ _____ _____    ______ ____
ROOT
ATOM      1  N   UNL     1       5.791  -2.112   1.301  0.00  0.00    -0.209 N 
ATOM      2  C   UNL     1       5.822  -2.805   2.458  0.00  0.00    +0.351 A 
ATOM      3  O   UNL     1       5.161  -3.796   2.719  0.00  0.00    -0.244 OA
ATOM      4  N   UNL     1       6.714  -2.209   3.275  0.00  0.00    -0.249 N 
ATOM      5  C   UNL     1       7.125  -2.503   4.553  0.00  0.00    +0.098 A 
ATOM      6  C   UNL     1       8.046  -1.742   5.169  0.00  0.00    +0.020 A 
ATOM      7  C   UNL     1       8.609  -0.626   4.516  0.00  0.00    +0.034 A 
ATOM      8  C   UNL     1       8.221  -0.315   3.255  0.00  0.00    +0.150 A 
ATOM      9  C   UNL     1       7.248  -1.121   2.610  0.00  0.00    +0.188 A 
ATOM     10  N   UNL     1       6.704  -1.055   1.417  0.00  0.00    -0.147 NA
ENDROOT
BRANCH   8  11
ATOM     11  S   UNL     1       8.915   1.076   2.428  0.00  0.00    +0.064 S 
ATOM     12  O   UNL     1      10.017   1.509   3.214  0.00  0.00    -0.153 OA
ATOM     13  O   UNL     1       9.052   0.710   1.062  0.00  0.00    -0.153 OA
BRANCH  11  14
ATOM     14  N   UNL     1       7.790   2.290   2.482  0.00  0.00    -0.173 NA
ATOM     15  C   UNL     1       6.726   2.369   1.471  0.00  0.00    +0.128 C 
ATOM     16  C   UNL     1       5.370   2.393   2.188  0.00  0.00    +0.122 C 
ATOM     17  N   UNL     1       5.417   3.410   3.247  0.00  0.00    -0.327 N 
ATOM     18  C   UNL     1       6.482   3.332   4.258  0.00  0.00    +0.122 C 
ATOM     19  C   UNL     1       7.834   3.304   3.544  0.00  0.00    +0.128 C 
BRANCH  17  20
ATOM     20  C   UNL     1       4.467   4.435   3.293  0.00  0.00    +0.030 A 
ATOM     21  C   UNL     1       4.589   5.456   4.227  0.00  0.00    +0.026 A 
ATOM     22  C   UNL     1       3.650   6.467   4.269  0.00  0.00    +0.040 A 
ATOM     23  C   UNL     1       2.587   6.464   3.382  0.00  0.00    +0.124 A 
ATOM     24  C   UNL     1       2.463   5.448   2.450  0.00  0.00    +0.040 A 
ATOM     25  C   UNL     1       3.403   4.437   2.401  0.00  0.00    +0.026 A 
ATOM     26  F   UNL     1       1.669   7.454   3.426  0.00  0.00    -0.205 F 
ENDBRANCH  17  20
ENDBRANCH  11  14
ENDBRANCH   8  11
BRANCH   1  27
ATOM     27  C   UNL     1       4.959  -2.413   0.134  0.00  0.00    +0.190 C 
BRANCH  27  28
ATOM     28  C   UNL     1       5.705  -3.378  -0.789  0.00  0.00    +0.252 C 
BRANCH  28  29
ATOM     29  O   UNL     1       5.887  -4.629  -0.123  0.00  0.00    -0.490 OA
BRANCH  29  33
ATOM     30  C   UNL     1       8.127  -7.486  -2.083  0.00  0.00    +0.000 A 
ATOM     31  C   UNL     1       7.686  -7.719  -0.793  0.00  0.00    +0.004 A 
ATOM     32  C   UNL     1       6.936  -6.764  -0.135  0.00  0.00    +0.045 A 
ATOM     33  C   UNL     1       6.625  -5.570  -0.768  0.00  0.00    +0.121 A 
ATOM     34  C   UNL     1       7.069  -5.338  -2.062  0.00  0.00    +0.045 A 
ATOM     35  C   UNL     1       7.818  -6.297  -2.717  0.00  0.00    +0.004 A 
ENDBRANCH  29  33
ENDBRANCH  28  29
ENDBRANCH  27  28
ENDBRANCH   1  27
TORSDOF 7
