REMARK  Name = ZINC65266040
REMARK  7 active torsions:
REMARK  status: ('A' for Active; 'I' for Inactive)
REMARK    1  A    between atoms: C_1  and  C_2
REMARK    2  A    between atoms: C_7  and  S_8
REMARK    3  A    between atoms: S_8  and  N_11
REMARK    4  A    between atoms: N_26  and  C_27
REMARK    5  A    between atoms: C_27  and  C_28
REMARK    6  A    between atoms: C_27  and  C_29
REMARK    7  A    between atoms: C_27  and  C_30
REMARK                            x       y       z     vdW  Elec       q    Type
REMARK                         _______ _______ _______ _____ _____    ______ ____
ROOT
ATOM      1  N   UNL     1      -0.645   2.759   2.017  0.00  0.00    -0.174 NA
ATOM      2  C   UNL     1       0.209   1.817   2.763  0.00  0.00    +0.112 C 
ATOM      3  C   UNL     1       1.646   2.076   2.238  0.00  0.00    +0.048 C 
ATOM      4  C   UNL     1       1.619   3.599   2.013  0.00  0.00    +0.089 C 
ATOM      5  C   UNL     1       0.185   3.885   1.555  0.00  0.00    +0.139 C 
ATOM      6  C   UNL     1       2.625   4.028   0.999  0.00  0.00    +0.095 C 
ATOM      7  N   UNL     1       3.871   4.363   1.471  0.00  0.00    -0.303 N 
ATOM      8  C   UNL     1       4.115   5.680   1.849  0.00  0.00    +0.037 A 
ATOM      9  C   UNL     1       5.284   6.312   1.448  0.00  0.00    +0.023 A 
ATOM     10  C   UNL     1       5.536   7.613   1.833  0.00  0.00    +0.002 A 
ATOM     11  C   UNL     1       4.616   8.279   2.622  0.00  0.00    +0.000 A 
ATOM     12  C   UNL     1       3.453   7.653   3.016  0.00  0.00    +0.007 A 
ATOM     13  C   UNL     1       3.178   6.345   2.630  0.00  0.00    -0.012 A 
ATOM     14  C   UNL     1       1.862   5.764   3.081  0.00  0.00    +0.119 C 
ATOM     15  N   UNL     1       1.920   4.310   3.276  0.00  0.00    -0.299 NA
ATOM     16  N   UNL     1       2.338   4.082  -0.261  0.00  0.00    -0.370 N 
ATOM     17  H   UNL     1       1.294   4.019   4.013  0.00  0.00    +0.123 HD
ATOM     18  H   UNL     1       1.429   3.924  -0.559  0.00  0.00    +0.161 HD
ATOM     19  H   UNL     1       4.569   3.693   1.539  0.00  0.00    +0.153 HD
ENDROOT
BRANCH  16  20
ATOM     20  C   UNL     1       3.388   4.383  -1.238  0.00  0.00    +0.031 C 
ATOM     21  C   UNL     1       4.549   3.404  -1.057  0.00  0.00    +0.033 C 
ATOM     22  C   UNL     1       2.821   4.246  -2.653  0.00  0.00    +0.033 C 
ATOM     23  C   UNL     1       3.888   5.813  -1.025  0.00  0.00    +0.033 C 
ENDBRANCH  16  20
BRANCH   1  24
ATOM     24  S   UNL     1      -2.268   2.579   1.738  0.00  0.00    +0.061 S 
ATOM     25  O   UNL     1      -2.755   3.851   1.333  0.00  0.00    -0.153 OA
ATOM     26  O   UNL     1      -2.797   1.881   2.857  0.00  0.00    -0.153 OA
BRANCH  24  33
ATOM     27  C   UNL     1      -1.330   3.255  -1.056  0.00  0.00    +0.046 C 
ATOM     28  C   UNL     1      -1.981   1.905  -0.892  0.00  0.00    -0.024 A 
ATOM     29  C   UNL     1      -2.111   1.064  -1.981  0.00  0.00    +0.008 A 
ATOM     30  C   UNL     1      -2.707  -0.174  -1.831  0.00  0.00    +0.039 A 
ATOM     31  C   UNL     1      -3.174  -0.571  -0.589  0.00  0.00    +0.125 A 
ATOM     32  C   UNL     1      -3.043   0.272   0.501  0.00  0.00    +0.067 A 
ATOM     33  C   UNL     1      -2.442   1.508   0.349  0.00  0.00    +0.111 A 
ATOM     34  F   UNL     1      -3.757  -1.781  -0.441  0.00  0.00    -0.205 F 
ENDBRANCH  24  33
ENDBRANCH   1  24
TORSDOF 3
