REMARK  Name = ZINC26600048
REMARK  3 active torsions:
REMARK  status: ('A' for Active; 'I' for Inactive)
REMARK    1  A    between atoms: N_15  and  C_18
REMARK    2  A    between atoms: C_26  and  C_29
REMARK    3  A    between atoms: C_32  and  O_35
REMARK                            x       y       z     vdW  Elec       q    Type
REMARK                         _______ _______ _______ _____ _____    ______ ____
ROOT
ATOM      1  C   UNL     1       1.552   0.496   3.551  0.00  0.00    +0.002 A 
ATOM      2  C   UNL     1       2.863   0.936   3.594  0.00  0.00    +0.001 A 
ATOM      3  C   UNL     1       3.835   0.222   2.935  0.00  0.00    +0.016 A 
ATOM      4  C   UNL     1       3.534  -0.944   2.217  0.00  0.00    +0.030 A 
ATOM      5  C   UNL     1       2.221  -1.387   2.171  0.00  0.00    +0.045 A 
ATOM      6  C   UNL     1       1.240  -0.645   2.852  0.00  0.00    +0.024 A 
ATOM      7  N   UNL     1       1.746  -2.492   1.519  0.00  0.00    -0.316 N 
ATOM      8  C   UNL     1       2.148  -3.571   0.944  0.00  0.00    +0.027 C 
ATOM      9  C   UNL     1       1.163  -4.512   0.702  0.00  0.00    +0.117 C 
ATOM     10  C   UNL     1       1.356  -5.591  -0.282  0.00  0.00    +0.258 C 
ATOM     11  O   UNL     1       2.393  -5.684  -0.912  0.00  0.00    -0.270 OA
ATOM     12  N   UNL     1       0.352  -6.474  -0.466  0.00  0.00    -0.235 N 
ATOM     13  C   UNL     1      -0.795  -6.383   0.221  0.00  0.00    +0.320 C 
ATOM     14  O   UNL     1      -1.660  -7.209   0.009  0.00  0.00    -0.251 OA
ATOM     15  N   UNL     1      -1.038  -5.428   1.130  0.00  0.00    -0.190 N 
ATOM     16  C   UNL     1      -0.122  -4.482   1.422  0.00  0.00    +0.265 C 
ATOM     17  O   UNL     1      -0.353  -3.624   2.253  0.00  0.00    -0.269 OA
ATOM     18  C   UNL     1       3.515  -3.956   0.501  0.00  0.00    +0.071 C 
ATOM     19  C   UNL     1       4.576  -3.504   1.463  0.00  0.00    +0.087 C 
ATOM     20  S   UNL     1       4.875  -1.743   1.433  0.00  0.00    -0.115 S 
ATOM     21  H   UNL     1       0.778  -2.448   1.476  0.00  0.00    +0.152 HD
ATOM     22  H   UNL     1       0.463  -7.190  -1.111  0.00  0.00    +0.159 HD
ENDROOT
BRANCH  15  23
ATOM     23  C   UNL     1      -2.271  -5.417   1.798  0.00  0.00    +0.046 A 
ATOM     24  C   UNL     1      -3.342  -4.709   1.269  0.00  0.00    +0.025 A 
ATOM     25  C   UNL     1      -4.555  -4.700   1.929  0.00  0.00    +0.022 A 
ATOM     26  C   UNL     1      -4.704  -5.395   3.116  0.00  0.00    +0.041 A 
ATOM     27  C   UNL     1      -3.638  -6.101   3.645  0.00  0.00    +0.022 A 
ATOM     28  C   UNL     1      -2.425  -6.118   2.986  0.00  0.00    +0.025 A 
ATOM     29 CL   UNL     1      -6.231  -5.381   3.943  0.00  0.00    -0.084 Cl
ENDBRANCH  15  23
BRANCH  19  30
ATOM     30  C   UNL     1       5.863  -4.213   1.127  0.00  0.00    -0.034 A 
ATOM     31  C   UNL     1       6.437  -4.048  -0.120  0.00  0.00    +0.008 A 
ATOM     32  C   UNL     1       7.616  -4.698  -0.430  0.00  0.00    +0.046 A 
ATOM     33  C   UNL     1       8.225  -5.516   0.511  0.00  0.00    +0.117 A 
ATOM     34  C   UNL     1       7.646  -5.680   1.762  0.00  0.00    +0.046 A 
ATOM     35  C   UNL     1       6.470  -5.024   2.069  0.00  0.00    +0.008 A 
BRANCH  33  36
ATOM     36  O   UNL     1       9.384  -6.156   0.208  0.00  0.00    -0.507 OA
ATOM     37  H   UNL     1      10.180  -5.651   0.423  0.00  0.00    +0.292 HD
ENDBRANCH  33  36
ENDBRANCH  19  30
TORSDOF 3
