REMARK  Name = ZINC66893733
REMARK  7 active torsions:
REMARK  status: ('A' for Active; 'I' for Inactive)
REMARK    1  A    between atoms: C_1  and  C_2
REMARK    2  A    between atoms: C_2  and  C_3
REMARK    3  A    between atoms: C_2  and  N_4
REMARK    4  A    between atoms: N_4  and  C_5
REMARK    5  A    between atoms: C_11  and  C_13
REMARK    6  A    between atoms: C_13  and  N_14
REMARK    7  A    between atoms: C_19  and  C_21
REMARK                            x       y       z     vdW  Elec       q    Type
REMARK                         _______ _______ _______ _____ _____    ______ ____
ROOT
ATOM      1  N   UNL     1      -3.016   1.025   3.184  0.00  0.00    +0.393 N 
ATOM      2  C   UNL     1      -3.223  -0.243   3.893  0.00  0.00    -0.077 C 
ATOM      3  C   UNL     1      -4.390  -0.101   4.873  0.00  0.00    -0.019 C 
ATOM      4  C   UNL     1      -4.069   1.005   5.883  0.00  0.00    -0.003 C 
ATOM      5  C   UNL     1      -3.783   2.306   5.128  0.00  0.00    -0.006 C 
ATOM      6  C   UNL     1      -2.638   2.074   4.139  0.00  0.00    +0.020 C 
ATOM      7  H   UNL     1      -3.870   1.289   2.717  0.00  0.00    -0.080 HD
ENDROOT
BRANCH   6   8
ATOM      8  C   UNL     1      -2.352   3.352   3.393  0.00  0.00    +0.202 C 
ATOM      9  O   UNL     1      -2.863   3.550   2.311  0.00  0.00    -0.277 OA
ATOM     10  N   UNL     1      -1.529   4.275   3.929  0.00  0.00    -0.298 N 
ATOM     11  C   UNL     1      -0.809   4.010   5.184  0.00  0.00    +0.136 C 
ATOM     12  C   UNL     1       0.674   4.333   4.968  0.00  0.00    +0.179 C 
ATOM     13  O   UNL     1       0.795   5.653   4.433  0.00  0.00    -0.377 OA
ATOM     14  C   UNL     1       0.185   5.823   3.152  0.00  0.00    +0.179 C 
ATOM     15  C   UNL     1      -1.319   5.574   3.272  0.00  0.00    +0.136 C 
ENDBRANCH   6   8
BRANCH   1  16
ATOM     16  C   UNL     1      -1.947   0.860   2.191  0.00  0.00    +0.020 C 
BRANCH  16  18
ATOM     17  N   UNL     1      -1.537  -0.497   0.164  0.00  0.00    -0.270 N 
ATOM     18  C   UNL     1      -2.399  -0.100   1.121  0.00  0.00    +0.203 C 
ATOM     19  O   UNL     1      -3.538  -0.516   1.121  0.00  0.00    -0.277 OA
BRANCH  17  20
ATOM     20  C   UNL     1      -1.981  -1.312  -0.884  0.00  0.00    +0.036 A 
ATOM     21  C   UNL     1      -1.137  -1.596  -1.950  0.00  0.00    +0.023 A 
ATOM     22  C   UNL     1      -1.579  -2.400  -2.982  0.00  0.00    +0.002 A 
ATOM     23  C   UNL     1      -2.859  -2.922  -2.955  0.00  0.00    +0.000 A 
ATOM     24  C   UNL     1      -3.701  -2.641  -1.895  0.00  0.00    +0.002 A 
ATOM     25  C   UNL     1      -3.264  -1.841  -0.857  0.00  0.00    +0.023 A 
ENDBRANCH  17  20
BRANCH  17  27
ATOM     26  C   UNL     1       0.770  -1.309   0.164  0.00  0.00    +0.028 C 
ATOM     27  C   UNL     1      -0.135  -0.077   0.221  0.00  0.00    +0.075 C 
ATOM     28  C   UNL     1       0.173   0.837  -0.967  0.00  0.00    +0.028 C 
ENDBRANCH  17  27
ENDBRANCH  16  18
ENDBRANCH   1  16
TORSDOF 5
