REMARK  Name = ZINC05105821
REMARK  8 active torsions:
REMARK  status: ('A' for Active; 'I' for Inactive)
REMARK    1  A    between atoms: C_1  and  C_2
REMARK    2  A    between atoms: C_2  and  O_3
REMARK    3  A    between atoms: O_3  and  C_4
REMARK    4  A    between atoms: C_17  and  C_20
REMARK    5  A    between atoms: N_22  and  C_23
REMARK    6  A    between atoms: C_24  and  C_31
REMARK    7  A    between atoms: C_26  and  C_30
REMARK    8  A    between atoms: C_28  and  C_29
REMARK                            x       y       z     vdW  Elec       q    Type
REMARK                         _______ _______ _______ _____ _____    ______ ____
ROOT
ATOM      1  C   UNL     1      -5.029   2.903   6.900  0.00  0.00    +0.122 A 
ATOM      2  C   UNL     1      -3.786   2.279   6.928  0.00  0.00    +0.048 A 
ATOM      3  C   UNL     1      -3.064   2.073   5.781  0.00  0.00    +0.032 A 
ATOM      4  C   UNL     1      -3.563   2.492   4.526  0.00  0.00    +0.081 A 
ATOM      5  C   UNL     1      -4.828   3.122   4.534  0.00  0.00    +0.044 A 
ATOM      6  C   UNL     1      -5.548   3.326   5.685  0.00  0.00    +0.063 A 
ATOM      7  S   UNL     1      -5.083   3.482   2.813  0.00  0.00    -0.052 S 
ATOM      8  C   UNL     1      -3.546   2.797   2.210  0.00  0.00    +0.162 A 
ATOM      9  N   UNL     1      -2.982   2.361   3.312  0.00  0.00    -0.225 NA
ATOM     10  N   UNL     1      -3.075   2.736   0.913  0.00  0.00    -0.309 N 
ATOM     11  C   UNL     1      -4.037   2.058   0.035  0.00  0.00    +0.107 C 
ATOM     12  C   UNL     1      -3.551   2.138  -1.414  0.00  0.00    +0.020 C 
ATOM     13  C   UNL     1      -2.176   1.474  -1.523  0.00  0.00    +0.016 C 
ATOM     14  C   UNL     1      -1.206   2.167  -0.563  0.00  0.00    +0.093 C 
ATOM     15  C   UNL     1      -1.760   2.087   0.861  0.00  0.00    +0.119 C 
ENDROOT
BRANCH  14  16
ATOM     16  C   UNL     1       0.135   1.482  -0.621  0.00  0.00    +0.222 C 
ATOM     17  O   UNL     1       0.301   0.534  -1.360  0.00  0.00    -0.275 OA
ATOM     18  N   UNL     1       1.152   1.925   0.144  0.00  0.00    -0.285 N 
ATOM     19  H   UNL     1       1.042   2.725   0.681  0.00  0.00    +0.155 HD
BRANCH  18  20
ATOM     20  C   UNL     1       2.368   1.232   0.163  0.00  0.00    +0.039 A 
ATOM     21  C   UNL     1       3.558   1.908  -0.072  0.00  0.00    -0.029 A 
ATOM     22  C   UNL     1       4.756   1.222  -0.047  0.00  0.00    +0.008 A 
ATOM     23  C   UNL     1       4.771  -0.139   0.200  0.00  0.00    -0.050 A 
ATOM     24  C   UNL     1       3.587  -0.816   0.428  0.00  0.00    +0.008 A 
ATOM     25  C   UNL     1       2.386  -0.134   0.410  0.00  0.00    -0.029 A 
ATOM     26  C   UNL     1       1.096  -0.873   0.659  0.00  0.00    +0.045 C 
ATOM     27  C   UNL     1       6.080  -0.885   0.221  0.00  0.00    +0.044 C 
ATOM     28  C   UNL     1       3.543   3.389  -0.348  0.00  0.00    +0.045 C 
ENDBRANCH  18  20
ENDBRANCH  14  16
BRANCH   1  29
ATOM     29  O   UNL     1      -5.727   3.097   8.051  0.00  0.00    -0.492 OA
BRANCH  29  31
ATOM     30  C   UNL     1      -6.051   2.936  10.440  0.00  0.00    +0.048 C 
ATOM     31  C   UNL     1      -5.125   2.633   9.261  0.00  0.00    +0.225 C 
ENDBRANCH  29  31
ENDBRANCH   1  29
TORSDOF 4
