REMARK  Name = ZINC59921445
REMARK  8 active torsions:
REMARK  status: ('A' for Active; 'I' for Inactive)
REMARK    1  A    between atoms: C_1  and  C_2
REMARK    2  A    between atoms: C_2  and  C_3
REMARK    3  A    between atoms: C_2  and  C_4
REMARK    4  A    between atoms: C_7  and  C_10
REMARK    5  A    between atoms: N_11  and  N_12
REMARK    6  A    between atoms: C_13  and  C_15
REMARK    7  A    between atoms: N_18  and  S_21
REMARK    8  A    between atoms: S_21  and  C_24
REMARK                            x       y       z     vdW  Elec       q    Type
REMARK                         _______ _______ _______ _____ _____    ______ ____
ROOT
ATOM      1  C   UNL     1      -8.981  -4.535  -1.913  0.00  0.00    +0.079 C 
ATOM      2  C   UNL     1      -9.199  -5.388  -0.662  0.00  0.00    +0.030 C 
ATOM      3  C   UNL     1     -10.647  -5.889  -0.636  0.00  0.00    +0.110 C 
ATOM      4  N   UNL     1     -10.928  -6.586  -1.899  0.00  0.00    -0.177 NA
ATOM      5  C   UNL     1     -10.667  -5.888  -3.165  0.00  0.00    +0.110 C 
ATOM      6  C   UNL     1      -9.220  -5.387  -3.162  0.00  0.00    +0.030 C 
ENDROOT
BRANCH   1   8
ATOM      7  N   UNL     1      -7.129  -3.232  -0.917  0.00  0.00    -0.207 N 
ATOM      8  C   UNL     1      -7.567  -4.012  -1.925  0.00  0.00    +0.235 C 
ATOM      9  O   UNL     1      -6.824  -4.294  -2.841  0.00  0.00    -0.274 OA
ATOM     10  H   UNL     1      -7.724  -3.007  -0.184  0.00  0.00    +0.177 HD
BRANCH   7  12
ATOM     11  C   UNL     1      -5.393  -1.996   0.044  0.00  0.00    +0.138 C 
ATOM     12  N   UNL     1      -5.815  -2.747  -0.927  0.00  0.00    -0.188 NA
BRANCH  11  16
ATOM     13  C   UNL     1      -1.412  -0.526   0.013  0.00  0.00    -0.045 A 
ATOM     14  C   UNL     1      -2.257  -0.202   1.059  0.00  0.00    +0.004 A 
ATOM     15  C   UNL     1      -3.552  -0.676   1.076  0.00  0.00    +0.010 A 
ATOM     16  C   UNL     1      -4.010  -1.485   0.033  0.00  0.00    -0.005 A 
ATOM     17  C   UNL     1      -3.151  -1.807  -1.021  0.00  0.00    +0.010 A 
ATOM     18  C   UNL     1      -1.860  -1.321  -1.027  0.00  0.00    +0.004 A 
BRANCH  13  20
ATOM     19  C   UNL     1      -0.019   1.526   0.010  0.00  0.00    +0.012 C 
ATOM     20  C   UNL     1       0.002  -0.004   0.002  0.00  0.00    +0.013 C 
ATOM     21  C   UNL     1       0.742  -0.511   1.242  0.00  0.00    +0.012 C 
ENDBRANCH  13  20
ENDBRANCH  11  16
ENDBRANCH   7  12
ENDBRANCH   1   8
BRANCH   4  22
ATOM     22  S   UNL     1     -11.528  -8.129  -1.895  0.00  0.00    +0.061 S 
ATOM     23  O   UNL     1     -11.173  -8.707  -3.144  0.00  0.00    -0.153 OA
ATOM     24  O   UNL     1     -11.152  -8.708  -0.653  0.00  0.00    -0.153 OA
BRANCH  22  25
ATOM     25  C   UNL     1     -13.286  -8.005  -1.880  0.00  0.00    +0.106 A 
ATOM     26  C   UNL     1     -13.965  -7.951  -0.677  0.00  0.00    +0.029 A 
ATOM     27  C   UNL     1     -15.344  -7.853  -0.665  0.00  0.00    +0.017 A 
ATOM     28  C   UNL     1     -16.044  -7.809  -1.857  0.00  0.00    +0.018 A 
ATOM     29  C   UNL     1     -15.364  -7.863  -3.061  0.00  0.00    +0.017 A 
ATOM     30  C   UNL     1     -13.985  -7.955  -3.072  0.00  0.00    +0.029 A 
ATOM     31 BR   UNL     1     -17.930  -7.676  -1.841  0.00  0.00    -0.050 Br
ENDBRANCH  22  25
ENDBRANCH   4  22
TORSDOF 6
