REMARK  Name = ZINC20729427
REMARK  5 active torsions:
REMARK  status: ('A' for Active; 'I' for Inactive)
REMARK    1  A    between atoms: C_1  and  C_2
REMARK    2  A    between atoms: C_17  and  C_19
REMARK    3  A    between atoms: C_22  and  O_25
REMARK    4  A    between atoms: O_25  and  C_26
REMARK    5  A    between atoms: C_26  and  C_27
REMARK                            x       y       z     vdW  Elec       q    Type
REMARK                         _______ _______ _______ _____ _____    ______ ____
ROOT
ATOM      1  C   UNL     1      -0.018   1.503   0.010  0.00  0.00    +0.068 C 
ATOM      2  C   UNL     1       0.002  -0.004   0.002  0.00  0.00    +0.066 A 
ATOM      3  C   UNL     1       0.008  -0.810  -1.127  0.00  0.00    +0.023 A 
ATOM      4  C   UNL     1       0.032  -2.116  -0.715  0.00  0.00    +0.136 A 
ATOM      5  N   UNL     1       0.032  -2.117   0.636  0.00  0.00    -0.183 N 
ATOM      6  N   UNL     1       0.023  -0.778   1.062  0.00  0.00    -0.167 NA
ATOM      7  C   UNL     1       0.044  -3.242   1.458  0.00  0.00    +0.253 A 
ATOM      8  N   UNL     1       0.063  -4.445   0.906  0.00  0.00    -0.219 NA
ATOM      9  C   UNL     1       0.075  -5.533   1.657  0.00  0.00    +0.116 A 
ATOM     10  C   UNL     1       0.068  -5.403   3.037  0.00  0.00    +0.039 A 
ATOM     11  C   UNL     1       0.048  -4.128   3.581  0.00  0.00    +0.116 A 
ATOM     12  N   UNL     1       0.043  -3.081   2.772  0.00  0.00    -0.219 NA
ATOM     13  N   UNL     1       0.064  -3.175  -1.620  0.00  0.00    -0.270 N 
ATOM     14  C   UNL     1       0.274  -2.891  -2.923  0.00  0.00    +0.219 C 
ATOM     15  O   UNL     1       0.118  -3.767  -3.748  0.00  0.00    -0.275 OA
ATOM     16  C   UNL     1       0.694  -1.524  -3.384  0.00  0.00    +0.109 C 
ATOM     17  C   UNL     1      -0.013  -0.426  -2.585  0.00  0.00    +0.063 C 
ATOM     18  H   UNL     1      -0.062  -4.089  -1.323  0.00  0.00    +0.156 HD
ENDROOT
BRANCH  17  19
ATOM     19  C   UNL     1      -1.439  -0.295  -3.055  0.00  0.00    -0.039 A 
ATOM     20  C   UNL     1      -2.292  -1.381  -2.982  0.00  0.00    +0.008 A 
ATOM     21  C   UNL     1      -3.600  -1.263  -3.412  0.00  0.00    +0.046 A 
ATOM     22  C   UNL     1      -4.057  -0.055  -3.918  0.00  0.00    +0.122 A 
ATOM     23  C   UNL     1      -3.199   1.033  -3.990  0.00  0.00    +0.046 A 
ATOM     24  C   UNL     1      -1.894   0.912  -3.554  0.00  0.00    +0.008 A 
BRANCH  22  25
ATOM     25  O   UNL     1      -5.342   0.062  -4.343  0.00  0.00    -0.480 OA
BRANCH  25  26
ATOM     26  C   UNL     1      -5.744   1.336  -4.851  0.00  0.00    +0.317 C 
BRANCH  26  27
ATOM     27  C   UNL     1      -7.156   1.278  -5.261  0.00  0.00    -0.065 C 
ATOM     28  C   UNL     1      -8.283   1.232  -5.588  0.00  0.00    +0.007 C 
ENDBRANCH  26  27
ENDBRANCH  25  26
ENDBRANCH  22  25
ENDBRANCH  17  19
TORSDOF 4
