REMARK  Name = ZINC31290925
REMARK  11 active torsions:
REMARK  status: ('A' for Active; 'I' for Inactive)
REMARK    1  A    between atoms: C_1  and  C_2
REMARK    2  A    between atoms: C_2  and  C_3
REMARK    3  A    between atoms: C_3  and  O_5
REMARK    4  A    between atoms: O_5  and  C_6
REMARK    5  A    between atoms: C_6  and  C_33
REMARK    6  A    between atoms: C_7  and  C_32
REMARK    7  A    between atoms: C_12  and  C_31
REMARK    8  A    between atoms: C_14  and  O_30
REMARK    9  A    between atoms: C_27  and  C_28
REMARK   10  A    between atoms: C_33  and  C_35
REMARK   11  A    between atoms: C_35  and  O_36
REMARK                            x       y       z     vdW  Elec       q    Type
REMARK                         _______ _______ _______ _____ _____    ______ ____
ROOT
ATOM      1  C   UNL     1      -1.929  -4.555  -0.289  0.00  0.00    +0.181 C 
ATOM      2  C   UNL     1      -2.322  -3.120   0.144  0.00  0.00    +0.038 C 
ATOM      3  C   UNL     1      -3.434  -3.276   1.217  0.00  0.00    +0.012 C 
ATOM      4  C   UNL     1      -3.184  -4.683   1.769  0.00  0.00    +0.006 C 
ATOM      5  C   UNL     1      -2.874  -5.479   0.473  0.00  0.00    +0.021 C 
ATOM      6  C   UNL     1      -2.312  -6.822   0.895  0.00  0.00    +0.045 C 
ATOM      7  C   UNL     1      -3.429  -7.568   1.642  0.00  0.00    +0.154 C 
ATOM      8  C   UNL     1      -3.937  -6.770   2.839  0.00  0.00    +0.153 C 
ATOM      9  C   UNL     1      -4.368  -5.345   2.450  0.00  0.00    +0.034 C 
ATOM     10  C   UNL     1      -4.758  -4.554   3.700  0.00  0.00    +0.011 C 
ATOM     11  C   UNL     1      -5.977  -5.203   4.363  0.00  0.00    +0.032 C 
ATOM     12  C   UNL     1      -5.648  -6.660   4.633  0.00  0.00    -0.053 C 
ATOM     13  C   UNL     1      -5.838  -7.146   5.851  0.00  0.00    +0.051 C 
ATOM     14  C   UNL     1      -5.511  -8.548   6.156  0.00  0.00    +0.179 C 
ATOM     15  O   UNL     1      -5.721  -9.009   7.262  0.00  0.00    -0.288 OA
ATOM     16  C   UNL     1      -4.926  -9.380   5.091  0.00  0.00    +0.047 C 
ATOM     17  C   UNL     1      -4.751  -8.875   3.880  0.00  0.00    -0.009 C 
ATOM     18  C   UNL     1      -5.130  -7.498   3.464  0.00  0.00    +0.044 C 
ATOM     19  C   UNL     1      -6.222  -7.604   2.398  0.00  0.00    +0.023 C 
ATOM     20  F   UNL     1      -2.914  -6.663   3.788  0.00  0.00    -0.238 F 
ATOM     21  C   UNL     1      -4.160  -5.681  -0.331  0.00  0.00    +0.016 C 
ATOM     22  C   UNL     1      -1.110  -2.402   0.741  0.00  0.00    +0.012 C 
ENDROOT
BRANCH   7  23
ATOM     23  O   UNL     1      -4.516  -7.800   0.743  0.00  0.00    -0.389 OA
ATOM     24  H   UNL     1      -4.281  -8.330  -0.030  0.00  0.00    +0.210 HD
ENDBRANCH   7  23
BRANCH   1  25
ATOM     25  C   UNL     1      -2.117  -4.725  -1.774  0.00  0.00    +0.202 C 
ATOM     26  O   UNL     1      -2.867  -3.993  -2.375  0.00  0.00    -0.291 OA
BRANCH  25  27
ATOM     27  C   UNL     1      -1.371  -5.808  -2.510  0.00  0.00    +0.234 C 
BRANCH  27  28
ATOM     28  O   UNL     1      -1.626  -5.695  -3.911  0.00  0.00    -0.387 OA
ATOM     29  H   UNL     1      -1.176  -6.362  -4.448  0.00  0.00    +0.210 HD
ENDBRANCH  27  28
ENDBRANCH  25  27
ENDBRANCH   1  25
BRANCH   1  30
ATOM     30  O   UNL     1      -0.574  -4.827   0.072  0.00  0.00    -0.449 OA
BRANCH  30  31
ATOM     31  C   UNL     1       0.381  -4.175  -0.609  0.00  0.00    +0.308 C 
ATOM     32  O   UNL     1       0.080  -3.447  -1.525  0.00  0.00    -0.251 OA
BRANCH  31  34
ATOM     33  C   UNL     1       2.704  -3.502  -1.157  0.00  0.00    +0.015 C 
ATOM     34  C   UNL     1       1.830  -4.349  -0.231  0.00  0.00    +0.117 C 
ENDBRANCH  31  34
ENDBRANCH  30  31
ENDBRANCH   1  30
TORSDOF 7
