REMARK  Name = ZINC05100331
REMARK  6 active torsions:
REMARK  status: ('A' for Active; 'I' for Inactive)
REMARK    1  A    between atoms: C_1  and  C_2
REMARK    2  A    between atoms: C_2  and  O_3
REMARK    3  A    between atoms: O_3  and  C_4
REMARK    4  A    between atoms: C_7  and  C_11
REMARK    5  A    between atoms: C_8  and  O_10
REMARK    6  A    between atoms: C_22  and  N_46
REMARK                            x       y       z     vdW  Elec       q    Type
REMARK                         _______ _______ _______ _____ _____    ______ ____
ROOT
ATOM      1  C   UNL     1       1.224  -2.188  -0.021  0.00  0.00    +0.194 C 
ATOM      2  N   UNL     1      -0.045  -2.688   0.538  0.00  0.00    -0.316 N 
ATOM      3  C   UNL     1      -0.132  -2.756   1.905  0.00  0.00    +0.080 A 
ATOM      4  C   UNL     1       0.994  -2.850   2.738  0.00  0.00    +0.068 A 
ATOM      5  C   UNL     1       0.721  -2.922   4.162  0.00  0.00    -0.027 A 
ATOM      6  C   UNL     1      -0.586  -2.887   4.512  0.00  0.00    -0.021 A 
ATOM      7  S   UNL     1      -1.466  -2.759   2.979  0.00  0.00    -0.080 S 
ATOM      8  C   UNL     1      -1.138  -2.947   5.901  0.00  0.00    -0.036 C 
ATOM      9  C   UNL     1       1.166  -2.640   6.581  0.00  0.00    -0.074 C 
ATOM     10  C   UNL     1       1.794  -3.029   5.240  0.00  0.00    +0.018 C 
ATOM     11  C   UNL     1      -0.490  -3.328   8.208  0.00  0.00    -0.096 C 
ATOM     12  C   UNL     1       2.325  -2.866   2.089  0.00  0.00    +0.248 C 
ATOM     13  O   UNL     1       3.341  -3.058   2.732  0.00  0.00    -0.270 OA
ATOM     14  N   UNL     1       2.366  -2.657   0.757  0.00  0.00    -0.289 N 
ATOM     15  H   UNL     1      -0.783  -2.956  -0.032  0.00  0.00    +0.149 HD
ATOM     16  H   UNL     1       3.199  -2.829   0.290  0.00  0.00    +0.151 HD
ATOM     17  N   UNL     1      -0.061  -3.433   6.797  0.00  0.00    +0.381 N 
ATOM     18  H   UNL     1       0.136  -4.418   6.581  0.00  0.00    -0.082 HD
ENDROOT
BRANCH   1  22
ATOM     19  C   UNL     1       1.175   2.089   0.002  0.00  0.00    +0.124 A 
ATOM     20  C   UNL     1      -0.017   1.377   0.010  0.00  0.00    +0.046 A 
ATOM     21  C   UNL     1       0.002  -0.004   0.002  0.00  0.00    +0.014 A 
ATOM     22  C   UNL     1       1.207  -0.681  -0.013  0.00  0.00    +0.032 A 
ATOM     23  C   UNL     1       2.401   0.026  -0.021  0.00  0.00    +0.127 A 
ATOM     24  C   UNL     1       2.385   1.412  -0.013  0.00  0.00    +0.091 A 
BRANCH  23  25
ATOM     25  O   UNL     1       3.585  -0.641  -0.036  0.00  0.00    -0.506 OA
ATOM     26  H   UNL     1       3.919  -0.828  -0.924  0.00  0.00    +0.292 HD
ENDBRANCH  23  25
BRANCH  19  27
ATOM     27  O   UNL     1       1.156   3.447   0.009  0.00  0.00    -0.492 OA
BRANCH  27  29
ATOM     28  C   UNL     1       0.053   5.598   0.030  0.00  0.00    +0.048 C 
ATOM     29  C   UNL     1      -0.126   4.078   0.024  0.00  0.00    +0.225 C 
ENDBRANCH  27  29
ENDBRANCH  19  27
ENDBRANCH   1  22
TORSDOF 4
