REMARK  Name = ZINC08445428
REMARK  3 active torsions:
REMARK  status: ('A' for Active; 'I' for Inactive)
REMARK    1  A    between atoms: C_5  and  N_7
REMARK    2  A    between atoms: C_16  and  C_21
REMARK    3  A    between atoms: C_16  and  C_25
REMARK                            x       y       z     vdW  Elec       q    Type
REMARK                         _______ _______ _______ _____ _____    ______ ____
ROOT
ATOM      1  N   UNL     1       1.236  -2.083  -0.021  0.00  0.00    -0.247 N 
ATOM      2  C   UNL     1       1.253  -2.775   1.167  0.00  0.00    +0.126 A 
ATOM      3  C   UNL     1       1.274  -4.139   1.135  0.00  0.00    +0.096 A 
ATOM      4  C   UNL     1       1.278  -4.811  -0.093  0.00  0.00    +0.262 A 
ATOM      5  O   UNL     1       1.296  -6.029  -0.131  0.00  0.00    -0.267 OA
ATOM      6  N   UNL     1       1.261  -4.091  -1.235  0.00  0.00    -0.274 N 
ATOM      7  H   UNL     1       1.263  -4.546  -2.092  0.00  0.00    +0.173 HD
ATOM      8  C   UNL     1       1.234  -2.747  -1.192  0.00  0.00    +0.335 A 
ATOM      9  O   UNL     1       1.214  -2.118  -2.233  0.00  0.00    -0.246 OA
ATOM     10  C   UNL     1       1.292  -4.888   2.446  0.00  0.00    +0.260 C 
ATOM     11  N   UNL     1       1.286  -4.072   3.673  0.00  0.00    -0.274 N 
ATOM     12  C   UNL     1       1.265  -2.731   3.554  0.00  0.00    +0.306 C 
ATOM     13  O   UNL     1       1.261  -2.056   4.565  0.00  0.00    -0.252 OA
ATOM     14  N   UNL     1       1.250  -2.110   2.367  0.00  0.00    -0.255 N 
ATOM     15  H   UNL     1       1.297  -4.492   4.548  0.00  0.00    +0.152 HD
ATOM     16  H   UNL     1       1.235  -1.140   2.356  0.00  0.00    +0.158 HD
ENDROOT
BRANCH   1  21
ATOM     17  C   UNL     1      -0.017   1.377   0.010  0.00  0.00    +0.002 A 
ATOM     18  C   UNL     1       1.170   2.087   0.002  0.00  0.00    +0.003 A 
ATOM     19  C   UNL     1       2.380   1.418  -0.013  0.00  0.00    +0.040 A 
ATOM     20  C   UNL     1       2.406   0.035  -0.021  0.00  0.00    +0.147 A 
ATOM     21  C   UNL     1       1.214  -0.681  -0.013  0.00  0.00    +0.088 A 
ATOM     22  C   UNL     1       0.002  -0.004   0.002  0.00  0.00    +0.029 A 
ATOM     23  F   UNL     1       3.588  -0.620  -0.037  0.00  0.00    -0.203 F 
ENDBRANCH   1  21
BRANCH  10  24
ATOM     24  C   UNL     1       0.070  -5.808   2.482  0.00  0.00    +0.424 C 
ATOM     25  F   UNL     1       0.130  -6.706   1.412  0.00  0.00    -0.168 F 
ATOM     26  F   UNL     1       0.057  -6.519   3.688  0.00  0.00    -0.168 F 
ATOM     27  F   UNL     1      -1.095  -5.040   2.382  0.00  0.00    -0.168 F 
ENDBRANCH  10  24
BRANCH  10  28
ATOM     28  C   UNL     1       2.543  -5.770   2.469  0.00  0.00    +0.424 C 
ATOM     29  F   UNL     1       3.682  -4.966   2.356  0.00  0.00    -0.168 F 
ATOM     30  F   UNL     1       2.590  -6.480   3.674  0.00  0.00    -0.168 F 
ATOM     31  F   UNL     1       2.499  -6.670   1.399  0.00  0.00    -0.168 F 
ENDBRANCH  10  28
TORSDOF 3
