REMARK  Name = ZINC13056788
REMARK  4 active torsions:
REMARK  status: ('A' for Active; 'I' for Inactive)
REMARK    1  A    between atoms: C_1  and  C_2
REMARK    2  A    between atoms: C_3  and  C_24
REMARK    3  A    between atoms: N_9  and  C_12
REMARK    4  A    between atoms: C_12  and  C_13
REMARK                            x       y       z     vdW  Elec       q    Type
REMARK                         _______ _______ _______ _____ _____    ______ ____
ROOT
ATOM      1  C   UNL     1       5.235   4.155  -7.038  0.00  0.00    +0.087 C 
ATOM      2  C   UNL     1       5.040   3.599  -5.651  0.00  0.00    +0.119 A 
ATOM      3  C   UNL     1       4.261   4.158  -4.684  0.00  0.00    +0.118 A 
ATOM      4  C   UNL     1       4.382   3.269  -3.517  0.00  0.00    +0.119 A 
ATOM      5  C   UNL     1       5.241   2.243  -3.910  0.00  0.00    +0.235 A 
ATOM      6  O   UNL     1       5.605   2.480  -5.181  0.00  0.00    -0.441 OA
ATOM      7  N   UNL     1       5.537   1.272  -3.032  0.00  0.00    -0.202 NA
ATOM      8  C   UNL     1       5.044   1.275  -1.825  0.00  0.00    +0.206 A 
ATOM      9  N   UNL     1       4.200   2.242  -1.388  0.00  0.00    -0.294 N 
ATOM     10  C   UNL     1       3.849   3.258  -2.210  0.00  0.00    +0.266 A 
ATOM     11  O   UNL     1       3.096   4.139  -1.832  0.00  0.00    -0.267 OA
ENDROOT
BRANCH   3  12
ATOM     12  C   UNL     1       3.465   5.391  -4.784  0.00  0.00    +0.391 C 
ATOM     13  O   UNL     1       3.959   6.460  -4.484  0.00  0.00    -0.240 OA
ATOM     14  O   UNL     1       2.186   5.335  -5.208  0.00  0.00    -0.240 OA
ENDBRANCH   3  12
BRANCH   9  15
ATOM     15  C   UNL     1       3.671   2.189  -0.023  0.00  0.00    +0.165 C 
BRANCH  15  16
ATOM     16  C   UNL     1       2.377   1.416  -0.014  0.00  0.00    +0.016 A 
ATOM     17  C   UNL     1       1.171   2.089   0.002  0.00  0.00    +0.029 A 
ATOM     18  C   UNL     1      -0.017   1.379   0.010  0.00  0.00    +0.042 A 
ATOM     19  C   UNL     1       0.002  -0.004   0.002  0.00  0.00    +0.029 A 
ATOM     20  C   UNL     1       1.207  -0.681  -0.012  0.00  0.00    +0.022 A 
ATOM     21  C   UNL     1       2.398   0.028  -0.023  0.00  0.00    +0.134 A 
ATOM     22  O   UNL     1       3.591  -0.625  -0.045  0.00  0.00    -0.465 OA
ATOM     23  C   UNL     1       3.576  -2.010   0.312  0.00  0.00    +0.394 C 
ATOM     24  O   UNL     1       2.512  -2.654  -0.399  0.00  0.00    -0.339 OA
ATOM     25  C   UNL     1       1.216  -2.188  -0.012  0.00  0.00    +0.202 C 
ATOM     26 CL   UNL     1      -1.532   2.226   0.021  0.00  0.00    -0.084 Cl
ENDBRANCH  15  16
ENDBRANCH   9  15
TORSDOF 3
