REMARK  Name = ZINC38576768
REMARK  13 active torsions:
REMARK  status: ('A' for Active; 'I' for Inactive)
REMARK    1  A    between atoms: C_1  and  C_2
REMARK    2  A    between atoms: C_2  and  O_3
REMARK    3  A    between atoms: O_3  and  C_4
REMARK    4  A    between atoms: C_4  and  C_5
REMARK    5  A    between atoms: C_5  and  C_6
REMARK    6  A    between atoms: C_6  and  N_7
REMARK    7  A    between atoms: C_8  and  C_10
REMARK    8  A    between atoms: C_21  and  N_23
REMARK    9  A    between atoms: C_24  and  C_26
REMARK   10  A    between atoms: C_29  and  C_31
REMARK   11  A    between atoms: C_33  and  C_39
REMARK   12  A    between atoms: C_35  and  C_38
REMARK   13  A    between atoms: C_36  and  O_37
REMARK                            x       y       z     vdW  Elec       q    Type
REMARK                         _______ _______ _______ _____ _____    ______ ____
ROOT
ATOM      1  C   UNL     1       3.274  -5.878   5.379  0.00  0.00    +0.109 C 
ATOM      2  C   UNL     1       3.284  -7.408   5.491  0.00  0.00    +0.016 C 
ATOM      3  C   UNL     1       2.440  -7.799   6.690  0.00  0.00    +0.005 C 
ATOM      4  C   UNL     1       2.678  -9.231   7.144  0.00  0.00    +0.000 C 
ATOM      5  C   UNL     1       4.161  -9.373   7.510  0.00  0.00    +0.001 C 
ATOM      6  C   UNL     1       4.966  -9.253   6.221  0.00  0.00    +0.014 C 
ATOM      7  C   UNL     1       4.682  -7.999   5.472  0.00  0.00    +0.052 C 
ATOM      8  S   UNL     1       5.706  -6.595   6.083  0.00  0.00    -0.134 S 
ATOM      9  C   UNL     1       4.685  -5.250   5.327  0.00  0.00    +0.144 C 
ENDROOT
BRANCH   1  11
ATOM     10  N   UNL     1       2.333  -4.192   3.833  0.00  0.00    -0.315 N 
ATOM     11  C   UNL     1       2.529  -5.493   4.127  0.00  0.00    +0.219 C 
ATOM     12  O   UNL     1       2.105  -6.353   3.385  0.00  0.00    -0.275 OA
ATOM     13  H   UNL     1       2.672  -3.504   4.427  0.00  0.00    +0.149 HD
BRANCH  10  14
ATOM     14  C   UNL     1       1.609  -3.818   2.616  0.00  0.00    +0.106 C 
BRANCH  14  15
ATOM     15  C   UNL     1       1.526  -2.293   2.520  0.00  0.00    +0.047 C 
BRANCH  15  16
ATOM     16  C   UNL     1       0.770  -1.902   1.249  0.00  0.00    +0.161 C 
BRANCH  16  17
ATOM     17  O   UNL     1       0.693  -0.477   1.160  0.00  0.00    -0.380 OA
BRANCH  17  19
ATOM     18  C   UNL     1      -0.019   1.526   0.010  0.00  0.00    +0.034 C 
ATOM     19  C   UNL     1       0.002  -0.004   0.002  0.00  0.00    +0.156 C 
ENDBRANCH  17  19
ENDBRANCH  16  17
ENDBRANCH  15  16
ENDBRANCH  14  15
ENDBRANCH  10  14
ENDBRANCH   1  11
BRANCH   9  20
ATOM     20  N   UNL     1       4.752  -4.039   6.148  0.00  0.00    -0.298 N 
ATOM     21  C   UNL     1       5.802  -3.838   6.969  0.00  0.00    +0.261 C 
ATOM     22  O   UNL     1       6.694  -4.664   7.028  0.00  0.00    -0.269 OA
ATOM     23  H   UNL     1       4.041  -3.381   6.101  0.00  0.00    +0.150 HD
BRANCH  21  24
ATOM     24  C   UNL     1       5.869  -2.627   7.791  0.00  0.00    +0.131 C 
ATOM     25  N   UNL     1       4.997  -1.654   7.848  0.00  0.00    -0.148 NA
ATOM     26  N   UNL     1       5.307  -0.715   8.653  0.00  0.00    -0.153 NA
ATOM     27  C   UNL     1       6.448  -0.896   9.279  0.00  0.00    +0.080 C 
ATOM     28  C   UNL     1       6.965  -2.231   8.767  0.00  0.00    +0.120 C 
BRANCH  27  29
ATOM     29  C   UNL     1       7.080  -0.010  10.259  0.00  0.00    +0.040 A 
ATOM     30  C   UNL     1       8.312  -0.355  10.832  0.00  0.00    +0.016 A 
ATOM     31  C   UNL     1       8.899   0.484  11.752  0.00  0.00    -0.049 A 
ATOM     32  C   UNL     1       8.277   1.669  12.116  0.00  0.00    +0.010 A 
ATOM     33  C   UNL     1       7.063   2.023  11.562  0.00  0.00    -0.008 A 
ATOM     34  C   UNL     1       6.457   1.196  10.629  0.00  0.00    +0.129 A 
ATOM     35  C   UNL     1       6.399   3.313  11.967  0.00  0.00    +0.047 C 
ATOM     36  C   UNL     1      10.224   0.113  12.366  0.00  0.00    +0.044 C 
BRANCH  34  37
ATOM     37  O   UNL     1       5.267   1.545  10.080  0.00  0.00    -0.506 OA
ATOM     38  H   UNL     1       4.498   1.227  10.573  0.00  0.00    +0.292 HD
ENDBRANCH  34  37
ENDBRANCH  27  29
ENDBRANCH  21  24
ENDBRANCH   9  20
TORSDOF 10
