REMARK  Name = ZINC39962551
REMARK  10 active torsions:
REMARK  status: ('A' for Active; 'I' for Inactive)
REMARK    1  A    between atoms: C_1  and  C_2
REMARK    2  A    between atoms: C_4  and  C_16
REMARK    3  A    between atoms: C_6  and  C_14
REMARK    4  A    between atoms: C_7  and  N_13
REMARK    5  A    between atoms: C_18  and  O_34
REMARK    6  A    between atoms: C_19  and  O_23
REMARK    7  A    between atoms: O_23  and  C_24
REMARK    8  A    between atoms: C_24  and  C_25
REMARK    9  A    between atoms: C_29  and  N_31
REMARK   10  A    between atoms: O_34  and  C_35
REMARK                            x       y       z     vdW  Elec       q    Type
REMARK                         _______ _______ _______ _____ _____    ______ ____
ROOT
ATOM      1  C   UNL     1      -2.755   0.867   0.756  0.00  0.00    -0.030 A 
ATOM      2  C   UNL     1      -3.466   1.829   0.062  0.00  0.00    +0.054 A 
ATOM      3  C   UNL     1      -3.669   3.079   0.622  0.00  0.00    +0.163 A 
ATOM      4  C   UNL     1      -3.157   3.365   1.884  0.00  0.00    +0.176 A 
ATOM      5  C   UNL     1      -2.446   2.396   2.575  0.00  0.00    +0.063 A 
ATOM      6  C   UNL     1      -2.251   1.148   2.012  0.00  0.00    +0.023 A 
ATOM      7 BR   UNL     1      -1.748   2.780   4.290  0.00  0.00    -0.046 Br
ENDROOT
BRANCH   1  11
ATOM      8  C   UNL     1      -0.018   1.503   0.010  0.00  0.00    +0.067 C 
ATOM      9  C   UNL     1       0.002  -0.004   0.002  0.00  0.00    +0.066 C 
ATOM     10  C   UNL     1      -1.064  -0.768   0.003  0.00  0.00    +0.030 C 
ATOM     11  C   UNL     1      -2.536  -0.493   0.145  0.00  0.00    +0.098 C 
ATOM     12  C   UNL     1      -3.065  -1.577   1.066  0.00  0.00    +0.097 C 
ATOM     13  C   UNL     1      -2.303  -2.628   1.436  0.00  0.00    +0.195 C 
ATOM     14  O   UNL     1      -1.023  -2.853   1.091  0.00  0.00    -0.448 OA
ATOM     15  C   UNL     1      -0.529  -2.198  -0.081  0.00  0.00    +0.343 C 
ATOM     16  N   UNL     1       0.921  -1.985  -0.028  0.00  0.00    -0.138 NA
ATOM     17  N   UNL     1       1.127  -0.765  -0.013  0.00  0.00    -0.155 NA
BRANCH  13  18
ATOM     18  N   UNL     1      -2.896  -3.562   2.247  0.00  0.00    -0.329 N 
ATOM     19  H   UNL     1      -3.818  -3.448   2.526  0.00  0.00    +0.145 HD
ATOM     20  H   UNL     1      -2.393  -4.337   2.542  0.00  0.00    +0.145 HD
ENDBRANCH  13  18
BRANCH  12  21
ATOM     21  C   UNL     1      -4.407  -1.482   1.556  0.00  0.00    +0.101 C 
ATOM     22  N   UNL     1      -5.472  -1.407   1.944  0.00  0.00    -0.191 NA
ENDBRANCH  12  21
ENDBRANCH   1  11
BRANCH   3  23
ATOM     23  O   UNL     1      -4.367   4.026  -0.060  0.00  0.00    -0.491 OA
ATOM     24  C   UNL     1      -4.862   3.663  -1.350  0.00  0.00    +0.277 C 
ENDBRANCH   3  23
BRANCH   4  25
ATOM     25  O   UNL     1      -3.353   4.591   2.438  0.00  0.00    -0.483 OA
BRANCH  25  26
ATOM     26  C   UNL     1      -4.527   4.763   3.234  0.00  0.00    +0.264 C 
BRANCH  26  27
ATOM     27  C   UNL     1      -4.575   6.175   3.760  0.00  0.00    -0.008 A 
ATOM     28  C   UNL     1      -3.983   6.482   4.971  0.00  0.00    +0.007 A 
ATOM     29  C   UNL     1      -4.027   7.777   5.453  0.00  0.00    +0.003 A 
ATOM     30  C   UNL     1      -4.663   8.764   4.724  0.00  0.00    +0.033 A 
ATOM     31  C   UNL     1      -5.254   8.458   3.513  0.00  0.00    +0.127 A 
ATOM     32  C   UNL     1      -5.206   7.164   3.029  0.00  0.00    +0.039 A 
BRANCH  31  33
ATOM     33  N   UNL     1      -5.935   9.515   2.733  0.00  0.00    +0.056 N 
ATOM     34  O   UNL     1      -5.975  10.647   3.155  0.00  0.00    -0.126 OA
ATOM     35  O   UNL     1      -6.453   9.247   1.674  0.00  0.00    -0.126 OA
ENDBRANCH  31  33
ENDBRANCH  26  27
ENDBRANCH  25  26
ENDBRANCH   4  25
TORSDOF 8
