REMARK  Name = ZINC63919939
REMARK  11 active torsions:
REMARK  status: ('A' for Active; 'I' for Inactive)
REMARK    1  A    between atoms: C_1  and  C_2
REMARK    2  A    between atoms: C_2  and  N_3
REMARK    3  A    between atoms: N_3  and  C_4
REMARK    4  A    between atoms: C_4  and  C_5
REMARK    5  A    between atoms: C_6  and  C_8
REMARK    6  A    between atoms: C_12  and  N_14
REMARK    7  A    between atoms: C_15  and  C_17
REMARK    8  A    between atoms: C_17  and  C_19
REMARK    9  A    between atoms: C_17  and  N_29
REMARK   10  A    between atoms: C_19  and  C_20
REMARK   11  A    between atoms: C_30  and  C_32
REMARK                            x       y       z     vdW  Elec       q    Type
REMARK                         _______ _______ _______ _____ _____    ______ ____
ROOT
ATOM      1  C   UNL     1      -6.028   2.486  -6.016  0.00  0.00    +0.163 C 
ENDROOT
BRANCH   1   3
ATOM      2  N   UNL     1      -3.980   1.839  -4.789  0.00  0.00    -0.284 N 
ATOM      3  C   UNL     1      -5.269   2.229  -4.739  0.00  0.00    +0.238 C 
ATOM      4  O   UNL     1      -5.819   2.373  -3.668  0.00  0.00    -0.273 OA
ATOM      5  H   UNL     1      -3.521   1.789  -5.642  0.00  0.00    +0.155 HD
BRANCH   2  10
ATOM      6  C   UNL     1      -3.314   0.603  -1.380  0.00  0.00    +0.039 A 
ATOM      7  C   UNL     1      -1.945   0.856  -1.277  0.00  0.00    +0.013 A 
ATOM      8  C   UNL     1      -1.268   1.430  -2.334  0.00  0.00    +0.003 A 
ATOM      9  C   UNL     1      -1.941   1.756  -3.497  0.00  0.00    +0.023 A 
ATOM     10  C   UNL     1      -3.304   1.508  -3.609  0.00  0.00    +0.034 A 
ATOM     11  C   UNL     1      -3.992   0.927  -2.555  0.00  0.00    +0.036 A 
BRANCH   6  13
ATOM     12  N   UNL     1      -3.860   0.455   1.002  0.00  0.00    -0.298 N 
ATOM     13  C   UNL     1      -4.043  -0.011  -0.249  0.00  0.00    +0.247 C 
ATOM     14  O   UNL     1      -4.806  -0.936  -0.448  0.00  0.00    -0.270 OA
BRANCH  12  16
ATOM     15  C   UNL     1      -5.846   0.528   2.427  0.00  0.00    +0.024 C 
ATOM     16  C   UNL     1      -4.531  -0.195   2.131  0.00  0.00    +0.104 C 
ENDBRANCH  12  16
BRANCH  12  17
ATOM     17  C   UNL     1      -2.990   1.610   1.234  0.00  0.00    +0.104 C 
ATOM     18  C   UNL     1      -1.620   1.129   1.717  0.00  0.00    +0.024 C 
ENDBRANCH  12  17
ENDBRANCH   6  13
ENDBRANCH   2  10
ENDBRANCH   1   3
BRANCH   1  19
ATOM     19  N   UNL     1      -7.468   2.423  -5.749  0.00  0.00    -0.299 N 
ATOM     20  C   UNL     1      -8.027   3.269  -4.862  0.00  0.00    +0.251 C 
ATOM     21  O   UNL     1      -7.336   4.087  -4.282  0.00  0.00    -0.270 OA
ATOM     22  H   UNL     1      -8.018   1.771  -6.211  0.00  0.00    +0.150 HD
BRANCH  20  23
ATOM     23  C   UNL     1      -9.466   3.206  -4.595  0.00  0.00    +0.074 A 
ATOM     24  C   UNL     1     -10.231   3.980  -3.735  0.00  0.00    +0.021 A 
ATOM     25  C   UNL     1     -11.572   3.683  -3.699  0.00  0.00    +0.008 A 
ATOM     26  C   UNL     1     -12.048   2.683  -4.481  0.00  0.00    +0.046 A 
ATOM     27  S   UNL     1     -10.693   2.119  -5.298  0.00  0.00    -0.092 S 
ENDBRANCH  20  23
ENDBRANCH   1  19
BRANCH   1  28
ATOM     28  C   UNL     1      -5.670   3.873  -6.552  0.00  0.00    +0.065 C 
BRANCH  28  29
ATOM     29  C   UNL     1      -6.332   4.082  -7.889  0.00  0.00    -0.039 C 
ATOM     30  C   UNL     1      -7.513   4.699  -8.125  0.00  0.00    -0.001 A 
ATOM     31  C   UNL     1      -8.496   5.335  -7.240  0.00  0.00    +0.010 A 
ATOM     32  C   UNL     1      -9.609   5.880  -7.781  0.00  0.00    +0.001 A 
ATOM     33  C   UNL     1      -9.848   5.851  -9.162  0.00  0.00    +0.002 A 
ATOM     34  C   UNL     1      -8.991   5.285 -10.038  0.00  0.00    +0.026 A 
ATOM     35  C   UNL     1      -7.787   4.683  -9.579  0.00  0.00    +0.043 A 
ATOM     36  N   UNL     1      -6.815   4.079 -10.218  0.00  0.00    -0.380 N 
ATOM     37  C   UNL     1      -5.809   3.649  -9.241  0.00  0.00    +0.144 C 
ATOM     38  H   UNL     1      -6.766   3.943 -11.178  0.00  0.00    +0.160 HD
ENDBRANCH  28  29
ENDBRANCH   1  28
TORSDOF 9
