REMARK  Name = ZINC10361038
REMARK  9 active torsions:
REMARK  status: ('A' for Active; 'I' for Inactive)
REMARK    1  A    between atoms: C_1  and  C_2
REMARK    2  A    between atoms: C_2  and  C_3
REMARK    3  A    between atoms: C_4  and  C_30
REMARK    4  A    between atoms: C_5  and  C_13
REMARK    5  A    between atoms: C_13  and  O_15
REMARK    6  A    between atoms: O_15  and  C_16
REMARK    7  A    between atoms: C_16  and  C_17
REMARK    8  A    between atoms: N_19  and  C_20
REMARK    9  A    between atoms: C_23  and  N_27
REMARK                            x       y       z     vdW  Elec       q    Type
REMARK                         _______ _______ _______ _____ _____    ______ ____
ROOT
ATOM      1  O   UNL     1      -4.793   1.175  -0.280  0.00  0.00    -0.452 OA
ENDROOT
BRANCH   1   2
ATOM      2  C   UNL     1      -6.038   1.679  -0.380  0.00  0.00    +0.341 C 
ATOM      3  O   UNL     1      -6.208   2.882  -0.386  0.00  0.00    -0.245 OA
BRANCH   2   6
ATOM      4  C   UNL     1      -8.949  -0.538   0.521  0.00  0.00    +0.045 A 
ATOM      5  C   UNL     1      -7.856   0.315   0.654  0.00  0.00    -0.015 A 
ATOM      6  C   UNL     1      -7.198   0.769  -0.482  0.00  0.00    +0.073 A 
ATOM      7  C   UNL     1      -7.674   0.325  -1.742  0.00  0.00    +0.015 A 
ATOM      8  C   UNL     1      -7.063   0.731  -2.936  0.00  0.00    +0.011 A 
ATOM      9  C   UNL     1      -7.549   0.284  -4.128  0.00  0.00    +0.001 A 
ATOM     10  C   UNL     1      -8.646  -0.574  -4.175  0.00  0.00    +0.002 A 
ATOM     11  C   UNL     1      -9.263  -0.988  -3.035  0.00  0.00    +0.028 A 
ATOM     12  C   UNL     1      -8.789  -0.547  -1.786  0.00  0.00    +0.072 A 
ATOM     13  N   UNL     1      -9.376  -0.938  -0.651  0.00  0.00    -0.251 NA
ATOM     14  C   UNL     1      -7.393   0.746   2.022  0.00  0.00    +0.046 C 
BRANCH   4  16
ATOM     15  C   UNL     1      -9.011  -2.319   2.246  0.00  0.00    +0.010 C 
ATOM     16  C   UNL     1      -9.658  -1.020   1.761  0.00  0.00    +0.052 C 
ENDBRANCH   4  16
ENDBRANCH   2   6
ENDBRANCH   1   2
BRANCH   1  17
ATOM     17  C   UNL     1      -3.702   2.128  -0.184  0.00  0.00    +0.328 C 
BRANCH  17  18
ATOM     18  C   UNL     1      -2.394   1.385  -0.081  0.00  0.00    +0.255 C 
ATOM     19  O   UNL     1      -2.384   0.173  -0.088  0.00  0.00    -0.272 OA
ATOM     20  N   UNL     1      -1.237   2.069   0.019  0.00  0.00    -0.282 N 
ATOM     21  H   UNL     1      -1.251   3.035   0.105  0.00  0.00    +0.155 HD
BRANCH  20  22
ATOM     22  C   UNL     1      -0.016   1.385  -0.001  0.00  0.00    +0.048 A 
ATOM     23  C   UNL     1       0.076   0.144  -0.617  0.00  0.00    +0.026 A 
ATOM     24  C   UNL     1       1.283  -0.526  -0.640  0.00  0.00    +0.034 A 
ATOM     25  C   UNL     1       2.401   0.038  -0.052  0.00  0.00    +0.127 A 
ATOM     26  C   UNL     1       2.313   1.274   0.561  0.00  0.00    +0.049 A 
ATOM     27  C   UNL     1       1.108   1.950   0.589  0.00  0.00    +0.041 A 
ATOM     28 BR   UNL     1       0.989   3.640   1.428  0.00  0.00    -0.048 Br
BRANCH  25  29
ATOM     29  N   UNL     1       3.693  -0.682  -0.080  0.00  0.00    +0.056 N 
ATOM     30  O   UNL     1       3.772  -1.771  -0.620  0.00  0.00    -0.126 OA
ATOM     31  O   UNL     1       4.678  -0.187   0.437  0.00  0.00    -0.126 OA
ENDBRANCH  25  29
ENDBRANCH  20  22
ENDBRANCH  17  18
ENDBRANCH   1  17
TORSDOF 7
