REMARK  Name = ZINC20942430
REMARK  11 active torsions:
REMARK  status: ('A' for Active; 'I' for Inactive)
REMARK    1  A    between atoms: C_1  and  N_2
REMARK    2  A    between atoms: N_2  and  C_3
REMARK    3  A    between atoms: N_2  and  C_4
REMARK    4  A    between atoms: C_4  and  C_5
REMARK    5  A    between atoms: C_5  and  N_6
REMARK    6  A    between atoms: N_6  and  C_7
REMARK    7  A    between atoms: C_7  and  C_8
REMARK    8  A    between atoms: C_13  and  C_15
REMARK    9  A    between atoms: C_16  and  N_24
REMARK   10  A    between atoms: C_25  and  C_27
REMARK   11  A    between atoms: C_28  and  C_29
REMARK                            x       y       z     vdW  Elec       q    Type
REMARK                         _______ _______ _______ _____ _____    ______ ____
ROOT
ATOM      1  C   UNL     1       0.964   1.868  -0.040  0.00  0.00    +0.212 A 
ATOM      2  C   UNL     1       2.056   1.196  -0.517  0.00  0.00    +0.092 A 
ATOM      3  C   UNL     1       2.908   2.211  -1.149  0.00  0.00    +0.042 A 
ATOM      4  C   UNL     1       4.138   2.174  -1.808  0.00  0.00    +0.013 A 
ATOM      5  C   UNL     1       4.681   3.329  -2.296  0.00  0.00    +0.001 A 
ATOM      6  C   UNL     1       4.017   4.537  -2.141  0.00  0.00    +0.004 A 
ATOM      7  C   UNL     1       2.802   4.595  -1.494  0.00  0.00    +0.047 A 
ATOM      8  C   UNL     1       2.231   3.432  -0.989  0.00  0.00    +0.138 A 
ATOM      9  O   UNL     1       1.081   3.183  -0.331  0.00  0.00    -0.448 OA
ENDROOT
BRANCH   2  10
ATOM     10  N   UNL     1       2.308  -0.166  -0.424  0.00  0.00    -0.278 N 
ATOM     11  C   UNL     1       3.559  -0.606  -0.183  0.00  0.00    +0.241 C 
ATOM     12  O   UNL     1       4.487   0.183  -0.156  0.00  0.00    -0.270 OA
ATOM     13  H   UNL     1       1.486  -0.887  -0.546  0.00  0.00    +0.155 HD
BRANCH  11  14
ATOM     14  C   UNL     1       3.794  -1.982   0.039  0.00  0.00    +0.068 C 
ATOM     15  C   UNL     1       5.054  -2.425   0.281  0.00  0.00    +0.020 C 
BRANCH  15  16
ATOM     16  C   UNL     1       5.290  -3.803   0.503  0.00  0.00    +0.012 A 
ATOM     17  C   UNL     1       6.489  -4.456   0.765  0.00  0.00    +0.015 A 
ATOM     18  C   UNL     1       6.432  -5.815   0.943  0.00  0.00    +0.008 A 
ATOM     19  C   UNL     1       5.231  -6.447   0.856  0.00  0.00    +0.046 A 
ATOM     20  S   UNL     1       4.125  -5.154   0.526  0.00  0.00    -0.097 S 
ENDBRANCH  15  16
ENDBRANCH  11  14
ENDBRANCH   2  10
BRANCH   1  22
ATOM     21  N   UNL     1      -1.129   2.033   1.190  0.00  0.00    -0.289 N 
ATOM     22  C   UNL     1      -0.158   1.257   0.668  0.00  0.00    +0.284 C 
ATOM     23  O   UNL     1      -0.220   0.046   0.783  0.00  0.00    -0.267 OA
BRANCH  21  24
ATOM     24  C   UNL     1      -1.115   3.479   0.956  0.00  0.00    +0.090 C 
BRANCH  24  25
ATOM     25  C   UNL     1      -1.756   3.782  -0.400  0.00  0.00    -0.060 C 
BRANCH  25  27
ATOM     26  C   UNL     1      -2.129   5.545  -2.017  0.00  0.00    -0.097 C 
ATOM     27  N   UNL     1      -1.742   5.232  -0.635  0.00  0.00    +0.377 N 
ATOM     28  C   UNL     1      -2.609   5.929   0.325  0.00  0.00    -0.097 C 
ATOM     29  H   UNL     1      -0.713   5.590  -0.483  0.00  0.00    -0.083 HD
ENDBRANCH  25  27
ENDBRANCH  24  25
ENDBRANCH  21  24
BRANCH  21  30
ATOM     30  C   UNL     1      -2.197   1.431   1.992  0.00  0.00    +0.182 C 
BRANCH  30  31
ATOM     31  C   UNL     1      -1.785   1.408   3.442  0.00  0.00    +0.122 A 
ATOM     32  C   UNL     1      -2.017   2.381   4.341  0.00  0.00    +0.046 A 
ATOM     33  C   UNL     1      -1.463   1.945   5.567  0.00  0.00    +0.041 A 
ATOM     34  C   UNL     1      -0.925   0.733   5.343  0.00  0.00    +0.195 A 
ATOM     35  O   UNL     1      -1.128   0.410   4.055  0.00  0.00    -0.466 OA
ENDBRANCH  30  31
ENDBRANCH  21  30
ENDBRANCH   1  22
TORSDOF 9
