REMARK  Name = ZINC12642698
REMARK  9 active torsions:
REMARK  status: ('A' for Active; 'I' for Inactive)
REMARK    1  A    between atoms: C_1  and  C_2
REMARK    2  A    between atoms: C_5  and  N_9
REMARK    3  A    between atoms: C_6  and  C_8
REMARK    4  A    between atoms: C_10  and  C_33
REMARK    5  A    between atoms: C_18  and  C_24
REMARK    6  A    between atoms: N_26  and  C_27
REMARK    7  A    between atoms: C_27  and  C_28
REMARK    8  A    between atoms: N_35  and  C_36
REMARK    9  A    between atoms: C_36  and  C_37
REMARK                            x       y       z     vdW  Elec       q    Type
REMARK                         _______ _______ _______ _____ _____    ______ ____
ROOT
ATOM      1  N   UNL     1       3.584   2.123  -0.019  0.00  0.00    -0.256 N 
ATOM      2  C   UNL     1       4.318   2.547   1.197  0.00  0.00    +0.203 C 
ATOM      3  C   UNL     1       5.240   3.620   0.709  0.00  0.00    +0.127 C 
ATOM      4  C   UNL     1       6.538   3.973   1.343  0.00  0.00    +0.009 C 
ATOM      5  C   UNL     1       6.883   5.119   0.743  0.00  0.00    +0.004 C 
ATOM      6  C   UNL     1       5.758   5.479  -0.235  0.00  0.00    +0.155 C 
ATOM      7  O   UNL     1       4.600   4.902   0.472  0.00  0.00    -0.358 OA
ATOM      8  C   UNL     1       5.863   4.483  -1.435  0.00  0.00    +0.123 C 
ATOM      9  C   UNL     1       5.553   3.137  -0.756  0.00  0.00    +0.128 C 
ATOM     10  C   UNL     1       4.240   2.518  -1.140  0.00  0.00    +0.228 C 
ATOM     11  O   UNL     1       3.829   2.392  -2.275  0.00  0.00    -0.275 OA
ENDROOT
BRANCH   1  16
ATOM     12  C   UNL     1      -1.294  -0.774   0.010  0.00  0.00    +0.044 C 
ATOM     13  C   UNL     1       0.002  -0.004   0.002  0.00  0.00    -0.050 A 
ATOM     14  C   UNL     1      -0.017   1.379   0.010  0.00  0.00    +0.005 A 
ATOM     15  C   UNL     1       1.169   2.087   0.002  0.00  0.00    +0.024 A 
ATOM     16  C   UNL     1       2.381   1.409  -0.013  0.00  0.00    +0.040 A 
ATOM     17  C   UNL     1       2.396   0.021  -0.020  0.00  0.00    -0.029 A 
ATOM     18  C   UNL     1       1.207  -0.682  -0.013  0.00  0.00    +0.008 A 
ATOM     19  C   UNL     1       3.709  -0.719  -0.036  0.00  0.00    +0.045 C 
ENDBRANCH   1  16
BRANCH   8  20
ATOM     20  C   UNL     1       7.253   4.485  -2.017  0.00  0.00    +0.220 C 
ATOM     21  O   UNL     1       7.916   3.469  -2.008  0.00  0.00    -0.275 OA
ATOM     22  N   UNL     1       7.760   5.616  -2.546  0.00  0.00    -0.310 N 
ATOM     23  H   UNL     1       7.230   6.428  -2.553  0.00  0.00    +0.149 HD
BRANCH  22  24
ATOM     24  C   UNL     1       9.112   5.619  -3.112  0.00  0.00    +0.146 C 
BRANCH  24  25
ATOM     25  C   UNL     1       9.435   6.995  -3.634  0.00  0.00    +0.007 A 
ATOM     26  C   UNL     1      10.007   8.040  -2.987  0.00  0.00    +0.013 A 
ATOM     27  C   UNL     1      10.214   9.221  -3.675  0.00  0.00    +0.008 A 
ATOM     28  C   UNL     1       9.830   9.302  -4.973  0.00  0.00    +0.045 A 
ATOM     29  S   UNL     1       9.159   7.673  -5.262  0.00  0.00    -0.100 S 
ENDBRANCH  24  25
ENDBRANCH  22  24
ENDBRANCH   8  20
BRANCH   2  30
ATOM     30  C   UNL     1       3.364   3.099   2.225  0.00  0.00    +0.237 C 
ATOM     31  O   UNL     1       2.255   3.459   1.891  0.00  0.00    -0.274 OA
ATOM     32  N   UNL     1       3.743   3.192   3.515  0.00  0.00    -0.310 N 
ATOM     33  H   UNL     1       4.630   2.903   3.782  0.00  0.00    +0.149 HD
BRANCH  32  34
ATOM     34  C   UNL     1       2.815   3.728   4.514  0.00  0.00    +0.139 C 
BRANCH  34  35
ATOM     35  C   UNL     1       3.477   3.724   5.868  0.00  0.00    -0.030 A 
ATOM     36  C   UNL     1       3.357   2.622   6.693  0.00  0.00    +0.005 A 
ATOM     37  C   UNL     1       3.969   2.617   7.933  0.00  0.00    +0.000 A 
ATOM     38  C   UNL     1       4.692   3.719   8.351  0.00  0.00    +0.000 A 
ATOM     39  C   UNL     1       4.808   4.823   7.528  0.00  0.00    +0.000 A 
ATOM     40  C   UNL     1       4.200   4.826   6.286  0.00  0.00    +0.005 A 
ENDBRANCH  34  35
ENDBRANCH  32  34
ENDBRANCH   2  30
TORSDOF 7
