REMARK  Name = ZINC36389940
REMARK  8 active torsions:
REMARK  status: ('A' for Active; 'I' for Inactive)
REMARK    1  A    between atoms: C_1  and  C_2
REMARK    2  A    between atoms: N_16  and  C_17
REMARK    3  A    between atoms: C_17  and  C_18
REMARK    4  A    between atoms: C_18  and  C_20
REMARK    5  A    between atoms: C_18  and  O_30
REMARK    6  A    between atoms: C_20  and  O_21
REMARK    7  A    between atoms: O_21  and  C_22
REMARK    8  A    between atoms: C_25  and  C_28
REMARK                            x       y       z     vdW  Elec       q    Type
REMARK                         _______ _______ _______ _____ _____    ______ ____
ROOT
ATOM      1  C   UNL     1      -0.101   1.521   0.243  0.00  0.00    -0.008 C 
ATOM      2  C   UNL     1      -0.004   0.010   0.020  0.00  0.00    -0.040 C 
ATOM      3  C   UNL     1      -1.386  -0.587   0.065  0.00  0.00    -0.054 A 
ATOM      4  C   UNL     1      -2.426   0.100  -0.543  0.00  0.00    +0.051 A 
ATOM      5  C   UNL     1      -3.711  -0.416  -0.530  0.00  0.00    +0.162 A 
ATOM      6  C   UNL     1      -3.958  -1.632   0.096  0.00  0.00    +0.162 A 
ATOM      7  C   UNL     1      -2.918  -2.313   0.705  0.00  0.00    +0.053 A 
ATOM      8  C   UNL     1      -1.634  -1.791   0.692  0.00  0.00    -0.038 A 
ATOM      9  C   UNL     1      -0.531  -2.556   1.373  0.00  0.00    -0.019 C 
ATOM     10  C   UNL     1      -0.658  -4.055   1.044  0.00  0.00    +0.010 C 
ATOM     11  C   UNL     1      -0.258  -4.766   2.361  0.00  0.00    +0.001 C 
ATOM     12  C   UNL     1      -0.871  -3.848   3.447  0.00  0.00    +0.001 C 
ATOM     13  C   UNL     1      -0.665  -2.421   2.897  0.00  0.00    +0.010 C 
ATOM     14  C   UNL     1       0.833  -2.042   0.921  0.00  0.00    -0.066 C 
ATOM     15  N   UNL     1       0.849  -0.577   1.057  0.00  0.00    +0.386 N 
ATOM     16  O   UNL     1      -5.210  -2.165   0.112  0.00  0.00    -0.485 OA
ATOM     17  C   UNL     1      -6.292  -1.275  -0.183  0.00  0.00    +0.270 C 
ATOM     18  C   UNL     1      -5.914  -0.453  -1.423  0.00  0.00    +0.270 C 
ATOM     19  O   UNL     1      -4.718   0.276  -1.129  0.00  0.00    -0.485 OA
ATOM     20  H   UNL     1       0.499  -0.318   1.968  0.00  0.00    -0.081 HD
ENDROOT
BRANCH  15  21
ATOM     21  C   UNL     1       2.224  -0.084   0.900  0.00  0.00    -0.043 C 
BRANCH  21  22
ATOM     22  C   UNL     1       3.081  -0.584   2.064  0.00  0.00    +0.135 C 
BRANCH  22  23
ATOM     23  O   UNL     1       2.537  -0.105   3.296  0.00  0.00    -0.390 OA
ATOM     24  H   UNL     1       2.571   0.856   3.393  0.00  0.00    +0.210 HD
ENDBRANCH  22  23
BRANCH  22  25
ATOM     25  C   UNL     1       4.512  -0.067   1.903  0.00  0.00    +0.258 C 
BRANCH  25  26
ATOM     26  O   UNL     1       5.339  -0.627   2.925  0.00  0.00    -0.489 OA
BRANCH  26  27
ATOM     27  C   UNL     1       6.648  -0.268   2.925  0.00  0.00    +0.121 A 
ATOM     28  C   UNL     1       7.124   0.614   1.961  0.00  0.00    +0.047 A 
ATOM     29  C   UNL     1       8.451   0.982   1.958  0.00  0.00    +0.022 A 
ATOM     30  C   UNL     1       9.319   0.468   2.925  0.00  0.00    +0.052 A 
ATOM     31  C   UNL     1       8.836  -0.418   3.892  0.00  0.00    +0.022 A 
ATOM     32  C   UNL     1       7.506  -0.777   3.891  0.00  0.00    +0.047 A 
BRANCH  30  33
ATOM     33  C   UNL     1      10.700   0.847   2.924  0.00  0.00    +0.099 C 
ATOM     34  N   UNL     1      11.796   1.149   2.924  0.00  0.00    -0.191 NA
ENDBRANCH  30  33
ENDBRANCH  26  27
ENDBRANCH  25  26
ENDBRANCH  22  25
ENDBRANCH  21  22
ENDBRANCH  15  21
TORSDOF 7
