REMARK  Name = ZINC33119473
REMARK  5 active torsions:
REMARK  status: ('A' for Active; 'I' for Inactive)
REMARK    1  A    between atoms: C_1  and  C_2
REMARK    2  A    between atoms: C_2  and  C_4
REMARK    3  A    between atoms: C_2  and  N_15
REMARK    4  A    between atoms: C_16  and  C_18
REMARK    5  A    between atoms: C_20  and  C_24
REMARK                            x       y       z     vdW  Elec       q    Type
REMARK                         _______ _______ _______ _____ _____    ______ ____
ROOT
ATOM      1  N   UNL     1       1.178  -0.662  -0.012  0.00  0.00    -0.304 N 
ATOM      2  C   UNL     1       0.002  -0.004   0.002  0.00  0.00    +0.262 C 
ATOM      3  O   UNL     1      -1.043  -0.626   0.008  0.00  0.00    -0.269 OA
ATOM      4  H   UNL     1       2.123  -0.099  -0.018  0.00  0.00    +0.150 HD
ENDROOT
BRANCH   2   5
ATOM      5  C   UNL     1      -0.018   1.468   0.010  0.00  0.00    +0.121 A 
ATOM      6  C   UNL     1      -1.136   2.280   0.019  0.00  0.00    +0.062 A 
ATOM      7  C   UNL     1      -0.639   3.596   0.026  0.00  0.00    +0.093 A 
ATOM      8  N   UNL     1       0.676   3.524   0.014  0.00  0.00    -0.173 NA
ATOM      9  N   UNL     1       1.066   2.301   0.004  0.00  0.00    -0.272 N 
ATOM     10  H   UNL     1       2.082   1.881  -0.007  0.00  0.00    +0.189 HD
BRANCH   7  11
ATOM     11  C   UNL     1      -1.449   4.840   0.040  0.00  0.00    +0.002 A 
ATOM     12  C   UNL     1      -2.840   4.767   0.047  0.00  0.00    +0.011 A 
ATOM     13  C   UNL     1      -3.589   5.926   0.065  0.00  0.00    +0.016 A 
ATOM     14  C   UNL     1      -2.961   7.159   0.066  0.00  0.00    +0.018 A 
ATOM     15  C   UNL     1      -1.579   7.236   0.053  0.00  0.00    +0.016 A 
ATOM     16  C   UNL     1      -0.821   6.083   0.040  0.00  0.00    +0.011 A 
ATOM     17 BR   UNL     1      -3.993   8.743   0.084  0.00  0.00    -0.050 Br
ENDBRANCH   7  11
ENDBRANCH   2   5
BRANCH   1  19
ATOM     18  C   UNL     1       1.092  -2.646   1.415  0.00  0.00    +0.033 C 
ATOM     19  C   UNL     1       1.198  -2.127  -0.020  0.00  0.00    +0.100 C 
BRANCH  19  20
ATOM     20  C   UNL     1       2.487  -2.608  -0.635  0.00  0.00    -0.025 A 
ATOM     21  C   UNL     1       3.673  -1.958  -0.348  0.00  0.00    +0.009 A 
ATOM     22  C   UNL     1       4.860  -2.394  -0.908  0.00  0.00    +0.048 A 
ATOM     23  C   UNL     1       4.861  -3.485  -1.759  0.00  0.00    +0.142 A 
ATOM     24  C   UNL     1       3.666  -4.141  -2.049  0.00  0.00    +0.076 A 
ATOM     25  C   UNL     1       2.481  -3.703  -1.480  0.00  0.00    +0.032 A 
ATOM     26  N   UNL     1       3.681  -5.245  -2.913  0.00  0.00    -0.280 N 
ATOM     27  C   UNL     1       4.860  -5.841  -3.192  0.00  0.00    +0.255 C 
ATOM     28  O   UNL     1       4.902  -6.779  -3.961  0.00  0.00    -0.272 OA
ATOM     29  C   UNL     1       6.125  -5.337  -2.544  0.00  0.00    +0.325 C 
ATOM     30  O   UNL     1       6.020  -3.929  -2.316  0.00  0.00    -0.481 OA
ATOM     31  H   UNL     1       2.742  -5.612  -3.353  0.00  0.00    +0.155 HD
ENDBRANCH  19  20
ENDBRANCH   1  19
TORSDOF 4
