REMARK  Name = ZINC57992318
REMARK  12 active torsions:
REMARK  status: ('A' for Active; 'I' for Inactive)
REMARK    1  A    between atoms: C_1  and  N_2
REMARK    2  A    between atoms: N_2  and  C_3
REMARK    3  A    between atoms: N_2  and  C_4
REMARK    4  A    between atoms: C_4  and  C_6
REMARK    5  A    between atoms: C_4  and  C_23
REMARK    6  A    between atoms: C_6  and  N_7
REMARK    7  A    between atoms: C_8  and  C_10
REMARK    8  A    between atoms: C_13  and  S_16
REMARK    9  A    between atoms: S_16  and  N_19
REMARK   10  A    between atoms: N_19  and  C_20
REMARK   11  A    between atoms: N_19  and  O_21
REMARK   12  A    between atoms: O_21  and  C_22
REMARK                            x       y       z     vdW  Elec       q    Type
REMARK                         _______ _______ _______ _____ _____    ______ ____
ROOT
ATOM      1  N   UNL     1      -0.914  -2.532   0.564  0.00  0.00    -0.312 N 
ATOM      2  C   UNL     1      -0.976  -3.878   0.530  0.00  0.00    +0.244 C 
ATOM      3  O   UNL     1      -1.634  -4.434  -0.327  0.00  0.00    -0.270 OA
ATOM      4  H   UNL     1      -0.389  -2.087   1.247  0.00  0.00    +0.149 HD
ENDROOT
BRANCH   2   5
ATOM      5  C   UNL     1      -0.244  -4.677   1.536  0.00  0.00    +0.037 A 
ATOM      6  C   UNL     1       0.507  -4.040   2.525  0.00  0.00    +0.015 A 
ATOM      7  C   UNL     1       1.188  -4.792   3.460  0.00  0.00    +0.029 A 
ATOM      8  C   UNL     1       1.127  -6.173   3.420  0.00  0.00    +0.108 A 
ATOM      9  C   UNL     1       0.384  -6.811   2.442  0.00  0.00    +0.029 A 
ATOM     10  C   UNL     1      -0.306  -6.071   1.504  0.00  0.00    +0.015 A 
BRANCH   8  11
ATOM     11  S   UNL     1       1.999  -7.126   4.618  0.00  0.00    +0.082 S 
ATOM     12  O   UNL     1       2.224  -8.402   4.037  0.00  0.00    -0.151 OA
ATOM     13  O   UNL     1       3.059  -6.307   5.094  0.00  0.00    -0.151 OA
BRANCH  11  14
ATOM     14  N   UNL     1       0.974  -7.362   5.897  0.00  0.00    -0.058 NA
ATOM     15  C   UNL     1       0.175  -8.587   5.979  0.00  0.00    +0.166 C 
BRANCH  14  16
ATOM     16  O   UNL     1       0.869  -6.379   6.911  0.00  0.00    -0.280 OA
ATOM     17  C   UNL     1      -0.136  -5.394   6.664  0.00  0.00    +0.223 C 
ENDBRANCH  14  16
ENDBRANCH  11  14
ENDBRANCH   8  11
ENDBRANCH   2   5
BRANCH   1  18
ATOM     18  C   UNL     1      -1.640  -1.740  -0.433  0.00  0.00    +0.097 C 
BRANCH  18  19
ATOM     19  C   UNL     1      -1.509  -0.253  -0.097  0.00  0.00    +0.016 C 
BRANCH  19  20
ATOM     20  C   UNL     1      -0.069   0.169  -0.238  0.00  0.00    +0.093 A 
ATOM     21  C   UNL     1       0.461   0.819  -1.290  0.00  0.00    +0.043 A 
ATOM     22  C   UNL     1       1.832   1.013  -1.004  0.00  0.00    +0.041 A 
ATOM     23  C   UNL     1       2.058   0.469   0.205  0.00  0.00    +0.195 A 
ATOM     24  O   UNL     1       0.902  -0.035   0.667  0.00  0.00    -0.469 OA
ENDBRANCH  19  20
BRANCH  19  26
ATOM     25  C   UNL     1      -1.819   1.404   1.610  0.00  0.00    -0.096 C 
ATOM     26  N   UNL     1      -1.953  -0.022   1.284  0.00  0.00    +0.384 N 
ATOM     27  C   UNL     1      -3.359  -0.425   1.420  0.00  0.00    -0.096 C 
ATOM     28  H   UNL     1      -1.385  -0.567   1.916  0.00  0.00    -0.082 HD
ENDBRANCH  19  26
ENDBRANCH  18  19
ENDBRANCH   1  18
TORSDOF 8
