REMARK  Name = ZINC09983352
REMARK  6 active torsions:
REMARK  status: ('A' for Active; 'I' for Inactive)
REMARK    1  A    between atoms: C_1  and  C_2
REMARK    2  A    between atoms: C_2  and  C_32
REMARK    3  A    between atoms: N_9  and  C_31
REMARK    4  A    between atoms: C_11  and  C_12
REMARK    5  A    between atoms: C_12  and  C_14
REMARK    6  A    between atoms: C_14  and  N_15
REMARK                            x       y       z     vdW  Elec       q    Type
REMARK                         _______ _______ _______ _____ _____    ______ ____
ROOT
ATOM      1  N   UNL     1       1.043   2.147  -0.173  0.00  0.00    -0.216 N 
ATOM      2  C   UNL     1       0.276   1.139   0.290  0.00  0.00    +0.252 C 
ATOM      3  O   UNL     1      -0.717   1.230   0.980  0.00  0.00    -0.272 OA
ATOM      4  C   UNL     1       0.910  -0.127  -0.237  0.00  0.00    +0.144 C 
ATOM      5  C   UNL     1       1.366  -1.016   0.916  0.00  0.00    +0.081 C 
ATOM      6  C   UNL     1       1.767  -2.382   0.341  0.00  0.00    +0.232 C 
ATOM      7  O   UNL     1       0.610  -2.987  -0.237  0.00  0.00    -0.492 OA
ATOM      8  C   UNL     1      -0.144  -2.246  -1.089  0.00  0.00    +0.126 A 
ATOM      9  C   UNL     1      -0.049  -0.864  -1.129  0.00  0.00    +0.027 A 
ATOM     10  C   UNL     1      -0.848  -0.144  -2.001  0.00  0.00    +0.010 A 
ATOM     11  C   UNL     1      -1.735  -0.797  -2.835  0.00  0.00    +0.001 A 
ATOM     12  C   UNL     1      -1.827  -2.176  -2.802  0.00  0.00    +0.004 A 
ATOM     13  C   UNL     1      -1.035  -2.899  -1.933  0.00  0.00    +0.046 A 
ATOM     14  N   UNL     1       2.067   0.348  -1.008  0.00  0.00    -0.281 N 
ATOM     15  C   UNL     1       2.063   1.691  -0.912  0.00  0.00    +0.310 C 
ATOM     16  O   UNL     1       2.891   2.409  -1.437  0.00  0.00    -0.252 OA
ATOM     17  H   UNL     1       2.707  -0.198  -1.490  0.00  0.00    +0.152 HD
ENDROOT
BRANCH   1  18
ATOM     18  C   UNL     1       0.793   3.565   0.098  0.00  0.00    +0.197 C 
BRANCH  18  19
ATOM     19  C   UNL     1       1.515   3.971   1.357  0.00  0.00    +0.175 C 
ATOM     20  O   UNL     1       2.176   3.154   1.968  0.00  0.00    -0.291 OA
BRANCH  19  31
ATOM     21  C   UNL     1       3.615   7.432   2.545  0.00  0.00    +0.022 C 
ATOM     22  C   UNL     1       2.458   6.989   3.442  0.00  0.00    +0.030 C 
ATOM     23  C   UNL     1       2.935   6.790   4.862  0.00  0.00    -0.015 A 
ATOM     24  C   UNL     1       3.495   7.643   5.786  0.00  0.00    +0.006 A 
ATOM     25  C   UNL     1       3.842   7.172   7.040  0.00  0.00    +0.000 A 
ATOM     26  C   UNL     1       3.626   5.844   7.361  0.00  0.00    +0.002 A 
ATOM     27  C   UNL     1       3.065   4.987   6.437  0.00  0.00    +0.024 A 
ATOM     28  C   UNL     1       2.713   5.454   5.172  0.00  0.00    +0.038 A 
ATOM     29  N   UNL     1       2.136   4.794   4.088  0.00  0.00    -0.305 N 
ATOM     30  C   UNL     1       1.957   5.622   3.025  0.00  0.00    +0.024 C 
ATOM     31  C   UNL     1       1.425   5.290   1.823  0.00  0.00    +0.067 C 
ATOM     32  C   UNL     1       1.772   3.375   4.092  0.00  0.00    +0.135 C 
ATOM     33  C   UNL     1       1.321   8.012   3.398  0.00  0.00    +0.022 C 
ENDBRANCH  19  31
ENDBRANCH  18  19
ENDBRANCH   1  18
TORSDOF 3
