REMARK  Name = ZINC00629732
REMARK  6 active torsions:
REMARK  status: ('A' for Active; 'I' for Inactive)
REMARK    1  A    between atoms: N_11  and  C_14
REMARK    2  A    between atoms: C_14  and  C_15
REMARK    3  A    between atoms: C_15  and  C_17
REMARK    4  A    between atoms: C_15  and  O_25
REMARK    5  A    between atoms: C_17  and  N_18
REMARK    6  A    between atoms: N_18  and  C_19
REMARK                            x       y       z     vdW  Elec       q    Type
REMARK                         _______ _______ _______ _____ _____    ______ ____
ROOT
ATOM      1  C   UNL     1      -2.311  -2.985   0.009  0.00  0.00    +0.155 C 
ENDROOT
BRANCH   1  12
ATOM      2  C   UNL     1      -0.017   1.389   0.010  0.00  0.00    +0.036 A 
ATOM      3  C   UNL     1       0.002  -0.004   0.002  0.00  0.00    +0.066 A 
ATOM      4  C   UNL     1       1.234  -0.696  -0.013  0.00  0.00    +0.079 A 
ATOM      5  C   UNL     1       2.426   0.030  -0.021  0.00  0.00    +0.050 A 
ATOM      6  C   UNL     1       2.388   1.407  -0.013  0.00  0.00    +0.061 A 
ATOM      7  C   UNL     1       1.173   2.085   0.002  0.00  0.00    +0.060 A 
ATOM      8 CL   UNL     1       1.156   3.821   0.011  0.00  0.00    -0.082 Cl
ATOM      9 CL   UNL     1       3.872   2.307  -0.023  0.00  0.00    -0.082 Cl
ATOM     10  N   UNL     1       1.226  -2.053  -0.021  0.00  0.00    -0.237 NA
ATOM     11  C   UNL     1       0.117  -2.727  -0.013  0.00  0.00    +0.202 A 
ATOM     12  N   UNL     1      -1.111  -2.146   0.002  0.00  0.00    -0.296 N 
ATOM     13  C   UNL     1      -1.235  -0.798   0.010  0.00  0.00    +0.262 A 
ATOM     14  O   UNL     1      -2.329  -0.264   0.024  0.00  0.00    -0.267 OA
ENDBRANCH   1  12
BRANCH   1  15
ATOM     15  C   UNL     1      -2.743  -3.270  -1.430  0.00  0.00    +0.117 C 
BRANCH  15  16
ATOM     16  O   UNL     1      -3.028  -2.038  -2.095  0.00  0.00    -0.392 OA
ATOM     17  H   UNL     1      -3.356  -2.042  -3.145  0.00  0.00    +0.210 HD
ENDBRANCH  15  16
BRANCH  15  18
ATOM     18  C   UNL     1      -3.997  -4.147  -1.423  0.00  0.00    -0.049 C 
BRANCH  18  19
ATOM     19  N   UNL     1      -4.342  -4.520  -2.801  0.00  0.00    +0.383 N 
ATOM     20  H   UNL     1      -4.535  -3.611  -3.389  0.00  0.00    -0.085 HD
ATOM     21  H   UNL     1      -3.507  -5.078  -3.250  0.00  0.00    -0.085 HD
BRANCH  19  22
ATOM     22  C   UNL     1      -5.544  -5.364  -2.833  0.00  0.00    -0.072 C 
ATOM     23  C   UNL     1      -5.147  -6.825  -2.607  0.00  0.00    -0.016 C 
ATOM     24  C   UNL     1      -6.399  -7.704  -2.640  0.00  0.00    -0.002 C 
ATOM     25  C   UNL     1      -7.084  -7.566  -4.001  0.00  0.00    -0.000 C 
ATOM     26  C   UNL     1      -7.480  -6.106  -4.227  0.00  0.00    -0.002 C 
ATOM     27  C   UNL     1      -6.229  -5.226  -4.194  0.00  0.00    -0.016 C 
ENDBRANCH  19  22
ENDBRANCH  18  19
ENDBRANCH  15  18
ENDBRANCH   1  15
TORSDOF 6
