REMARK  Name = ZINC24894394
REMARK  11 active torsions:
REMARK  status: ('A' for Active; 'I' for Inactive)
REMARK    1  A    between atoms: C_1  and  C_2
REMARK    2  A    between atoms: C_2  and  C_4
REMARK    3  A    between atoms: C_2  and  O_13
REMARK    4  A    between atoms: N_9  and  C_10
REMARK    5  A    between atoms: C_10  and  C_11
REMARK    6  A    between atoms: C_10  and  C_12
REMARK    7  A    between atoms: O_13  and  C_14
REMARK    8  A    between atoms: C_14  and  C_16
REMARK    9  A    between atoms: C_21  and  N_22
REMARK   10  A    between atoms: N_22  and  S_23
REMARK   11  A    between atoms: S_23  and  C_26
REMARK                            x       y       z     vdW  Elec       q    Type
REMARK                         _______ _______ _______ _____ _____    ______ ____
ROOT
ATOM      1  C   UNL     1       2.023  -0.663   1.045  0.00  0.00    +0.342 C 
ATOM      2  O   UNL     1       2.581  -0.429  -0.009  0.00  0.00    -0.245 OA
ENDROOT
BRANCH   1   3
ATOM      3  C   UNL     1       2.801  -1.149   2.198  0.00  0.00    +0.083 A 
ATOM      4  C   UNL     1       2.163  -1.425   3.411  0.00  0.00    +0.017 A 
ATOM      5  C   UNL     1       2.896  -1.879   4.484  0.00  0.00    +0.001 A 
ATOM      6  C   UNL     1       4.265  -2.065   4.370  0.00  0.00    +0.002 A 
ATOM      7  C   UNL     1       4.910  -1.797   3.180  0.00  0.00    +0.027 A 
ATOM      8  C   UNL     1       4.187  -1.343   2.083  0.00  0.00    +0.088 A 
BRANCH   8   9
ATOM      9  N   UNL     1       4.832  -1.079   0.883  0.00  0.00    -0.097 NA
BRANCH   9  10
ATOM     10  S   UNL     1       6.467  -1.310   0.753  0.00  0.00    +0.098 S 
ATOM     11  O   UNL     1       7.081  -0.357   1.610  0.00  0.00    -0.148 OA
ATOM     12  O   UNL     1       6.691  -2.707   0.882  0.00  0.00    -0.148 OA
BRANCH  10  13
ATOM     13  C   UNL     1       6.925  -0.876  -0.892  0.00  0.00    +0.149 A 
ATOM     14  C   UNL     1       7.317   0.326  -1.380  0.00  0.00    +0.038 A 
ATOM     15  C   UNL     1       7.633   0.434  -2.722  0.00  0.00    +0.030 A 
ATOM     16  C   UNL     1       7.540  -0.666  -3.510  0.00  0.00    +0.080 A 
ATOM     17  S   UNL     1       7.001  -1.909  -2.347  0.00  0.00    -0.057 S 
ATOM     18 CL   UNL     1       7.867  -0.826  -5.207  0.00  0.00    -0.076 Cl
ENDBRANCH  10  13
ENDBRANCH   9  10
ENDBRANCH   8   9
ENDBRANCH   1   3
BRANCH   1  19
ATOM     19  O   UNL     1       0.693  -0.477   1.160  0.00  0.00    -0.449 OA
BRANCH  19  21
ATOM     20  C   UNL     1      -0.019   1.526   0.010  0.00  0.00    +0.062 C 
ATOM     21  C   UNL     1       0.002  -0.004   0.002  0.00  0.00    +0.259 C 
BRANCH  21  22
ATOM     22  C   UNL     1      -1.412  -0.526   0.013  0.00  0.00    +0.261 C 
ATOM     23  O   UNL     1      -1.818  -1.157   0.965  0.00  0.00    -0.271 OA
ATOM     24  N   UNL     1      -2.225  -0.290  -1.036  0.00  0.00    -0.237 N 
ATOM     25  C   UNL     1      -3.489  -0.757  -1.027  0.00  0.00    +0.306 C 
ATOM     26  O   UNL     1      -3.896  -1.390  -0.072  0.00  0.00    -0.252 OA
ATOM     27  N   UNL     1      -4.302  -0.522  -2.075  0.00  0.00    -0.297 N 
ATOM     28  H   UNL     1      -1.900   0.215  -1.798  0.00  0.00    +0.159 HD
ATOM     29  H   UNL     1      -3.977  -0.017  -2.837  0.00  0.00    +0.151 HD
BRANCH  27  30
ATOM     30  C   UNL     1      -5.677  -1.029  -2.065  0.00  0.00    +0.068 C 
ATOM     31  C   UNL     1      -6.546  -0.164  -2.979  0.00  0.00    +0.027 C 
ATOM     32  C   UNL     1      -5.691  -2.474  -2.566  0.00  0.00    +0.027 C 
ENDBRANCH  27  30
ENDBRANCH  21  22
ENDBRANCH  19  21
ENDBRANCH   1  19
TORSDOF 8
