REMARK  Name = ZINC21076954
REMARK  9 active torsions:
REMARK  status: ('A' for Active; 'I' for Inactive)
REMARK    1  A    between atoms: C_1  and  C_2
REMARK    2  A    between atoms: C_5  and  N_9
REMARK    3  A    between atoms: C_6  and  C_8
REMARK    4  A    between atoms: C_10  and  C_12
REMARK    5  A    between atoms: C_12  and  C_13
REMARK    6  A    between atoms: C_13  and  S_14
REMARK    7  A    between atoms: S_14  and  C_15
REMARK    8  A    between atoms: N_20  and  N_21
REMARK    9  A    between atoms: C_22  and  C_23
REMARK                            x       y       z     vdW  Elec       q    Type
REMARK                         _______ _______ _______ _____ _____    ______ ____
ROOT
ATOM      1  C   UNL     1       5.135  -6.474  -0.115  0.00  0.00    +0.210 A 
ATOM      2  N   UNL     1       3.794  -6.215  -0.109  0.00  0.00    -0.186 NA
ATOM      3  C   UNL     1       3.626  -4.859  -0.097  0.00  0.00    +0.232 A 
ATOM      4  N   UNL     1       4.813  -4.303  -0.100  0.00  0.00    -0.245 N 
ATOM      5  N   UNL     1       5.770  -5.326  -0.106  0.00  0.00    -0.144 NA
ATOM      6  N   UNL     1       2.412  -4.188  -0.088  0.00  0.00    -0.205 N 
ATOM      7  H   UNL     1       1.469  -4.755  -0.091  0.00  0.00    +0.177 HD
ATOM      8  H   UNL     1       4.908  -3.207  -0.097  0.00  0.00    +0.192 HD
ENDROOT
BRANCH   6   9
ATOM      9  N   UNL     1       2.385  -2.787  -0.076  0.00  0.00    -0.188 NA
ATOM     10  C   UNL     1       1.248  -2.159  -0.068  0.00  0.00    +0.139 C 
BRANCH  10  11
ATOM     11  C   UNL     1       1.221  -0.685  -0.054  0.00  0.00    +0.013 A 
ATOM     12  C   UNL     1      -0.000  -0.006  -0.046  0.00  0.00    +0.012 A 
ATOM     13  C   UNL     1      -0.019   1.373  -0.034  0.00  0.00    +0.021 A 
ATOM     14  C   UNL     1       1.169   2.085  -0.030  0.00  0.00    +0.042 A 
ATOM     15  C   UNL     1       2.383   1.420  -0.039  0.00  0.00    +0.040 A 
ATOM     16  C   UNL     1       2.416   0.040  -0.051  0.00  0.00    +0.051 A 
ATOM     17 CL   UNL     1       3.939  -0.793  -0.062  0.00  0.00    -0.083 Cl
ATOM     18 CL   UNL     1       1.135   3.821  -0.015  0.00  0.00    -0.083 Cl
ENDBRANCH  10  11
ENDBRANCH   6   9
BRANCH   1  19
ATOM     19  S   UNL     1       5.882  -8.070  -0.132  0.00  0.00    -0.084 S 
BRANCH  19  20
ATOM     20  C   UNL     1       7.662  -7.722  -0.133  0.00  0.00    +0.086 C 
BRANCH  20  21
ATOM     21  C   UNL     1       8.440  -9.040  -0.147  0.00  0.00    +0.107 C 
BRANCH  21  23
ATOM     22  N   UNL     1      10.804  -9.766  -0.160  0.00  0.00    -0.285 N 
ATOM     23  C   UNL     1       9.919  -8.750  -0.148  0.00  0.00    +0.218 C 
ATOM     24  O   UNL     1      10.312  -7.603  -0.138  0.00  0.00    -0.275 OA
ATOM     25  H   UNL     1      10.451 -10.805  -0.077  0.00  0.00    +0.155 HD
BRANCH  22  30
ATOM     26  C   UNL     1      16.353  -8.688  -0.636  0.00  0.00    +0.044 C 
ATOM     27  C   UNL     1      14.879  -8.974  -0.510  0.00  0.00    -0.050 A 
ATOM     28  C   UNL     1      13.956  -8.066  -0.995  0.00  0.00    +0.005 A 
ATOM     29  C   UNL     1      12.604  -8.326  -0.880  0.00  0.00    +0.024 A 
ATOM     30  C   UNL     1      12.173  -9.500  -0.277  0.00  0.00    +0.036 A 
ATOM     31  C   UNL     1      13.103 -10.407   0.214  0.00  0.00    -0.029 A 
ATOM     32  C   UNL     1      14.453 -10.144   0.092  0.00  0.00    +0.008 A 
ATOM     33  C   UNL     1      12.639 -11.679   0.875  0.00  0.00    +0.045 C 
ENDBRANCH  22  30
ENDBRANCH  21  23
ENDBRANCH  20  21
ENDBRANCH  19  20
ENDBRANCH   1  19
TORSDOF 7
