REMARK  Name = ZINC39422457
REMARK  8 active torsions:
REMARK  status: ('A' for Active; 'I' for Inactive)
REMARK    1  A    between atoms: C_1  and  C_2
REMARK    2  A    between atoms: C_2  and  C_3
REMARK    3  A    between atoms: C_3  and  N_4
REMARK    4  A    between atoms: C_8  and  S_9
REMARK    5  A    between atoms: S_9  and  C_10
REMARK    6  A    between atoms: C_10  and  C_12
REMARK    7  A    between atoms: C_10  and  C_13
REMARK    8  A    between atoms: C_18  and  C_23
REMARK                            x       y       z     vdW  Elec       q    Type
REMARK                         _______ _______ _______ _____ _____    ______ ____
ROOT
ATOM      1  C   UNL     1      -3.641  -3.491   4.010  0.00  0.00    +0.137 C 
ATOM      2  N   UNL     1      -4.066  -4.398   4.862  0.00  0.00    -0.160 NA
ATOM      3  C   UNL     1      -5.121  -4.184   5.653  0.00  0.00    +0.272 C 
ATOM      4  O   UNL     1      -5.498  -5.042   6.437  0.00  0.00    -0.268 OA
ATOM      5  C   UNL     1      -5.826  -2.877   5.556  0.00  0.00    +0.076 C 
ATOM      6  C   UNL     1      -6.933  -2.462   6.285  0.00  0.00    -0.009 C 
ATOM      7  C   UNL     1      -7.455  -1.074   5.988  0.00  0.00    +0.113 C 
ATOM      8  S   UNL     1      -6.283  -0.520   4.685  0.00  0.00    -0.100 S 
ATOM      9  C   UNL     1      -5.275  -1.980   4.602  0.00  0.00    +0.112 C 
ATOM     10  N   UNL     1      -4.222  -2.312   3.884  0.00  0.00    -0.226 NA
ENDROOT
BRANCH   6  11
ATOM     11  C   UNL     1      -7.534  -3.286   7.242  0.00  0.00    +0.017 A 
ATOM     12  C   UNL     1      -7.633  -3.103   8.628  0.00  0.00    +0.016 A 
ATOM     13  C   UNL     1      -8.287  -4.092   9.308  0.00  0.00    +0.008 A 
ATOM     14  C   UNL     1      -8.784  -5.156   8.617  0.00  0.00    +0.046 A 
ATOM     15  S   UNL     1      -8.382  -4.838   7.018  0.00  0.00    -0.097 S 
ENDBRANCH   6  11
BRANCH   1  16
ATOM     16  C   UNL     1      -2.443  -3.807   3.152  0.00  0.00    +0.116 C 
ATOM     17  C   UNL     1      -2.897  -4.563   1.901  0.00  0.00    +0.027 C 
BRANCH  16  18
ATOM     18  S   UNL     1      -1.627  -2.263   2.661  0.00  0.00    -0.075 S 
BRANCH  18  23
ATOM     19  N   UNL     1       0.762  -1.976   1.234  0.00  0.00    -0.271 N 
ATOM     20  C   UNL     1       1.714  -2.749   0.674  0.00  0.00    +0.345 A 
ATOM     21  N   UNL     1       1.367  -4.036   0.882  0.00  0.00    -0.226 N 
ATOM     22  N   UNL     1       0.160  -4.036   1.594  0.00  0.00    -0.145 NA
ATOM     23  C   UNL     1      -0.185  -2.798   1.801  0.00  0.00    +0.193 A 
ATOM     24  O   UNL     1       2.707  -2.357   0.088  0.00  0.00    -0.245 OA
ATOM     25  H   UNL     1       1.862  -4.818   0.592  0.00  0.00    +0.194 HD
BRANCH  19  26
ATOM     26  C   UNL     1       0.742  -0.511   1.242  0.00  0.00    +0.129 C 
BRANCH  26  28
ATOM     27  C   UNL     1      -0.019   1.526   0.010  0.00  0.00    +0.005 C 
ATOM     28  C   UNL     1       0.002  -0.004   0.002  0.00  0.00    +0.018 C 
ENDBRANCH  26  28
ENDBRANCH  19  26
ENDBRANCH  18  23
ENDBRANCH  16  18
ENDBRANCH   1  16
TORSDOF 6
