REMARK  Name = ZINC66561808
REMARK  7 active torsions:
REMARK  status: ('A' for Active; 'I' for Inactive)
REMARK    1  A    between atoms: C_1  and  C_2
REMARK    2  A    between atoms: N_5  and  C_9
REMARK    3  A    between atoms: N_12  and  C_15
REMARK    4  A    between atoms: C_15  and  C_17
REMARK    5  A    between atoms: C_15  and  C_18
REMARK    6  A    between atoms: N_20  and  C_21
REMARK    7  A    between atoms: C_22  and  C_26
REMARK                            x       y       z     vdW  Elec       q    Type
REMARK                         _______ _______ _______ _____ _____    ______ ____
ROOT
ATOM      1  C   UNL     1       4.152  -4.792  -4.781  0.00  0.00    +0.016 C 
ATOM      2  C   UNL     1       5.366  -4.277  -4.006  0.00  0.00    -0.004 C 
ENDROOT
BRANCH   1   6
ATOM      3  C   UNL     1       0.515  -2.618  -4.327  0.00  0.00    +0.053 C 
ATOM      4  C   UNL     1       1.769  -2.152  -3.581  0.00  0.00    +0.000 C 
ATOM      5  C   UNL     1       3.007  -2.754  -4.250  0.00  0.00    -0.076 C 
ATOM      6  N   UNL     1       2.926  -4.219  -4.208  0.00  0.00    +0.387 N 
ATOM      7  C   UNL     1       1.766  -4.676  -4.982  0.00  0.00    -0.076 C 
ATOM      8  C   UNL     1       0.481  -4.149  -4.341  0.00  0.00    +0.000 C 
ATOM      9  H   UNL     1       2.832  -4.523  -3.251  0.00  0.00    -0.081 HD
BRANCH   3  13
ATOM     10  C   UNL     1      -2.185   1.354  -3.249  0.00  0.00    +0.039 C 
ATOM     11  C   UNL     1      -2.091  -0.170  -3.142  0.00  0.00    +0.129 C 
ATOM     12  C   UNL     1      -0.804  -0.651  -3.817  0.00  0.00    +0.116 C 
ATOM     13  N   UNL     1      -0.681  -2.106  -3.644  0.00  0.00    -0.295 NA
ATOM     14  C   UNL     1      -0.667  -2.462  -2.218  0.00  0.00    +0.113 C 
ATOM     15  C   UNL     1      -1.956  -1.963  -1.560  0.00  0.00    +0.175 C 
ATOM     16  O   UNL     1      -2.075  -0.552  -1.764  0.00  0.00    -0.374 OA
ENDBRANCH   3  13
ENDBRANCH   1   6
BRANCH   1  17
ATOM     17  C   UNL     1       4.096  -6.295  -4.687  0.00  0.00    +0.204 C 
ATOM     18  O   UNL     1       3.445  -6.823  -3.810  0.00  0.00    -0.277 OA
ATOM     19  N   UNL     1       4.769  -7.051  -5.576  0.00  0.00    -0.281 N 
ATOM     20  H   UNL     1       5.290  -6.628  -6.277  0.00  0.00    +0.155 HD
BRANCH  19  21
ATOM     21  C   UNL     1       4.718  -8.434  -5.489  0.00  0.00    +0.084 A 
ATOM     22  C   UNL     1       5.345  -9.364  -6.305  0.00  0.00    +0.065 A 
ATOM     23  C   UNL     1       5.121 -10.756  -5.990  0.00  0.00    +0.022 A 
ATOM     24  C   UNL     1       4.324 -10.997  -4.933  0.00  0.00    +0.048 A 
ATOM     25  S   UNL     1       3.889  -9.367  -4.368  0.00  0.00    -0.081 S 
BRANCH  22  26
ATOM     26  C   UNL     1       6.191  -8.955  -7.431  0.00  0.00    +0.244 C 
ATOM     27  O   UNL     1       6.359  -7.773  -7.668  0.00  0.00    -0.270 OA
ATOM     28  N   UNL     1       6.785  -9.888  -8.201  0.00  0.00    -0.325 N 
ATOM     29  H   UNL     1       6.652 -10.830  -8.012  0.00  0.00    +0.145 HD
ATOM     30  H   UNL     1       7.345  -9.617  -8.946  0.00  0.00    +0.145 HD
ENDBRANCH  22  26
ENDBRANCH  19  21
ENDBRANCH   1  17
TORSDOF 5
