REMARK  Name = ZINC35926413
REMARK  4 active torsions:
REMARK  status: ('A' for Active; 'I' for Inactive)
REMARK    1  A    between atoms: C_5  and  N_7
REMARK    2  A    between atoms: N_10  and  C_13
REMARK    3  A    between atoms: C_13  and  C_14
REMARK    4  A    between atoms: C_29  and  C_31
REMARK                            x       y       z     vdW  Elec       q    Type
REMARK                         _______ _______ _______ _____ _____    ______ ____
ROOT
ATOM      1  C   UNL     1       2.735  -8.583  -0.082  0.00  0.00    +0.034 A 
ATOM      2  C   UNL     1       3.767  -8.911  -0.913  0.00  0.00    +0.091 A 
ATOM      3  C   UNL     1       3.492  -9.643  -2.081  0.00  0.00    +0.253 A 
ATOM      4  O   UNL     1       4.391  -9.953  -2.846  0.00  0.00    -0.268 OA
ATOM      5  N   UNL     1       2.215  -9.997  -2.340  0.00  0.00    -0.295 N 
ATOM      6  H   UNL     1       2.003 -10.503  -3.140  0.00  0.00    +0.172 HD
ATOM      7  C   UNL     1       1.227  -9.642  -1.475  0.00  0.00    +0.198 A 
ATOM      8  N   UNL     1       1.493  -8.960  -0.379  0.00  0.00    -0.223 NA
ATOM      9  N   UNL     1      -0.065 -10.005  -1.744  0.00  0.00    -0.300 N 
ATOM     10  C   UNL     1      -1.116  -9.604  -0.796  0.00  0.00    +0.109 C 
ATOM     11  C   UNL     1      -2.374  -9.086  -1.497  0.00  0.00    +0.038 C 
ATOM     12  C   UNL     1      -1.998  -8.205  -2.671  0.00  0.00    +0.109 C 
ATOM     13  N   UNL     1      -1.800  -9.065  -3.837  0.00  0.00    -0.300 N 
ATOM     14  C   UNL     1      -0.601  -9.776  -4.119  0.00  0.00    +0.126 C 
ATOM     15  C   UNL     1      -0.332 -10.761  -2.955  0.00  0.00    +0.127 C 
ATOM     16  C   UNL     1      -2.823  -9.193  -4.705  0.00  0.00    +0.219 C 
ATOM     17  O   UNL     1      -3.893  -8.676  -4.461  0.00  0.00    -0.275 OA
ENDROOT
BRANCH  16  18
ATOM     18  C   UNL     1      -2.639  -9.979  -5.978  0.00  0.00    +0.075 C 
ATOM     19  C   UNL     1      -1.823  -9.152  -6.973  0.00  0.00    +0.013 C 
ATOM     20  C   UNL     1      -1.635  -9.949  -8.266  0.00  0.00    +0.001 C 
ATOM     21  C   UNL     1      -3.004 -10.271  -8.870  0.00  0.00    +0.000 C 
ATOM     22  C   UNL     1      -3.820 -11.097  -7.874  0.00  0.00    +0.001 C 
ATOM     23  C   UNL     1      -4.007 -10.300  -6.582  0.00  0.00    +0.013 C 
ENDBRANCH  16  18
BRANCH   1  24
ATOM     24  C   UNL     1       3.002  -7.799   1.177  0.00  0.00    -0.022 C 
BRANCH  24  28
ATOM     25  N   UNL     1       2.165  -3.700   1.125  0.00  0.00    -0.332 N 
ATOM     26  C   UNL     1       1.723  -4.457   2.306  0.00  0.00    +0.086 C 
ATOM     27  C   UNL     1       2.505  -5.774   2.359  0.00  0.00    -0.059 C 
ATOM     28  N   UNL     1       2.345  -6.489   1.087  0.00  0.00    +0.385 N 
ATOM     29  C   UNL     1       2.951  -5.713  -0.003  0.00  0.00    -0.059 C 
ATOM     30  C   UNL     1       2.186  -4.391  -0.173  0.00  0.00    +0.086 C 
ATOM     31  H   UNL     1       1.362  -6.620   0.898  0.00  0.00    -0.081 HD
BRANCH  25  36
ATOM     32  C   UNL     1       1.984  -0.029   1.190  0.00  0.00    +0.002 A 
ATOM     33  C   UNL     1       3.305   0.294   1.442  0.00  0.00    +0.002 A 
ATOM     34  C   UNL     1       4.248  -0.706   1.590  0.00  0.00    +0.022 A 
ATOM     35  C   UNL     1       3.874  -2.032   1.485  0.00  0.00    +0.062 A 
ATOM     36  C   UNL     1       2.547  -2.360   1.232  0.00  0.00    +0.048 A 
ATOM     37  C   UNL     1       1.603  -1.353   1.084  0.00  0.00    +0.024 A 
ATOM     38 CL   UNL     1       5.059  -3.287   1.669  0.00  0.00    -0.082 Cl
ENDBRANCH  25  36
ENDBRANCH  24  28
ENDBRANCH   1  24
TORSDOF 4
