REMARK  Name = ZINC09356382
REMARK  9 active torsions:
REMARK  status: ('A' for Active; 'I' for Inactive)
REMARK    1  A    between atoms: C_1  and  C_2
REMARK    2  A    between atoms: C_5  and  C_8
REMARK    3  A    between atoms: C_13  and  C_17
REMARK    4  A    between atoms: C_13  and  C_18
REMARK    5  A    between atoms: N_26  and  C_27
REMARK    6  A    between atoms: C_27  and  C_28
REMARK    7  A    between atoms: N_30  and  C_31
REMARK    8  A    between atoms: C_31  and  C_32
REMARK    9  A    between atoms: C_32  and  C_33
REMARK                            x       y       z     vdW  Elec       q    Type
REMARK                         _______ _______ _______ _____ _____    ______ ____
ROOT
ATOM      1  C   UNL     1       0.059  -4.275  -0.021  0.00  0.00    +0.139 C 
ATOM      2  C   UNL     1      -1.330  -4.773   0.295  0.00  0.00    +0.037 C 
ATOM      3  C   UNL     1      -1.710  -5.383   1.432  0.00  0.00    +0.017 C 
ATOM      4  C   UNL     1      -3.146  -5.842   1.619  0.00  0.00    +0.058 C 
ATOM      5  C   UNL     1      -4.096  -4.907   0.872  0.00  0.00    -0.023 C 
ATOM      6  C   UNL     1      -3.710  -4.939  -0.612  0.00  0.00    +0.086 C 
ATOM      7  C   UNL     1      -2.269  -4.544  -0.738  0.00  0.00    +0.163 C 
ATOM      8  O   UNL     1      -1.895  -4.009  -1.763  0.00  0.00    -0.292 OA
ATOM      9  C   UNL     1      -3.955  -3.483   1.414  0.00  0.00    +0.011 C 
ATOM     10  C   UNL     1      -5.538  -5.388   1.044  0.00  0.00    +0.011 C 
ATOM     11  N   UNL     1      -0.885  -5.652   2.476  0.00  0.00    -0.316 N 
ATOM     12  C   UNL     1       0.015  -4.752   3.032  0.00  0.00    +0.052 A 
ATOM     13  C   UNL     1      -0.109  -4.284   4.329  0.00  0.00    +0.025 A 
ATOM     14  C   UNL     1       0.851  -3.425   4.836  0.00  0.00    +0.002 A 
ATOM     15  C   UNL     1       1.925  -3.040   4.054  0.00  0.00    +0.002 A 
ATOM     16  C   UNL     1       2.041  -3.493   2.751  0.00  0.00    +0.025 A 
ATOM     17  C   UNL     1       1.071  -4.335   2.235  0.00  0.00    +0.052 A 
ATOM     18  N   UNL     1       1.081  -4.726   0.899  0.00  0.00    -0.308 N 
ATOM     19  H   UNL     1      -0.928  -6.541   2.863  0.00  0.00    +0.152 HD
ENDROOT
BRANCH   1  24
ATOM     20  C   UNL     1      -0.018   1.503   0.010  0.00  0.00    +0.044 C 
ATOM     21  C   UNL     1       0.002  -0.004   0.002  0.00  0.00    -0.050 A 
ATOM     22  C   UNL     1       0.254  -0.686  -1.175  0.00  0.00    +0.004 A 
ATOM     23  C   UNL     1       0.273  -2.068  -1.182  0.00  0.00    +0.006 A 
ATOM     24  C   UNL     1       0.040  -2.768  -0.013  0.00  0.00    -0.023 A 
ATOM     25  C   UNL     1      -0.211  -2.087   1.163  0.00  0.00    +0.006 A 
ATOM     26  C   UNL     1      -0.225  -0.705   1.171  0.00  0.00    +0.004 A 
ENDBRANCH   1  24
BRANCH  18  27
ATOM     27  C   UNL     1       2.150  -5.605   0.418  0.00  0.00    +0.201 C 
BRANCH  27  28
ATOM     28  C   UNL     1       3.306  -4.771  -0.069  0.00  0.00    +0.230 C 
ATOM     29  O   UNL     1       3.244  -3.561  -0.019  0.00  0.00    -0.274 OA
ATOM     30  N   UNL     1       4.409  -5.369  -0.561  0.00  0.00    -0.314 N 
ATOM     31  H   UNL     1       4.459  -6.337  -0.601  0.00  0.00    +0.149 HD
BRANCH  30  32
ATOM     32  C   UNL     1       5.534  -4.558  -1.034  0.00  0.00    +0.110 C 
BRANCH  32  33
ATOM     33  C   UNL     1       6.649  -5.477  -1.537  0.00  0.00    +0.073 C 
BRANCH  33  34
ATOM     34  C   UNL     1       7.806  -4.642  -2.024  0.00  0.00    +0.035 A 
ATOM     35  C   UNL     1       7.930  -4.101  -3.251  0.00  0.00    +0.105 A 
ATOM     36  N   UNL     1       9.121  -3.427  -3.267  0.00  0.00    -0.352 N 
ATOM     37  H   UNL     1       9.492  -2.932  -4.015  0.00  0.00    +0.166 HD
ATOM     38  C   UNL     1       9.684  -3.580  -2.049  0.00  0.00    +0.171 A 
ATOM     39  N   UNL     1       8.889  -4.304  -1.309  0.00  0.00    -0.350 N 
ATOM     40  H   UNL     1       9.057  -4.558  -0.388  0.00  0.00    +0.166 HD
ENDBRANCH  33  34
ENDBRANCH  32  33
ENDBRANCH  30  32
ENDBRANCH  27  28
ENDBRANCH  18  27
TORSDOF 6
