REMARK  Name = ZINC08816822
REMARK  14 active torsions:
REMARK  status: ('A' for Active; 'I' for Inactive)
REMARK    1  A    between atoms: C_1  and  C_2
REMARK    2  A    between atoms: C_2  and  C_3
REMARK    3  A    between atoms: C_3  and  O_4
REMARK    4  A    between atoms: O_4  and  C_5
REMARK    5  A    between atoms: C_8  and  C_14
REMARK    6  A    between atoms: C_10  and  O_11
REMARK    7  A    between atoms: O_11  and  C_12
REMARK    8  A    between atoms: C_12  and  C_13
REMARK    9  A    between atoms: C_22  and  C_30
REMARK   10  A    between atoms: C_24  and  C_25
REMARK   11  A    between atoms: C_24  and  C_27
REMARK   12  A    between atoms: C_32  and  C_33
REMARK   13  A    between atoms: C_32  and  C_34
REMARK   14  A    between atoms: C_32  and  N_64
REMARK                            x       y       z     vdW  Elec       q    Type
REMARK                         _______ _______ _______ _____ _____    ______ ____
ROOT
ATOM      1  C   UNL     1       2.775  -0.826   3.682  0.00  0.00    +0.064 C 
ATOM      2  C   UNL     1       3.921  -0.031   4.310  0.00  0.00    +0.010 C 
ATOM      3  C   UNL     1       4.092   1.326   3.673  0.00  0.00    -0.070 C 
ATOM      4  C   UNL     1       6.463   0.992   3.390  0.00  0.00    -0.051 C 
ATOM      5  C   UNL     1       6.331  -0.430   3.879  0.00  0.00    -0.044 C 
ATOM      6  C   UNL     1       5.156  -0.885   4.273  0.00  0.00    -0.051 C 
ATOM      7  C   UNL     1       5.013  -2.300   4.699  0.00  0.00    +0.163 C 
ATOM      8  C   UNL     1       3.771  -2.837   4.801  0.00  0.00    +0.065 C 
ATOM      9  C   UNL     1       2.511  -2.071   4.529  0.00  0.00    +0.188 C 
ATOM     10  N   UNL     1       3.662  -4.149   5.171  0.00  0.00    -0.304 NA
ATOM     11  H   UNL     1       2.787  -4.559   5.252  0.00  0.00    +0.186 HD
ATOM     12  N   UNL     1       5.197   1.330   2.701  0.00  0.00    +0.384 N 
ATOM     13  H   UNL     1       5.010   0.626   1.977  0.00  0.00    -0.081 HD
ENDROOT
BRANCH   1  17
ATOM     14  C   UNL     1      -0.747   1.597   3.564  0.00  0.00    +0.162 A 
ATOM     15  C   UNL     1       0.038   1.565   4.706  0.00  0.00    +0.050 A 
ATOM     16  C   UNL     1       1.176   0.782   4.741  0.00  0.00    +0.008 A 
ATOM     17  C   UNL     1       1.534   0.027   3.639  0.00  0.00    -0.037 A 
ATOM     18  C   UNL     1       0.752   0.050   2.499  0.00  0.00    +0.053 A 
ATOM     19  C   UNL     1      -0.387   0.838   2.455  0.00  0.00    +0.162 A 
BRANCH  14  20
ATOM     20  O   UNL     1      -1.867   2.367   3.529  0.00  0.00    -0.488 OA
BRANCH  20  21
ATOM     21  C   UNL     1      -2.175   3.119   4.704  0.00  0.00    +0.229 C 
BRANCH  21  23
ATOM     22  C   UNL     1      -3.789   4.723   5.735  0.00  0.00    +0.007 C 
ATOM     23  C   UNL     1      -3.460   3.918   4.477  0.00  0.00    +0.038 C 
ENDBRANCH  21  23
ENDBRANCH  20  21
ENDBRANCH  14  20
BRANCH  19  24
ATOM     24  O   UNL     1      -1.154   0.865   1.333  0.00  0.00    -0.489 OA
BRANCH  24  25
ATOM     25  C   UNL     1      -0.724   0.061   0.233  0.00  0.00    +0.226 C 
ATOM     26  C   UNL     1      -1.705   0.220  -0.930  0.00  0.00    +0.048 C 
ENDBRANCH  24  25
ENDBRANCH  19  24
ENDBRANCH   1  17
BRANCH  12  27
ATOM     27  C   UNL     1       5.307   2.660   2.062  0.00  0.00    -0.074 C 
ATOM     28  C   UNL     1       6.489   2.652   1.091  0.00  0.00    -0.014 C 
ATOM     29  C   UNL     1       4.017   2.951   1.292  0.00  0.00    -0.014 C 
ENDBRANCH  12  27
BRANCH   9  30
ATOM     30  C   UNL     1       1.914  -1.662   5.811  0.00  0.00    +0.091 C 
ATOM     31  N   UNL     1       1.452  -1.346   6.800  0.00  0.00    -0.195 NA
ENDBRANCH   9  30
BRANCH   9  32
ATOM     32  C   UNL     1       1.565  -2.945   3.816  0.00  0.00    +0.091 C 
ATOM     33  N   UNL     1       0.835  -3.618   3.266  0.00  0.00    -0.195 NA
ENDBRANCH   9  32
BRANCH   7  34
ATOM     34  C   UNL     1       6.171  -3.088   4.998  0.00  0.00    +0.076 C 
ATOM     35  N   UNL     1       7.089  -3.713   5.235  0.00  0.00    -0.196 NA
ENDBRANCH   7  34
TORSDOF 10
