REMARK  Name = ZINC02766235
REMARK  8 active torsions:
REMARK  status: ('A' for Active; 'I' for Inactive)
REMARK    1  A    between atoms: C_4  and  O_28
REMARK    2  A    between atoms: C_5  and  C_7
REMARK    3  A    between atoms: N_9  and  N_10
REMARK    4  A    between atoms: C_11  and  C_12
REMARK    5  A    between atoms: C_16  and  O_18
REMARK    6  A    between atoms: O_18  and  C_19
REMARK    7  A    between atoms: C_19  and  C_21
REMARK    8  A    between atoms: C_22  and  C_23
REMARK                            x       y       z     vdW  Elec       q    Type
REMARK                         _______ _______ _______ _____ _____    ______ ____
ROOT
ATOM      1  C   UNL     1      -8.262  -1.618  -0.070  0.00  0.00    -0.002 A 
ATOM      2  C   UNL     1      -8.138  -3.010  -0.041  0.00  0.00    +0.010 A 
ATOM      3  C   UNL     1      -6.887  -3.588   0.015  0.00  0.00    +0.004 A 
ATOM      4  C   UNL     1      -5.754  -2.796   0.043  0.00  0.00    +0.046 A 
ATOM      5  C   UNL     1      -5.867  -1.412   0.014  0.00  0.00    +0.133 A 
ATOM      6  C   UNL     1      -7.118  -0.820  -0.037  0.00  0.00    +0.055 A 
ENDROOT
BRANCH   1   8
ATOM      7  N   UNL     1     -10.661  -1.740  -0.156  0.00  0.00    -0.187 NA
ATOM      8  C   UNL     1      -9.598  -0.995  -0.130  0.00  0.00    +0.138 C 
BRANCH   7  11
ATOM      9  C   UNL     1     -13.033  -1.921  -0.240  0.00  0.00    +0.267 C 
ATOM     10  O   UNL     1     -12.927  -3.133  -0.215  0.00  0.00    -0.268 OA
ATOM     11  N   UNL     1     -11.929  -1.148  -0.213  0.00  0.00    -0.203 N 
ATOM     12  H   UNL     1     -12.013  -0.182  -0.233  0.00  0.00    +0.178 HD
BRANCH   9  17
ATOM     13  C   UNL     1     -15.745   0.668  -0.385  0.00  0.00    +0.001 A 
ATOM     14  C   UNL     1     -16.879  -0.127  -0.413  0.00  0.00    +0.004 A 
ATOM     15  C   UNL     1     -16.770  -1.502  -0.385  0.00  0.00    +0.046 A 
ATOM     16  C   UNL     1     -15.519  -2.099  -0.328  0.00  0.00    +0.129 A 
ATOM     17  C   UNL     1     -14.368  -1.299  -0.300  0.00  0.00    +0.080 A 
ATOM     18  C   UNL     1     -14.494   0.093  -0.323  0.00  0.00    +0.017 A 
BRANCH  16  19
ATOM     19  O   UNL     1     -15.409  -3.451  -0.300  0.00  0.00    -0.506 OA
ATOM     20  H   UNL     1     -15.410  -3.827   0.591  0.00  0.00    +0.292 HD
ENDBRANCH  16  19
ENDBRANCH   9  17
ENDBRANCH   7  11
ENDBRANCH   1   8
BRANCH   5  21
ATOM     21  O   UNL     1      -4.750  -0.639   0.042  0.00  0.00    -0.423 OA
BRANCH  21  22
ATOM     22  C   UNL     1      -4.033  -0.520  -1.096  0.00  0.00    +0.337 C 
ATOM     23  O   UNL     1      -4.341  -1.166  -2.080  0.00  0.00    -0.245 OA
BRANCH  22  24
ATOM     24  C   UNL     1      -2.924   0.354  -1.143  0.00  0.00    +0.095 C 
ATOM     25  C   UNL     1      -2.203   0.474  -2.288  0.00  0.00    +0.053 C 
BRANCH  25  26
ATOM     26  C   UNL     1      -1.092   1.350  -2.336  0.00  0.00    +0.128 A 
ATOM     27  C   UNL     1      -0.275   1.568  -3.426  0.00  0.00    +0.049 A 
ATOM     28  C   UNL     1       0.686   2.507  -3.023  0.00  0.00    +0.042 A 
ATOM     29  C   UNL     1       0.426   2.817  -1.734  0.00  0.00    +0.195 A 
ATOM     30  O   UNL     1      -0.643   2.121  -1.323  0.00  0.00    -0.464 OA
ENDBRANCH  25  26
ENDBRANCH  22  24
ENDBRANCH  21  22
ENDBRANCH   5  21
TORSDOF 8
