REMARK  Name = ZINC39360937
REMARK  8 active torsions:
REMARK  status: ('A' for Active; 'I' for Inactive)
REMARK    1  A    between atoms: C_1  and  C_2
REMARK    2  A    between atoms: C_2  and  O_3
REMARK    3  A    between atoms: O_3  and  C_4
REMARK    4  A    between atoms: C_4  and  C_6
REMARK    5  A    between atoms: C_8  and  N_16
REMARK    6  A    between atoms: N_16  and  C_17
REMARK    7  A    between atoms: C_17  and  N_19
REMARK    8  A    between atoms: N_19  and  C_20
REMARK                            x       y       z     vdW  Elec       q    Type
REMARK                         _______ _______ _______ _____ _____    ______ ____
ROOT
ATOM      1  C   UNL     1      -3.176  -2.499   0.051  0.00  0.00    +0.234 C 
ATOM      2  C   UNL     1      -4.020  -2.259  -1.181  0.00  0.00    +0.052 C 
ATOM      3  C   UNL     1      -4.749  -3.422  -1.370  0.00  0.00    +0.018 A 
ATOM      4  C   UNL     1      -5.701  -3.804  -2.344  0.00  0.00    +0.011 A 
ATOM      5  C   UNL     1      -6.269  -5.035  -2.283  0.00  0.00    +0.001 A 
ATOM      6  C   UNL     1      -5.937  -5.945  -1.276  0.00  0.00    +0.002 A 
ATOM      7  C   UNL     1      -5.034  -5.647  -0.311  0.00  0.00    +0.026 A 
ATOM      8  C   UNL     1      -4.397  -4.379  -0.307  0.00  0.00    +0.045 A 
ATOM      9  N   UNL     1      -3.500  -3.855   0.507  0.00  0.00    -0.367 N 
ATOM     10  H   UNL     1      -3.116  -4.295   1.281  0.00  0.00    +0.161 HD
ENDROOT
BRANCH   1  11
ATOM     11  C   UNL     1      -1.713  -2.403  -0.294  0.00  0.00    +0.336 C 
ATOM     12  O   UNL     1      -1.043  -3.406  -0.370  0.00  0.00    -0.248 OA
BRANCH  11  13
ATOM     13  O   UNL     1      -1.153  -1.204  -0.518  0.00  0.00    -0.463 OA
BRANCH  13  15
ATOM     14  C   UNL     1       0.694   0.257  -1.060  0.00  0.00    +0.048 C 
ATOM     15  C   UNL     1       0.239  -1.187  -0.841  0.00  0.00    +0.229 C 
ENDBRANCH  13  15
ENDBRANCH  11  13
ENDBRANCH   1  11
BRANCH   2  16
ATOM     16  N   UNL     1      -4.055  -1.135  -1.946  0.00  0.00    -0.297 N 
ATOM     17  H   UNL     1      -4.378  -1.180  -2.859  0.00  0.00    +0.154 HD
BRANCH  16  18
ATOM     18  C   UNL     1      -3.642   0.042  -1.433  0.00  0.00    +0.139 C 
ATOM     19  S   UNL     1      -3.008   0.108   0.155  0.00  0.00    -0.018 S 
BRANCH  18  20
ATOM     20  N   UNL     1      -3.729   1.165  -2.172  0.00  0.00    -0.297 N 
ATOM     21  H   UNL     1      -4.013   1.117  -3.098  0.00  0.00    +0.154 HD
BRANCH  20  22
ATOM     22  C   UNL     1      -3.409   2.403  -1.603  0.00  0.00    +0.033 A 
ATOM     23  C   UNL     1      -2.693   3.341  -2.335  0.00  0.00    +0.024 A 
ATOM     24  C   UNL     1      -2.379   4.562  -1.770  0.00  0.00    +0.017 A 
ATOM     25  C   UNL     1      -2.777   4.850  -0.477  0.00  0.00    +0.018 A 
ATOM     26  C   UNL     1      -3.490   3.917   0.255  0.00  0.00    +0.017 A 
ATOM     27  C   UNL     1      -3.812   2.697  -0.307  0.00  0.00    +0.024 A 
ATOM     28 BR   UNL     1      -2.344   6.522   0.293  0.00  0.00    -0.050 Br
ENDBRANCH  20  22
ENDBRANCH  18  20
ENDBRANCH  16  18
ENDBRANCH   2  16
TORSDOF 7
