REMARK  Name = ZINC04277760
REMARK  3 active torsions:
REMARK  status: ('A' for Active; 'I' for Inactive)
REMARK    1  A    between atoms: C_3  and  C_6
REMARK    2  A    between atoms: C_6  and  S_7
REMARK    3  A    between atoms: S_7  and  C_8
REMARK                            x       y       z     vdW  Elec       q    Type
REMARK                         _______ _______ _______ _____ _____    ______ ____
ROOT
ATOM      1  C   UNL     1      -1.363   4.128  -1.684  0.00  0.00    +0.066 C 
ATOM      2  C   UNL     1       0.129   3.682  -1.817  0.00  0.00    +0.047 C 
ATOM      3  CA  UNL     1       0.356   2.919  -0.495  0.00  0.00    +0.163 C 
ATOM      4  C   UNL     1       1.837   2.747  -0.298  0.00  0.00    +0.237 C 
ATOM      5  O   UNL     1       2.530   2.330  -1.202  0.00  0.00    -0.274 OA
ATOM      6  N   UNL     1       2.385   3.059   0.892  0.00  0.00    -0.285 N 
ATOM      7  C   UNL     1       3.810   2.816   1.147  0.00  0.00    +0.127 C 
ATOM      8  C   UNL     1       3.927   1.897   2.371  0.00  0.00    +0.128 C 
ATOM      9  N   UNL     1       3.066   2.423   3.439  0.00  0.00    -0.282 N 
ATOM     10  C   UNL     1       1.648   2.681   3.151  0.00  0.00    +0.141 C 
ATOM     11  CA  UNL     1       1.558   3.635   1.958  0.00  0.00    +0.179 C 
ATOM     12  C   UNL     1       0.102   3.933   1.707  0.00  0.00    +0.238 C 
ATOM     13  O   UNL     1      -0.593   4.379   2.595  0.00  0.00    -0.273 OA
ATOM     14  N   UNL     1      -0.420   3.688   0.499  0.00  0.00    -0.287 N 
ATOM     15  C   UNL     1      -1.664   4.087  -0.171  0.00  0.00    +0.123 C 
ATOM     16  C   UNL     1       3.570   2.666   4.666  0.00  0.00    +0.305 C 
ATOM     17  O   UNL     1       4.772   2.640   4.846  0.00  0.00    -0.252 OA
ATOM     18  N   UNL     1       2.740   2.937   5.693  0.00  0.00    -0.281 N 
ATOM     19  C   UNL     1       1.319   2.561   5.639  0.00  0.00    +0.137 C 
ATOM     20  C   UNL     1       0.975   1.799   6.929  0.00  0.00    +0.179 C 
ATOM     21  O   UNL     1       1.382   2.579   8.056  0.00  0.00    -0.377 OA
ATOM     22  C   UNL     1       2.790   2.814   8.127  0.00  0.00    +0.179 C 
ATOM     23  C   UNL     1       3.229   3.623   6.900  0.00  0.00    +0.137 C 
ENDROOT
BRANCH   1  24
ATOM     24  S   UNL     1      -1.580   5.811  -2.324  0.00  0.00    -0.148 S 
BRANCH  24  25
ATOM     25  C   UNL     1      -3.359   6.120  -2.152  0.00  0.00    +0.143 C 
BRANCH  25  28
ATOM     26  C   UNL     1      -4.226   9.222  -3.943  0.00  0.00    +0.041 A 
ATOM     27  C   UNL     1      -4.007   7.826  -3.919  0.00  0.00    +0.045 A 
ATOM     28  C   UNL     1      -3.679   7.504  -2.655  0.00  0.00    +0.115 A 
ATOM     29  O   UNL     1      -3.679   8.627  -1.918  0.00  0.00    -0.467 OA
ATOM     30  C   UNL     1      -4.010   9.672  -2.694  0.00  0.00    +0.195 A 
ENDBRANCH  25  28
ENDBRANCH  24  25
ENDBRANCH   1  24
TORSDOF 3
