REMARK  Name = ZINC58505841
REMARK  6 active torsions:
REMARK  status: ('A' for Active; 'I' for Inactive)
REMARK    1  A    between atoms: C_1  and  C_2
REMARK    2  A    between atoms: C_2  and  C_3
REMARK    3  A    between atoms: C_2  and  N_13
REMARK    4  A    between atoms: N_5  and  C_6
REMARK    5  A    between atoms: N_5  and  C_7
REMARK    6  A    between atoms: C_17  and  C_19
REMARK                            x       y       z     vdW  Elec       q    Type
REMARK                         _______ _______ _______ _____ _____    ______ ____
ROOT
ATOM      1  N   UNL     1       0.350   0.191  -1.579  0.00  0.00    +0.388 N 
ATOM      2  C   UNL     1      -0.060  -1.196  -1.831  0.00  0.00    -0.078 C 
ATOM      3  C   UNL     1       0.096  -1.516  -3.319  0.00  0.00    -0.018 C 
ATOM      4  C   UNL     1       1.562  -1.335  -3.723  0.00  0.00    +0.007 C 
ATOM      5  C   UNL     1       2.001   0.094  -3.387  0.00  0.00    +0.040 C 
ATOM      6  C   UNL     1       1.774   0.355  -1.897  0.00  0.00    -0.067 C 
ATOM      7  H   UNL     1      -0.196   0.812  -2.158  0.00  0.00    -0.081 HD
ENDROOT
BRANCH   5   8
ATOM      8  C   UNL     1       3.464   0.260  -3.710  0.00  0.00    +0.135 A 
ATOM      9  N   UNL     1       4.454  -0.423  -3.198  0.00  0.00    -0.134 NA
ATOM     10  N   UNL     1       5.566  -0.022  -3.707  0.00  0.00    -0.134 NA
ATOM     11  C   UNL     1       5.335   0.930  -4.566  0.00  0.00    +0.133 A 
ATOM     12  N   UNL     1       3.998   1.139  -4.587  0.00  0.00    -0.315 N 
ATOM     13  C   UNL     1       3.284   2.133  -5.388  0.00  0.00    +0.125 C 
ATOM     14  C   UNL     1       4.077   2.419  -6.667  0.00  0.00    +0.022 C 
ATOM     15  C   UNL     1       5.066   3.556  -6.416  0.00  0.00    +0.002 C 
ATOM     16  C   UNL     1       6.064   3.167  -5.330  0.00  0.00    +0.008 C 
ATOM     17  C   UNL     1       6.347   1.668  -5.402  0.00  0.00    +0.076 C 
ENDBRANCH   5   8
BRANCH   1  19
ATOM     18  C   UNL     1       0.572   1.956   0.104  0.00  0.00    -0.004 C 
ATOM     19  C   UNL     1       0.124   0.518  -0.165  0.00  0.00    +0.017 C 
BRANCH  19  20
ATOM     20  C   UNL     1      -1.342   0.381   0.154  0.00  0.00    +0.206 C 
ATOM     21  O   UNL     1      -2.168   0.503  -0.725  0.00  0.00    -0.277 OA
ATOM     22  N   UNL     1      -1.735   0.121   1.417  0.00  0.00    -0.276 N 
ATOM     23  C   UNL     1      -0.748   0.089   2.500  0.00  0.00    +0.138 C 
BRANCH  22  24
ATOM     24  C   UNL     1      -3.086  -0.117   1.695  0.00  0.00    +0.036 A 
ATOM     25  C   UNL     1      -3.601  -1.402   1.592  0.00  0.00    +0.023 A 
ATOM     26  C   UNL     1      -4.935  -1.634   1.866  0.00  0.00    +0.002 A 
ATOM     27  C   UNL     1      -5.756  -0.588   2.243  0.00  0.00    +0.000 A 
ATOM     28  C   UNL     1      -5.246   0.694   2.346  0.00  0.00    +0.002 A 
ATOM     29  C   UNL     1      -3.912   0.931   2.079  0.00  0.00    +0.023 A 
ENDBRANCH  22  24
ENDBRANCH  19  20
ENDBRANCH   1  19
TORSDOF 4
