REMARK  Name = ZINC38664435
REMARK  10 active torsions:
REMARK  status: ('A' for Active; 'I' for Inactive)
REMARK    1  A    between atoms: C_1  and  C_2
REMARK    2  A    between atoms: C_5  and  C_8
REMARK    3  A    between atoms: C_10  and  S_14
REMARK    4  A    between atoms: S_14  and  C_15
REMARK    5  A    between atoms: C_15  and  C_16
REMARK    6  A    between atoms: N_18  and  C_19
REMARK    7  A    between atoms: C_20  and  C_33
REMARK    8  A    between atoms: N_22  and  C_26
REMARK    9  A    between atoms: C_23  and  C_25
REMARK   10  A    between atoms: C_29  and  C_32
REMARK                            x       y       z     vdW  Elec       q    Type
REMARK                         _______ _______ _______ _____ _____    ______ ____
ROOT
ATOM      1  C   UNL     1       1.014  -6.756   5.853  0.00  0.00    +0.227 C 
ATOM      2  O   UNL     1       1.836  -6.745   6.745  0.00  0.00    -0.275 OA
ATOM      3  N   UNL     1       0.109  -7.753   5.782  0.00  0.00    -0.285 N 
ATOM      4  H   UNL     1      -0.592  -7.724   5.112  0.00  0.00    +0.155 HD
ENDROOT
BRANCH   3   5
ATOM      5  C   UNL     1       0.181  -8.829   6.675  0.00  0.00    +0.050 C 
ATOM      6  C   UNL     1       0.281 -10.107   6.353  0.00  0.00    +0.038 C 
ATOM      7  N   UNL     1       0.330 -10.918   7.481  0.00  0.00    -0.266 N 
ATOM      8  N   UNL     1       0.260 -10.137   8.643  0.00  0.00    -0.245 N 
ATOM      9  C   UNL     1       0.166  -8.740   8.185  0.00  0.00    +0.137 C 
ATOM     10  C   UNL     1      -1.142  -8.111   8.669  0.00  0.00    +0.036 C 
ATOM     11  C   UNL     1       0.333 -10.621   4.937  0.00  0.00    +0.063 C 
ATOM     12  H   UNL     1       0.403 -11.885   7.466  0.00  0.00    +0.170 HD
BRANCH   8  13
ATOM     13  C   UNL     1       0.280 -10.590   9.964  0.00  0.00    +0.048 A 
ATOM     14  C   UNL     1       0.195  -9.682  11.012  0.00  0.00    +0.025 A 
ATOM     15  C   UNL     1       0.215 -10.134  12.317  0.00  0.00    +0.005 A 
ATOM     16  C   UNL     1       0.320 -11.487  12.581  0.00  0.00    -0.050 A 
ATOM     17  C   UNL     1       0.405 -12.393  11.539  0.00  0.00    +0.005 A 
ATOM     18  C   UNL     1       0.380 -11.949  10.232  0.00  0.00    +0.025 A 
ATOM     19  C   UNL     1       0.342 -11.976  14.006  0.00  0.00    +0.044 C 
ENDBRANCH   8  13
ENDBRANCH   3   5
BRANCH   1  20
ATOM     20  C   UNL     1       1.006  -5.656   4.823  0.00  0.00    +0.173 C 
BRANCH  20  21
ATOM     21  S   UNL     1       2.334  -4.476   5.188  0.00  0.00    -0.077 S 
BRANCH  21  24
ATOM     22  C   UNL     1       1.496  -2.199   2.156  0.00  0.00    +0.182 A 
ATOM     23  N   UNL     1       1.307  -3.270   2.941  0.00  0.00    -0.201 NA
ATOM     24  C   UNL     1       2.193  -3.268   3.913  0.00  0.00    +0.185 A 
ATOM     25  N   UNL     1       2.977  -2.177   3.762  0.00  0.00    -0.253 N 
ATOM     26  H   UNL     1       3.718  -1.912   4.329  0.00  0.00    +0.191 HD
ATOM     27  N   UNL     1       2.511  -1.506   2.620  0.00  0.00    -0.152 NA
BRANCH  22  32
ATOM     28  C   UNL     1      -1.619  -0.869  -2.502  0.00  0.00    +0.044 C 
ATOM     29  C   UNL     1      -0.804  -1.217  -1.283  0.00  0.00    -0.050 A 
ATOM     30  C   UNL     1       0.244  -0.400  -0.898  0.00  0.00    +0.004 A 
ATOM     31  C   UNL     1       0.994  -0.714   0.217  0.00  0.00    +0.012 A 
ATOM     32  C   UNL     1       0.693  -1.856   0.956  0.00  0.00    +0.021 A 
ATOM     33  C   UNL     1      -0.364  -2.676   0.564  0.00  0.00    +0.012 A 
ATOM     34  C   UNL     1      -1.110  -2.349  -0.549  0.00  0.00    +0.004 A 
ENDBRANCH  22  32
ENDBRANCH  21  24
ENDBRANCH  20  21
ENDBRANCH   1  20
TORSDOF 6
