REMARK  Name = ZINC40020104
REMARK  6 active torsions:
REMARK  status: ('A' for Active; 'I' for Inactive)
REMARK    1  A    between atoms: C_1  and  C_2
REMARK    2  A    between atoms: C_4  and  N_15
REMARK    3  A    between atoms: N_5  and  C_7
REMARK    4  A    between atoms: C_16  and  C_18
REMARK    5  A    between atoms: C_18  and  N_19
REMARK    6  A    between atoms: C_23  and  C_26
REMARK                            x       y       z     vdW  Elec       q    Type
REMARK                         _______ _______ _______ _____ _____    ______ ____
ROOT
ATOM      1  C   UNL     1      -0.018   1.503   0.010  0.00  0.00    +0.067 C 
ATOM      2  C   UNL     1       0.002  -0.004   0.002  0.00  0.00    +0.062 A 
ATOM      3  C   UNL     1       0.008  -0.816  -1.135  0.00  0.00    +0.068 A 
ATOM      4  C   UNL     1       0.028  -2.113  -0.722  0.00  0.00    +0.124 A 
ATOM      5  N   UNL     1       0.035  -2.110   0.631  0.00  0.00    -0.246 N 
ATOM      6  N   UNL     1       0.023  -0.776   1.058  0.00  0.00    -0.175 NA
ENDROOT
BRANCH   5   7
ATOM      7  C   UNL     1       0.056  -3.292   1.496  0.00  0.00    +0.132 C 
ATOM      8  C   UNL     1       1.310  -3.252   2.385  0.00  0.00    +0.051 C 
ATOM      9  C   UNL     1       1.151  -4.330   3.495  0.00  0.00    +0.168 C 
ATOM     10  S   UNL     1      -0.629  -4.116   3.920  0.00  0.00    -0.029 S 
ATOM     11  O   UNL     1      -0.740  -3.195   4.997  0.00  0.00    -0.174 OA
ATOM     12  O   UNL     1      -1.235  -5.397   4.031  0.00  0.00    -0.174 OA
ATOM     13  C   UNL     1      -1.216  -3.306   2.378  0.00  0.00    +0.192 C 
ENDBRANCH   5   7
BRANCH   4  14
ATOM     14  N   UNL     1       0.040  -3.240  -1.543  0.00  0.00    -0.272 N 
ATOM     15  C   UNL     1       0.031  -3.097  -2.883  0.00  0.00    +0.202 C 
ATOM     16  O   UNL     1       0.014  -1.988  -3.375  0.00  0.00    -0.278 OA
ATOM     17  H   UNL     1       0.054  -4.126  -1.150  0.00  0.00    +0.156 HD
BRANCH  15  18
ATOM     18  C   UNL     1       0.044  -4.314  -3.771  0.00  0.00    +0.019 C 
BRANCH  18  19
ATOM     19  N   UNL     1       0.031  -3.895  -5.179  0.00  0.00    +0.386 N 
ATOM     20  C   UNL     1      -1.231  -3.204  -5.470  0.00  0.00    -0.078 C 
ATOM     21  C   UNL     1      -1.216  -2.693  -6.913  0.00  0.00    -0.018 C 
ATOM     22  C   UNL     1      -1.049  -3.880  -7.867  0.00  0.00    -0.001 C 
ATOM     23  C   UNL     1       0.233  -4.636  -7.505  0.00  0.00    -0.031 C 
ATOM     24  C   UNL     1       0.164  -5.075  -6.041  0.00  0.00    -0.075 C 
ATOM     25  C   UNL     1       0.369  -5.868  -8.403  0.00  0.00    +0.005 C 
ATOM     26  H   UNL     1       0.803  -3.267  -5.348  0.00  0.00    -0.081 HD
ENDBRANCH  18  19
ENDBRANCH  15  18
ENDBRANCH   4  14
TORSDOF 4
