REMARK  Name = ZINC22369352
REMARK  12 active torsions:
REMARK  status: ('A' for Active; 'I' for Inactive)
REMARK    1  A    between atoms: C_1  and  C_2
REMARK    2  A    between atoms: C_2  and  O_3
REMARK    3  A    between atoms: O_3  and  C_4
REMARK    4  A    between atoms: C_7  and  N_10
REMARK    5  A    between atoms: N_10  and  C_11
REMARK    6  A    between atoms: N_10  and  S_29
REMARK    7  A    between atoms: C_11  and  C_12
REMARK    8  A    between atoms: N_14  and  C_15
REMARK    9  A    between atoms: C_18  and  C_27
REMARK   10  A    between atoms: C_18  and  C_28
REMARK   11  A    between atoms: C_24  and  C_26
REMARK   12  A    between atoms: S_29  and  C_32
REMARK                            x       y       z     vdW  Elec       q    Type
REMARK                         _______ _______ _______ _____ _____    ______ ____
ROOT
ATOM      1  N   UNL     1       1.372  -0.472  -0.003  0.00  0.00    -0.194 N 
ENDROOT
BRANCH   1   5
ATOM      2  C   UNL     1       3.377  -0.805  -3.643  0.00  0.00    +0.121 A 
ATOM      3  C   UNL     1       2.384   0.150  -3.483  0.00  0.00    +0.047 A 
ATOM      4  C   UNL     1       1.719   0.261  -2.278  0.00  0.00    +0.028 A 
ATOM      5  C   UNL     1       2.045  -0.584  -1.225  0.00  0.00    +0.052 A 
ATOM      6  C   UNL     1       3.044  -1.535  -1.383  0.00  0.00    +0.028 A 
ATOM      7  C   UNL     1       3.704  -1.649  -2.592  0.00  0.00    +0.047 A 
BRANCH   2   8
ATOM      8  O   UNL     1       4.031  -0.914  -4.830  0.00  0.00    -0.492 OA
BRANCH   8  10
ATOM      9  C   UNL     1       5.662  -1.890  -6.323  0.00  0.00    +0.048 C 
ATOM     10  C   UNL     1       5.042  -1.919  -4.924  0.00  0.00    +0.225 C 
ENDBRANCH   8  10
ENDBRANCH   2   8
ENDBRANCH   1   5
BRANCH   1  11
ATOM     11  S   UNL     1       2.222  -0.177   1.387  0.00  0.00    +0.075 S 
ATOM     12  O   UNL     1       3.490   0.325   0.988  0.00  0.00    -0.150 OA
ATOM     13  O   UNL     1       1.353   0.544   2.249  0.00  0.00    -0.150 OA
BRANCH  11  14
ATOM     14  C   UNL     1       2.517  -1.734   2.157  0.00  0.00    +0.109 A 
ATOM     15  C   UNL     1       1.555  -2.293   2.977  0.00  0.00    +0.031 A 
ATOM     16  C   UNL     1       1.783  -3.516   3.577  0.00  0.00    +0.040 A 
ATOM     17  C   UNL     1       2.980  -4.178   3.366  0.00  0.00    +0.124 A 
ATOM     18  C   UNL     1       3.946  -3.615   2.549  0.00  0.00    +0.040 A 
ATOM     19  C   UNL     1       3.714  -2.394   1.945  0.00  0.00    +0.031 A 
ATOM     20  F   UNL     1       3.207  -5.372   3.957  0.00  0.00    -0.205 F 
ENDBRANCH  11  14
ENDBRANCH   1  11
BRANCH   1  21
ATOM     21  C   UNL     1      -0.085  -0.616   0.046  0.00  0.00    +0.227 C 
BRANCH  21  22
ATOM     22  C   UNL     1      -0.732   0.709  -0.267  0.00  0.00    +0.233 C 
ATOM     23  O   UNL     1      -0.043   1.678  -0.507  0.00  0.00    -0.274 OA
ATOM     24  N   UNL     1      -2.075   0.815  -0.285  0.00  0.00    -0.307 N 
ATOM     25  H   UNL     1      -2.700  -0.065  -0.071  0.00  0.00    +0.149 HD
BRANCH  24  26
ATOM     26  C   UNL     1      -2.704   2.103  -0.589  0.00  0.00    +0.110 C 
ATOM     27  C   UNL     1      -4.105   1.865  -1.156  0.00  0.00    +0.074 C 
ATOM     28  C   UNL     1      -4.847   3.208  -1.188  0.00  0.00    +0.107 C 
ATOM     29  O   UNL     1      -5.022   3.656   0.157  0.00  0.00    -0.486 OA
ATOM     30  C   UNL     1      -3.937   3.653   0.974  0.00  0.00    +0.126 A 
ATOM     31  C   UNL     1      -2.799   2.925   0.672  0.00  0.00    +0.015 A 
ATOM     32  C   UNL     1      -1.720   2.943   1.539  0.00  0.00    +0.009 A 
ATOM     33  C   UNL     1      -1.772   3.687   2.702  0.00  0.00    +0.004 A 
ATOM     34  C   UNL     1      -2.905   4.418   3.004  0.00  0.00    -0.047 A 
ATOM     35  C   UNL     1      -3.985   4.403   2.144  0.00  0.00    +0.049 A 
ATOM     36  C   UNL     1      -2.963   5.231   4.272  0.00  0.00    +0.044 C 
ATOM     37  C   UNL     1      -6.213   3.026  -1.853  0.00  0.00    +0.055 C 
ATOM     38  C   UNL     1      -4.025   4.233  -1.971  0.00  0.00    +0.055 C 
ENDBRANCH  24  26
ENDBRANCH  21  22
ENDBRANCH   1  21
TORSDOF 8
