REMARK  Name = ZINC43463907
REMARK  4 active torsions:
REMARK  status: ('A' for Active; 'I' for Inactive)
REMARK    1  A    between atoms: C_2  and  C_22
REMARK    2  A    between atoms: C_5  and  C_7
REMARK    3  A    between atoms: C_13  and  C_18
REMARK    4  A    between atoms: C_28  and  C_33
REMARK                            x       y       z     vdW  Elec       q    Type
REMARK                         _______ _______ _______ _____ _____    ______ ____
ROOT
ATOM      1  C   UNL     1       0.301   1.337  -1.209  0.00  0.00    +0.008 A 
ATOM      2  C   UNL     1       1.492   2.032  -0.963  0.00  0.00    -0.025 A 
ATOM      3  C   UNL     1       2.563   1.384  -0.336  0.00  0.00    +0.008 A 
ATOM      4  C   UNL     1       2.448   0.076   0.035  0.00  0.00    +0.008 A 
ATOM      5  C   UNL     1       1.257  -0.619  -0.211  0.00  0.00    -0.025 A 
ATOM      6  C   UNL     1       0.186   0.028  -0.839  0.00  0.00    +0.008 A 
ENDROOT
BRANCH   5   7
ATOM      7  C   UNL     1       1.133  -2.029   0.188  0.00  0.00    +0.013 C 
ATOM      8  C   UNL     1      -0.051  -2.505   0.620  0.00  0.00    -0.022 C 
ATOM      9  C   UNL     1      -0.283  -3.937   0.869  0.00  0.00    +0.065 A 
ATOM     10  N   UNL     1       0.459  -5.021   0.554  0.00  0.00    -0.276 N 
ATOM     11  H   UNL     1       1.310  -5.019   0.089  0.00  0.00    +0.189 HD
ATOM     12  N   UNL     1      -0.229  -6.152   1.025  0.00  0.00    -0.169 NA
ATOM     13  C   UNL     1      -1.343  -5.764   1.604  0.00  0.00    +0.169 A 
ATOM     14  C   UNL     1      -1.421  -4.384   1.533  0.00  0.00    +0.009 A 
ATOM     15  C   UNL     1      -2.490  -3.457   2.049  0.00  0.00    +0.040 C 
ATOM     16  C   UNL     1      -1.911  -2.047   2.191  0.00  0.00    +0.009 C 
ATOM     17  C   UNL     1      -1.244  -1.600   0.892  0.00  0.00    +0.037 C 
BRANCH  13  18
ATOM     18  C   UNL     1      -2.365  -6.670   2.239  0.00  0.00    +0.436 C 
ATOM     19  F   UNL     1      -1.896  -7.988   2.221  0.00  0.00    -0.164 F 
ATOM     20  F   UNL     1      -2.585  -6.271   3.561  0.00  0.00    -0.164 F 
ATOM     21  F   UNL     1      -3.565  -6.593   1.523  0.00  0.00    -0.164 F 
ENDBRANCH  13  18
ENDBRANCH   5   7
BRANCH   2  22
ATOM     22  C   UNL     1       1.616   3.441  -1.362  0.00  0.00    +0.013 C 
ATOM     23  C   UNL     1       0.981   3.888  -2.463  0.00  0.00    -0.022 C 
ATOM     24  C   UNL     1       0.942   5.314  -2.827  0.00  0.00    +0.065 A 
ATOM     25  N   UNL     1       1.289   6.416  -2.128  0.00  0.00    -0.276 N 
ATOM     26  H   UNL     1       1.641   6.436  -1.224  0.00  0.00    +0.189 HD
ATOM     27  N   UNL     1       1.048   7.530  -2.950  0.00  0.00    -0.169 NA
ATOM     28  C   UNL     1       0.575   7.114  -4.103  0.00  0.00    +0.169 A 
ATOM     29  C   UNL     1       0.491   5.732  -4.075  0.00  0.00    +0.009 A 
ATOM     30  C   UNL     1       0.019   4.779  -5.142  0.00  0.00    +0.040 C 
ATOM     31  C   UNL     1       0.577   3.382  -4.854  0.00  0.00    +0.009 C 
ATOM     32  C   UNL     1       0.258   2.955  -3.423  0.00  0.00    +0.037 C 
BRANCH  28  33
ATOM     33  C   UNL     1       0.187   7.994  -5.263  0.00  0.00    +0.436 C 
ATOM     34  F   UNL     1       0.514   9.322  -4.970  0.00  0.00    -0.164 F 
ATOM     35  F   UNL     1       0.876   7.586  -6.409  0.00  0.00    -0.164 F 
ATOM     36  F   UNL     1      -1.191   7.891  -5.486  0.00  0.00    -0.164 F 
ENDBRANCH  28  33
ENDBRANCH   2  22
TORSDOF 4
