REMARK  Name = ZINC09381059
REMARK  7 active torsions:
REMARK  status: ('A' for Active; 'I' for Inactive)
REMARK    1  A    between atoms: C_3  and  N_30
REMARK    2  A    between atoms: C_6  and  C_7
REMARK    3  A    between atoms: C_7  and  S_8
REMARK    4  A    between atoms: S_8  and  C_9
REMARK    5  A    between atoms: C_14  and  C_16
REMARK    6  A    between atoms: C_19  and  S_22
REMARK    7  A    between atoms: S_22  and  N_25
REMARK                            x       y       z     vdW  Elec       q    Type
REMARK                         _______ _______ _______ _____ _____    ______ ____
ROOT
ATOM      1  C   UNL     1       1.525   1.782   0.063  0.00  0.00    +0.159 C 
ATOM      2  N   UNL     1       0.237   1.694   0.129  0.00  0.00    -0.261 NA
ATOM      3  C   UNL     1      -0.174   0.284   0.159  0.00  0.00    +0.163 C 
ATOM      4  C   UNL     1       1.154  -0.496   0.096  0.00  0.00    +0.139 C 
ATOM      5  N   UNL     1       2.170   0.569   0.037  0.00  0.00    -0.245 N 
ATOM      6  C   UNL     1       3.503   0.385  -0.029  0.00  0.00    +0.252 C 
ATOM      7  O   UNL     1       4.242   1.339  -0.170  0.00  0.00    -0.270 OA
ENDROOT
BRANCH   6   8
ATOM      8  C   UNL     1       4.067  -0.978   0.069  0.00  0.00    +0.037 A 
ATOM      9  C   UNL     1       3.220  -2.088   0.077  0.00  0.00    +0.015 A 
ATOM     10  C   UNL     1       3.753  -3.358   0.164  0.00  0.00    +0.029 A 
ATOM     11  C   UNL     1       5.123  -3.531   0.254  0.00  0.00    +0.106 A 
ATOM     12  C   UNL     1       5.968  -2.435   0.252  0.00  0.00    +0.029 A 
ATOM     13  C   UNL     1       5.448  -1.161   0.160  0.00  0.00    +0.015 A 
BRANCH  11  14
ATOM     14  S   UNL     1       5.795  -5.156   0.371  0.00  0.00    +0.061 S 
ATOM     15  O   UNL     1       4.834  -6.035  -0.197  0.00  0.00    -0.153 OA
ATOM     16  O   UNL     1       7.132  -5.078  -0.105  0.00  0.00    -0.153 OA
BRANCH  14  17
ATOM     17  N   UNL     1       5.888  -5.533   1.981  0.00  0.00    -0.177 NA
ATOM     18  C   UNL     1       7.040  -5.274   2.857  0.00  0.00    +0.109 C 
ATOM     19  C   UNL     1       6.682  -5.814   4.257  0.00  0.00    +0.018 C 
ATOM     20  C   UNL     1       5.577  -6.860   3.952  0.00  0.00    +0.018 C 
ATOM     21  C   UNL     1       4.831  -6.188   2.772  0.00  0.00    +0.109 C 
ENDBRANCH  14  17
ENDBRANCH  11  14
ENDBRANCH   6   8
BRANCH   1  22
ATOM     22  S   UNL     1       2.379   3.322   0.011  0.00  0.00    -0.086 S 
BRANCH  22  23
ATOM     23  C   UNL     1       0.975   4.463   0.075  0.00  0.00    +0.112 C 
BRANCH  23  29
ATOM     24  C   UNL     1       1.765   6.543   1.221  0.00  0.00    +0.007 A 
ATOM     25  C   UNL     1       2.232   7.843   1.190  0.00  0.00    +0.033 A 
ATOM     26  C   UNL     1       2.403   8.488  -0.021  0.00  0.00    +0.126 A 
ATOM     27  C   UNL     1       2.112   7.829  -1.201  0.00  0.00    +0.033 A 
ATOM     28  C   UNL     1       1.650   6.527  -1.170  0.00  0.00    +0.007 A 
ATOM     29  C   UNL     1       1.479   5.883   0.041  0.00  0.00    -0.037 A 
BRANCH  26  30
ATOM     30  N   UNL     1       2.898   9.882  -0.054  0.00  0.00    +0.056 N 
ATOM     31  O   UNL     1       3.049  10.449  -1.122  0.00  0.00    -0.126 OA
ATOM     32  O   UNL     1       3.155  10.462   0.985  0.00  0.00    -0.126 OA
ENDBRANCH  26  30
ENDBRANCH  23  29
ENDBRANCH  22  23
ENDBRANCH   1  22
TORSDOF 7
