REMARK  Name = ZINC31164506
REMARK  14 active torsions:
REMARK  status: ('A' for Active; 'I' for Inactive)
REMARK    1  A    between atoms: C_1  and  C_2
REMARK    2  A    between atoms: C_2  and  C_3
REMARK    3  A    between atoms: C_2  and  C_4
REMARK    4  A    between atoms: C_4  and  O_6
REMARK    5  A    between atoms: O_6  and  C_7
REMARK    6  A    between atoms: C_10  and  C_33
REMARK    7  A    between atoms: C_16  and  C_32
REMARK    8  A    between atoms: C_23  and  C_27
REMARK    9  A    between atoms: C_27  and  O_28
REMARK   10  A    between atoms: O_28  and  C_29
REMARK   11  A    between atoms: C_29  and  C_31
REMARK   12  A    between atoms: C_33  and  O_34
REMARK   13  A    between atoms: O_34  and  C_35
REMARK   14  A    between atoms: C_35  and  C_37
REMARK                            x       y       z     vdW  Elec       q    Type
REMARK                         _______ _______ _______ _____ _____    ______ ____
ROOT
ATOM      1  C   UNL     1       2.032   1.173   2.501  0.00  0.00    +0.210 C 
ATOM      2  C   UNL     1       2.099   0.496   1.190  0.00  0.00    +0.090 C 
ATOM      3  C   UNL     1       1.010   0.844   0.162  0.00  0.00    +0.137 C 
ATOM      4  C   UNL     1      -0.194   1.517   0.213  0.00  0.00    +0.177 C 
ATOM      5  O   UNL     1      -0.232   0.096   0.238  0.00  0.00    -0.357 OA
ATOM      6  C   UNL     1      -0.933   2.267   1.250  0.00  0.00    +0.006 C 
ATOM      7  C   UNL     1      -0.758   3.494   1.725  0.00  0.00    +0.008 C 
ATOM      8  C   UNL     1       0.363   4.355   1.368  0.00  0.00    +0.115 C 
ATOM      9  C   UNL     1       1.476   4.244   2.349  0.00  0.00    +0.200 C 
ATOM     10  O   UNL     1       0.864   5.501   2.183  0.00  0.00    -0.357 OA
ATOM     11  C   UNL     1       2.762   3.665   1.743  0.00  0.00    +0.239 C 
ATOM     12  C   UNL     1       3.012   2.317   2.597  0.00  0.00    +0.026 C 
ATOM     13  C   UNL     1       4.148   2.532   3.279  0.00  0.00    +0.080 C 
ATOM     14  C   UNL     1       4.664   3.817   2.895  0.00  0.00    +0.339 C 
ATOM     15  O   UNL     1       5.754   4.222   3.392  0.00  0.00    -0.245 OA
ATOM     16  O   UNL     1       3.940   4.454   2.038  0.00  0.00    -0.451 OA
ATOM     17  C   UNL     1       0.535   4.649  -0.140  0.00  0.00    +0.049 C 
ENDROOT
BRANCH   1  18
ATOM     18  O   UNL     1       0.719   1.496   2.978  0.00  0.00    -0.456 OA
BRANCH  18  19
ATOM     19  C   UNL     1       0.541   1.516   4.308  0.00  0.00    +0.310 C 
ATOM     20  O   UNL     1       1.466   1.270   5.045  0.00  0.00    -0.251 OA
BRANCH  19  22
ATOM     21  C   UNL     1      -1.839   0.827   4.388  0.00  0.00    +0.019 C 
ATOM     22  C   UNL     1      -0.812   1.847   4.882  0.00  0.00    +0.092 C 
ATOM     23  C   UNL     1      -0.743   1.802   6.410  0.00  0.00    +0.019 C 
ENDBRANCH  19  22
ENDBRANCH  18  19
ENDBRANCH   1  18
BRANCH  13  24
ATOM     24  C   UNL     1       4.704   1.518   4.258  0.00  0.00    +0.275 C 
BRANCH  24  25
ATOM     25  O   UNL     1       6.061   1.170   3.877  0.00  0.00    -0.460 OA
BRANCH  25  26
ATOM     26  C   UNL     1       6.700   0.276   4.647  0.00  0.00    +0.304 C 
ATOM     27  O   UNL     1       6.144  -0.200   5.609  0.00  0.00    -0.251 OA
ATOM     28  C   UNL     1       8.111  -0.134   4.313  0.00  0.00    +0.136 C 
ENDBRANCH  25  26
ENDBRANCH  24  25
ENDBRANCH  13  24
BRANCH   3  29
ATOM     29  C   UNL     1       1.629   0.694  -1.255  0.00  0.00    +0.270 C 
BRANCH  29  30
ATOM     30  O   UNL     1       2.885  -0.029  -1.161  0.00  0.00    -0.462 OA
BRANCH  30  31
ATOM     31  C   UNL     1       3.552  -0.244  -2.305  0.00  0.00    +0.304 C 
ATOM     32  O   UNL     1       3.102   0.159  -3.352  0.00  0.00    -0.251 OA
ATOM     33  C   UNL     1       4.863  -0.987  -2.285  0.00  0.00    +0.136 C 
ENDBRANCH  30  31
ENDBRANCH  29  30
ENDBRANCH   3  29
TORSDOF 9
