REMARK  Name = ZINC39770782
REMARK  12 active torsions:
REMARK  status: ('A' for Active; 'I' for Inactive)
REMARK    1  A    between atoms: C_1  and  C_2
REMARK    2  A    between atoms: C_2  and  C_3
REMARK    3  A    between atoms: C_3  and  C_4
REMARK    4  A    between atoms: C_4  and  N_5
REMARK    5  A    between atoms: C_6  and  N_30
REMARK    6  A    between atoms: C_7  and  C_15
REMARK    7  A    between atoms: C_8  and  C_14
REMARK    8  A    between atoms: C_9  and  C_12
REMARK    9  A    between atoms: N_19  and  C_23
REMARK   10  A    between atoms: C_23  and  C_24
REMARK   11  A    between atoms: C_32  and  C_39
REMARK   12  A    between atoms: C_35  and  C_38
REMARK                            x       y       z     vdW  Elec       q    Type
REMARK                         _______ _______ _______ _____ _____    ______ ____
ROOT
ATOM      1  N   UNL     1       1.674  -1.920  -2.889  0.00  0.00    -0.295 N 
ATOM      2  C   UNL     1       0.730  -2.312  -3.783  0.00  0.00    +0.112 A 
ATOM      3  C   UNL     1       1.060  -3.184  -4.833  0.00  0.00    +0.019 A 
ATOM      4  C   UNL     1       2.380  -3.652  -4.955  0.00  0.00    -0.017 A 
ATOM      5  C   UNL     1       3.329  -3.235  -4.026  0.00  0.00    +0.120 A 
ATOM      6  C   UNL     1       2.946  -2.349  -2.987  0.00  0.00    +0.270 A 
ATOM      7  O   UNL     1       3.773  -1.977  -2.174  0.00  0.00    -0.266 OA
ATOM      8  C   UNL     1       2.760  -4.589  -6.072  0.00  0.00    +0.046 C 
ENDROOT
BRANCH   3   9
ATOM      9  C   UNL     1       0.037  -3.604  -5.793  0.00  0.00    +0.032 C 
ATOM     10  C   UNL     1       0.181  -3.308  -7.114  0.00  0.00    +0.077 C 
ATOM     11  C   UNL     1       1.151  -2.482  -7.759  0.00  0.00    +0.258 C 
ATOM     12  O   UNL     1       2.018  -1.915  -7.119  0.00  0.00    -0.269 OA
ATOM     13  N   UNL     1       1.079  -2.351  -9.073  0.00  0.00    -0.253 N 
ATOM     14  C   UNL     1       0.117  -2.980  -9.783  0.00  0.00    +0.121 C 
ATOM     15  S   UNL     1      -0.161  -2.953 -11.472  0.00  0.00    -0.027 S 
ATOM     16  S   UNL     1      -0.787  -3.854  -8.514  0.00  0.00    -0.061 S 
BRANCH  13  17
ATOM     17  C   UNL     1       2.057  -1.511  -9.768  0.00  0.00    +0.146 C 
BRANCH  17  18
ATOM     18  C   UNL     1       3.264  -2.361 -10.172  0.00  0.00    +0.136 C 
ATOM     19  C   UNL     1       4.352  -1.462 -10.798  0.00  0.00    +0.035 C 
ATOM     20  C   UNL     1       4.887  -2.349 -11.955  0.00  0.00    +0.031 C 
ATOM     21  C   UNL     1       3.593  -3.087 -12.382  0.00  0.00    +0.160 C 
ATOM     22  O   UNL     1       2.873  -3.322 -11.159  0.00  0.00    -0.375 OA
ENDBRANCH  17  18
ENDBRANCH  13  17
ENDBRANCH   3   9
BRANCH   2  23
ATOM     23  N   UNL     1      -0.549  -1.855  -3.660  0.00  0.00    -0.311 N 
ATOM     24  C   UNL     1      -0.890  -0.460  -3.981  0.00  0.00    +0.137 C 
ATOM     25  C   UNL     1      -2.092  -0.462  -4.932  0.00  0.00    +0.133 C 
ATOM     26  O   UNL     1      -3.138  -1.256  -4.366  0.00  0.00    -0.371 OA
ATOM     27  C   UNL     1      -2.797  -2.633  -4.190  0.00  0.00    +0.133 C 
ATOM     28  C   UNL     1      -1.631  -2.744  -3.207  0.00  0.00    +0.137 C 
ATOM     29  C   UNL     1      -4.006  -3.393  -3.641  0.00  0.00    +0.039 C 
ATOM     30  C   UNL     1      -1.676  -1.050  -6.282  0.00  0.00    +0.039 C 
ENDBRANCH   2  23
BRANCH   5  31
ATOM     31  C   UNL     1       4.682  -3.693  -4.122  0.00  0.00    +0.105 C 
ATOM     32  N   UNL     1       5.756  -4.057  -4.197  0.00  0.00    -0.191 NA
ENDBRANCH   5  31
BRANCH   1  33
ATOM     33  C   UNL     1       1.303  -1.010  -1.803  0.00  0.00    +0.126 C 
BRANCH  33  34
ATOM     34  C   UNL     1       1.655   0.425  -2.198  0.00  0.00    +0.021 C 
BRANCH  34  36
ATOM     35  C   UNL     1       1.504   2.824  -1.516  0.00  0.00    +0.004 C 
ATOM     36  C   UNL     1       1.152   1.389  -1.121  0.00  0.00    -0.002 C 
ENDBRANCH  34  36
ENDBRANCH  33  34
ENDBRANCH   1  33
TORSDOF 8
