REMARK  Name = ZINC53405156
REMARK  8 active torsions:
REMARK  status: ('A' for Active; 'I' for Inactive)
REMARK    1  A    between atoms: C_1  and  C_2
REMARK    2  A    between atoms: N_6  and  C_8
REMARK    3  A    between atoms: C_8  and  C_9
REMARK    4  A    between atoms: C_8  and  C_10
REMARK    5  A    between atoms: C_8  and  C_11
REMARK    6  A    between atoms: C_11  and  N_12
REMARK    7  A    between atoms: C_13  and  C_15
REMARK    8  A    between atoms: C_15  and  C_16
REMARK                            x       y       z     vdW  Elec       q    Type
REMARK                         _______ _______ _______ _____ _____    ______ ____
ROOT
ATOM      1  N   UNL     1       2.189  -4.461   1.137  0.00  0.00    -0.316 N 
ATOM      2  C   UNL     1       2.323  -5.782   0.909  0.00  0.00    +0.220 C 
ATOM      3  O   UNL     1       1.929  -6.582   1.731  0.00  0.00    -0.275 OA
ATOM      4  H   UNL     1       2.503  -3.821   0.480  0.00  0.00    +0.149 HD
ENDROOT
BRANCH   1   5
ATOM      5  C   UNL     1       1.568  -3.991   2.378  0.00  0.00    +0.092 C 
BRANCH   5   6
ATOM      6  C   UNL     1       1.539  -2.461   2.387  0.00  0.00    -0.055 C 
ATOM      7  C   UNL     1       2.969  -1.923   2.296  0.00  0.00    -0.008 C 
ATOM      8  C   UNL     1       0.891  -1.970   3.683  0.00  0.00    -0.008 C 
BRANCH   6  14
ATOM      9  C   UNL     1      -0.019   1.526   0.010  0.00  0.00    +0.005 C 
ATOM     10  C   UNL     1       0.002  -0.004   0.002  0.00  0.00    -0.031 C 
ATOM     11  C   UNL     1      -1.434  -0.535   0.018  0.00  0.00    -0.001 C 
ATOM     12  C   UNL     1      -1.402  -2.064   0.089  0.00  0.00    -0.018 C 
ATOM     13  C   UNL     1      -0.610  -2.496   1.325  0.00  0.00    -0.078 C 
ATOM     14  N   UNL     1       0.761  -1.980   1.237  0.00  0.00    +0.384 N 
ATOM     15  C   UNL     1       0.742  -0.512   1.241  0.00  0.00    -0.075 C 
ATOM     16  H   UNL     1       1.189  -2.307   0.384  0.00  0.00    -0.081 HD
ENDBRANCH   6  14
ENDBRANCH   5   6
ENDBRANCH   1   5
BRANCH   2  17
ATOM     17  C   UNL     1       2.961  -6.266  -0.367  0.00  0.00    +0.173 C 
BRANCH  17  18
ATOM     18  C   UNL     1       2.990  -7.772  -0.376  0.00  0.00    +0.162 A 
ATOM     19  N   UNL     1       3.973  -8.521   0.106  0.00  0.00    -0.193 NA
ATOM     20  C   UNL     1       3.681  -9.806  -0.060  0.00  0.00    +0.253 A 
ATOM     21  N   UNL     1       4.338 -10.930   0.253  0.00  0.00    -0.219 NA
ATOM     22  C   UNL     1       3.825 -12.107  -0.021  0.00  0.00    +0.116 A 
ATOM     23  C   UNL     1       2.577 -12.207  -0.647  0.00  0.00    +0.040 A 
ATOM     24  C   UNL     1       1.903 -11.072  -0.968  0.00  0.00    +0.118 A 
ATOM     25  N   UNL     1       2.461  -9.868  -0.671  0.00  0.00    -0.204 N 
ATOM     26  N   UNL     1       2.043  -8.544  -0.855  0.00  0.00    -0.148 NA
ENDBRANCH  17  18
ENDBRANCH   2  17
TORSDOF 5
