REMARK  Name = ZINC51046492
REMARK  8 active torsions:
REMARK  status: ('A' for Active; 'I' for Inactive)
REMARK    1  A    between atoms: C_1  and  C_2
REMARK    2  A    between atoms: C_2  and  C_4
REMARK    3  A    between atoms: C_2  and  N_13
REMARK    4  A    between atoms: N_9  and  C_10
REMARK    5  A    between atoms: C_10  and  C_11
REMARK    6  A    between atoms: C_10  and  C_12
REMARK    7  A    between atoms: C_17  and  C_20
REMARK    8  A    between atoms: N_22  and  C_23
REMARK                            x       y       z     vdW  Elec       q    Type
REMARK                         _______ _______ _______ _____ _____    ______ ____
ROOT
ATOM      1  N   UNL     1      -1.094  -0.938  -0.287  0.00  0.00    +0.388 N 
ATOM      2  C   UNL     1      -0.559  -2.300  -0.395  0.00  0.00    -0.078 C 
ATOM      3  C   UNL     1      -1.707  -3.288  -0.616  0.00  0.00    -0.018 C 
ATOM      4  C   UNL     1      -2.445  -2.924  -1.907  0.00  0.00    +0.009 C 
ATOM      5  C   UNL     1      -2.934  -1.476  -1.813  0.00  0.00    +0.058 C 
ATOM      6  C   UNL     1      -1.741  -0.556  -1.548  0.00  0.00    -0.065 C 
ATOM      7  H   UNL     1      -1.771  -0.903   0.461  0.00  0.00    -0.081 HD
ENDROOT
BRANCH   5   8
ATOM      8  C   UNL     1      -3.596  -1.083  -3.109  0.00  0.00    +0.215 C 
ATOM      9  O   UNL     1      -3.159  -0.155  -3.756  0.00  0.00    -0.276 OA
ATOM     10  N   UNL     1      -4.673  -1.763  -3.549  0.00  0.00    -0.312 N 
ATOM     11  H   UNL     1      -5.023  -2.505  -3.031  0.00  0.00    +0.149 HD
BRANCH  10  12
ATOM     12  C   UNL     1      -5.316  -1.381  -4.809  0.00  0.00    +0.073 C 
ATOM     13  C   UNL     1      -6.845  -1.329  -4.834  0.00  0.00    +0.024 C 
ATOM     14  C   UNL     1      -6.107  -2.459  -5.553  0.00  0.00    +0.024 C 
ENDBRANCH  10  12
ENDBRANCH   5   8
BRANCH   1  16
ATOM     15  C   UNL     1      -0.557   1.414   0.134  0.00  0.00    -0.004 C 
ATOM     16  C   UNL     1       0.002  -0.004   0.002  0.00  0.00    +0.017 C 
BRANCH  16  17
ATOM     17  C   UNL     1       0.673  -0.401   1.292  0.00  0.00    +0.207 C 
ATOM     18  O   UNL     1       0.041  -0.974   2.153  0.00  0.00    -0.277 OA
ATOM     19  N   UNL     1       1.977  -0.120   1.487  0.00  0.00    -0.242 N 
ATOM     20  C   UNL     1       2.577  -0.475   2.640  0.00  0.00    +0.306 C 
ATOM     21  O   UNL     1       1.943  -1.049   3.504  0.00  0.00    -0.252 OA
ATOM     22  N   UNL     1       3.881  -0.194   2.836  0.00  0.00    -0.297 N 
ATOM     23  H   UNL     1       2.483   0.338   0.798  0.00  0.00    +0.159 HD
ATOM     24  H   UNL     1       4.387   0.264   2.146  0.00  0.00    +0.151 HD
BRANCH  22  25
ATOM     25  C   UNL     1       4.533  -0.581   4.089  0.00  0.00    +0.068 C 
ATOM     26  C   UNL     1       6.037  -0.738   3.854  0.00  0.00    +0.027 C 
ATOM     27  C   UNL     1       4.293   0.502   5.144  0.00  0.00    +0.027 C 
ENDBRANCH  22  25
ENDBRANCH  16  17
ENDBRANCH   1  16
TORSDOF 5
