REMARK  Name = ZINC12028108
REMARK  8 active torsions:
REMARK  status: ('A' for Active; 'I' for Inactive)
REMARK    1  A    between atoms: C_1  and  C_2
REMARK    2  A    between atoms: C_4  and  C_8
REMARK    3  A    between atoms: N_5  and  C_7
REMARK    4  A    between atoms: N_10  and  C_11
REMARK    5  A    between atoms: N_10  and  C_30
REMARK    6  A    between atoms: C_11  and  C_12
REMARK    7  A    between atoms: C_20  and  N_21
REMARK    8  A    between atoms: C_30  and  C_31
REMARK                            x       y       z     vdW  Elec       q    Type
REMARK                         _______ _______ _______ _____ _____    ______ ____
ROOT
ATOM      1  C   UNL     1      -3.528   2.372  -2.634  0.00  0.00    +0.008 A 
ATOM      2  C   UNL     1      -4.562   3.195  -2.304  0.00  0.00    +0.018 A 
ATOM      3  C   UNL     1      -4.535   4.523  -2.777  0.00  0.00    -0.001 A 
ATOM      4  C   UNL     1      -5.564   5.426  -2.474  0.00  0.00    +0.014 A 
ATOM      5  C   UNL     1      -5.510   6.706  -2.946  0.00  0.00    -0.043 A 
ATOM      6  C   UNL     1      -4.438   7.129  -3.731  0.00  0.00    -0.042 A 
ATOM      7  C   UNL     1      -3.421   6.272  -4.043  0.00  0.00    +0.030 A 
ATOM      8  C   UNL     1      -3.445   4.950  -3.573  0.00  0.00    +0.048 A 
ATOM      9  C   UNL     1      -2.474   2.855  -3.421  0.00  0.00    +0.104 A 
ATOM     10  C   UNL     1      -4.633   8.581  -4.114  0.00  0.00    +0.036 C 
ATOM     11  C   UNL     1      -5.691   9.122  -3.130  0.00  0.00    +0.009 C 
ATOM     12  C   UNL     1      -6.484   7.851  -2.759  0.00  0.00    +0.036 C 
ATOM     13  N   UNL     1      -2.399   4.119  -3.908  0.00  0.00    -0.343 N 
ATOM     14  H   UNL     1      -1.613   4.436  -4.489  0.00  0.00    +0.167 HD
ENDROOT
BRANCH   9  15
ATOM     15  N   UNL     1      -1.425   2.007  -3.744  0.00  0.00    -0.312 N 
ATOM     16  C   UNL     1      -0.138   2.716  -3.692  0.00  0.00    +0.134 C 
ATOM     17  C   UNL     1       0.994   1.731  -3.996  0.00  0.00    +0.178 C 
ATOM     18  O   UNL     1       0.761   1.123  -5.270  0.00  0.00    -0.377 OA
ATOM     19  C   UNL     1      -0.483   0.424  -5.355  0.00  0.00    +0.178 C 
ATOM     20  C   UNL     1      -1.630   1.395  -5.065  0.00  0.00    +0.134 C 
ENDBRANCH   9  15
BRANCH   1  21
ATOM     21  C   UNL     1      -3.515   0.945  -2.149  0.00  0.00    +0.146 C 
BRANCH  21  24
ATOM     22  C   UNL     1      -3.155   1.129   0.254  0.00  0.00    +0.265 C 
ATOM     23  O   UNL     1      -4.316   1.472   0.372  0.00  0.00    -0.268 OA
ATOM     24  N   UNL     1      -2.659   0.839  -0.965  0.00  0.00    -0.289 N 
BRANCH  22  28
ATOM     25  C   UNL     1       0.707   0.214   3.411  0.00  0.00    +0.067 C 
ATOM     26  C   UNL     1      -0.618   0.639   2.832  0.00  0.00    +0.061 A 
ATOM     27  C   UNL     1      -1.008   0.519   1.496  0.00  0.00    +0.057 A 
ATOM     28  C   UNL     1      -2.293   1.032   1.442  0.00  0.00    +0.123 A 
ATOM     29  N   UNL     1      -2.598   1.431   2.712  0.00  0.00    -0.262 N 
ATOM     30  N   UNL     1      -1.607   1.186   3.491  0.00  0.00    -0.176 NA
ATOM     31  C   UNL     1      -3.865   2.041   3.124  0.00  0.00    +0.173 C 
ENDBRANCH  22  28
BRANCH  24  32
ATOM     32  C   UNL     1      -1.263   0.418  -1.106  0.00  0.00    +0.140 C 
BRANCH  32  33
ATOM     33  C   UNL     1      -1.136  -1.061  -0.734  0.00  0.00    +0.136 C 
ATOM     34  C   UNL     1       0.343  -1.503  -0.783  0.00  0.00    +0.035 C 
ATOM     35  C   UNL     1       0.286  -2.942  -1.343  0.00  0.00    +0.031 C 
ATOM     36  C   UNL     1      -1.220  -3.199  -1.565  0.00  0.00    +0.160 C 
ATOM     37  O   UNL     1      -1.801  -1.885  -1.716  0.00  0.00    -0.375 OA
ENDBRANCH  32  33
ENDBRANCH  24  32
ENDBRANCH  21  24
ENDBRANCH   1  21
TORSDOF 6
