REMARK  Name = ZINC21201253
REMARK  8 active torsions:
REMARK  status: ('A' for Active; 'I' for Inactive)
REMARK    1  A    between atoms: C_1  and  N_2
REMARK    2  A    between atoms: N_2  and  C_3
REMARK    3  A    between atoms: N_2  and  C_4
REMARK    4  A    between atoms: C_4  and  C_11
REMARK    5  A    between atoms: C_11  and  N_12
REMARK    6  A    between atoms: C_13  and  C_15
REMARK    7  A    between atoms: C_15  and  N_16
REMARK    8  A    between atoms: C_17  and  C_19
REMARK                            x       y       z     vdW  Elec       q    Type
REMARK                         _______ _______ _______ _____ _____    ______ ____
ROOT
ATOM      1  N   UNL     1       4.753  -0.135   2.023  0.00  0.00    -0.315 N 
ATOM      2  C   UNL     1       3.811  -0.917   2.586  0.00  0.00    +0.230 C 
ATOM      3  O   UNL     1       3.110  -1.619   1.888  0.00  0.00    -0.274 OA
ATOM      4  H   UNL     1       5.389   0.501   2.656  0.00  0.00    +0.149 HD
ENDROOT
BRANCH   1   5
ATOM      5  C   UNL     1       4.929  -0.131   0.569  0.00  0.00    +0.092 C 
BRANCH   5   6
ATOM      6  C   UNL     1       5.964   0.928   0.183  0.00  0.00    -0.050 C 
ATOM      7  C   UNL     1       5.550   1.596  -1.100  0.00  0.00    -0.010 C 
ATOM      8  C   UNL     1       4.652   0.695  -1.970  0.00  0.00    -0.001 C 
ATOM      9  C   UNL     1       5.130  -0.769  -2.005  0.00  0.00    -0.000 C 
ATOM     10  C   UNL     1       6.625  -0.884  -2.131  0.00  0.00    -0.000 C 
ATOM     11  C   UNL     1       7.226  -1.022  -0.717  0.00  0.00    -0.001 C 
ATOM     12  C   UNL     1       7.336   0.258  -0.033  0.00  0.00    -0.010 C 
BRANCH   6  14
ATOM     13  C   UNL     1       7.130   2.902   0.963  0.00  0.00    -0.096 C 
ATOM     14  N   UNL     1       6.068   1.929   1.253  0.00  0.00    +0.381 N 
ATOM     15  C   UNL     1       4.781   2.604   1.470  0.00  0.00    -0.096 C 
ATOM     16  H   UNL     1       6.334   1.405   2.183  0.00  0.00    -0.082 HD
ENDBRANCH   6  14
ENDBRANCH   5   6
ENDBRANCH   1   5
BRANCH   2  17
ATOM     17  C   UNL     1       3.630  -0.921   4.082  0.00  0.00    +0.200 C 
BRANCH  17  18
ATOM     18  N   UNL     1       2.552  -1.847   4.441  0.00  0.00    -0.303 N 
ATOM     19  C   UNL     1       2.208  -2.011   5.733  0.00  0.00    +0.247 C 
ATOM     20  O   UNL     1       2.794  -1.395   6.602  0.00  0.00    -0.270 OA
ATOM     21  H   UNL     1       2.025  -2.408   3.655  0.00  0.00    +0.150 HD
BRANCH  19  22
ATOM     22  C   UNL     1       1.118  -2.939   6.094  0.00  0.00    +0.072 A 
ATOM     23  C   UNL     1       0.442  -3.648   5.098  0.00  0.00    +0.019 A 
ATOM     24  C   UNL     1      -0.574  -4.513   5.441  0.00  0.00    +0.039 A 
ATOM     25  C   UNL     1      -0.927  -4.682   6.772  0.00  0.00    +0.126 A 
ATOM     26  C   UNL     1      -0.263  -3.983   7.765  0.00  0.00    +0.077 A 
ATOM     27  C   UNL     1       0.762  -3.116   7.435  0.00  0.00    +0.138 A 
ATOM     28  F   UNL     1       1.414  -2.438   8.405  0.00  0.00    -0.205 F 
ATOM     29  F   UNL     1      -1.925  -5.533   7.100  0.00  0.00    -0.205 F 
ENDBRANCH  19  22
ENDBRANCH  17  18
ENDBRANCH   2  17
TORSDOF 6
