REMARK  Name = ZINC18015911
REMARK  11 active torsions:
REMARK  status: ('A' for Active; 'I' for Inactive)
REMARK    1  A    between atoms: C_1  and  C_2
REMARK    2  A    between atoms: C_2  and  N_61
REMARK    3  A    between atoms: C_3  and  C_4
REMARK    4  A    between atoms: C_3  and  N_61
REMARK    5  A    between atoms: C_5  and  C_7
REMARK    6  A    between atoms: C_5  and  C_25
REMARK    7  A    between atoms: C_5  and  N_61
REMARK    8  A    between atoms: C_7  and  N_8
REMARK    9  A    between atoms: C_9  and  C_11
REMARK   10  A    between atoms: N_14  and  S_17
REMARK   11  A    between atoms: S_17  and  C_20
REMARK                            x       y       z     vdW  Elec       q    Type
REMARK                         _______ _______ _______ _____ _____    ______ ____
ROOT
ATOM      1  N   UNL     1      -0.790  -2.982   5.923  0.00  0.00    -0.316 N 
ATOM      2  C   UNL     1      -1.485  -2.229   5.048  0.00  0.00    +0.216 C 
ATOM      3  O   UNL     1      -1.706  -1.062   5.295  0.00  0.00    -0.276 OA
ATOM      4  H   UNL     1      -0.526  -3.885   5.684  0.00  0.00    +0.149 HD
ENDROOT
BRANCH   2   5
ATOM      5  C   UNL     1      -1.988  -2.836   3.764  0.00  0.00    +0.077 C 
ATOM      6  C   UNL     1      -2.901  -1.837   3.051  0.00  0.00    +0.030 C 
ATOM      7  C   UNL     1      -3.438  -2.470   1.764  0.00  0.00    +0.110 C 
ATOM      8  N   UNL     1      -2.303  -2.934   0.955  0.00  0.00    -0.176 NA
ATOM      9  C   UNL     1      -1.317  -3.832   1.571  0.00  0.00    +0.110 C 
ATOM     10  C   UNL     1      -0.800  -3.179   2.862  0.00  0.00    +0.030 C 
BRANCH   8  11
ATOM     11  S   UNL     1      -2.140  -2.458  -0.623  0.00  0.00    +0.067 S 
ATOM     12  O   UNL     1      -3.441  -2.111  -1.078  0.00  0.00    -0.152 OA
ATOM     13  O   UNL     1      -1.348  -3.447  -1.266  0.00  0.00    -0.152 OA
BRANCH  11  14
ATOM     14  C   UNL     1      -1.192  -0.973  -0.625  0.00  0.00    +0.143 A 
ATOM     15  C   UNL     1       0.152  -0.819  -0.705  0.00  0.00    +0.036 A 
ATOM     16  C   UNL     1       0.682   0.457  -0.689  0.00  0.00    +0.010 A 
ATOM     17  C   UNL     1      -0.158   1.517  -0.593  0.00  0.00    +0.047 A 
ATOM     18  S   UNL     1      -1.753   0.719  -0.522  0.00  0.00    -0.077 S 
ENDBRANCH  11  14
ENDBRANCH   8  11
ENDBRANCH   2   5
BRANCH   1  19
ATOM     19  C   UNL     1      -0.432  -2.439   7.236  0.00  0.00    +0.093 C 
BRANCH  19  20
ATOM     20  C   UNL     1       0.249  -3.526   8.070  0.00  0.00    -0.019 C 
BRANCH  20  21
ATOM     21  C   UNL     1       0.043  -3.238   9.534  0.00  0.00    -0.041 A 
ATOM     22  C   UNL     1       0.717  -2.190  10.134  0.00  0.00    +0.003 A 
ATOM     23  C   UNL     1       0.529  -1.926  11.478  0.00  0.00    +0.000 A 
ATOM     24  C   UNL     1      -0.334  -2.709  12.223  0.00  0.00    +0.001 A 
ATOM     25  C   UNL     1      -1.008  -3.756  11.624  0.00  0.00    +0.020 A 
ATOM     26  C   UNL     1      -0.824  -4.018  10.278  0.00  0.00    +0.043 A 
ATOM     27 CL   UNL     1      -1.675  -5.329   9.524  0.00  0.00    -0.083 Cl
ENDBRANCH  20  21
BRANCH  20  28
ATOM     28  N   UNL     1       1.699  -3.519   7.783  0.00  0.00    +0.385 N 
ATOM     29  H   UNL     1       2.120  -2.687   8.211  0.00  0.00    -0.081 HD
BRANCH  28  31
ATOM     30  C   UNL     1       2.598  -4.480   9.842  0.00  0.00    -0.017 C 
ATOM     31  C   UNL     1       2.332  -4.726   8.356  0.00  0.00    -0.081 C 
ENDBRANCH  28  31
BRANCH  28  32
ATOM     32  C   UNL     1       1.925  -3.475   6.323  0.00  0.00    -0.081 C 
ATOM     33  C   UNL     1       2.943  -2.371   6.025  0.00  0.00    -0.017 C 
ENDBRANCH  28  32
ENDBRANCH  20  28
ENDBRANCH  19  20
ENDBRANCH   1  19
TORSDOF 9
