REMARK  Name = ZINC39700370
REMARK  13 active torsions:
REMARK  status: ('A' for Active; 'I' for Inactive)
REMARK    1  A    between atoms: C_1  and  C_2
REMARK    2  A    between atoms: C_5  and  N_9
REMARK    3  A    between atoms: C_6  and  C_8
REMARK    4  A    between atoms: N_9  and  C_10
REMARK    5  A    between atoms: C_10  and  N_12
REMARK    6  A    between atoms: N_12  and  C_13
REMARK    7  A    between atoms: C_13  and  C_15
REMARK    8  A    between atoms: C_13  and  C_16
REMARK    9  A    between atoms: C_16  and  C_18
REMARK   10  A    between atoms: C_16  and  N_23
REMARK   11  A    between atoms: N_26  and  C_29
REMARK   12  A    between atoms: C_34  and  O_35
REMARK   13  A    between atoms: O_35  and  C_36
REMARK                            x       y       z     vdW  Elec       q    Type
REMARK                         _______ _______ _______ _____ _____    ______ ____
ROOT
ATOM      1  C   UNL     1       0.229  -8.275  -2.320  0.00  0.00    +0.114 C 
ENDROOT
BRANCH   1   2
ATOM      2  N   UNL     1       0.124  -8.914  -3.638  0.00  0.00    -0.290 NA
ATOM      3  C   UNL     1       0.454 -10.343  -3.559  0.00  0.00    +0.104 C 
ATOM      4  C   UNL     1       0.158 -11.007  -4.908  0.00  0.00    +0.120 C 
ATOM      5  N   UNL     1       0.866 -10.263  -5.961  0.00  0.00    -0.325 N 
ATOM      6  C   UNL     1       0.692  -8.803  -6.018  0.00  0.00    +0.120 C 
ATOM      7  C   UNL     1       0.967  -8.226  -4.625  0.00  0.00    +0.104 C 
BRANCH   5   8
ATOM      8  C   UNL     1       1.683 -10.926  -6.884  0.00  0.00    +0.072 A 
ATOM      9  C   UNL     1       1.149 -11.390  -8.077  0.00  0.00    +0.027 A 
ATOM     10  C   UNL     1       1.957 -12.044  -8.988  0.00  0.00    +0.002 A 
ATOM     11  C   UNL     1       3.299 -12.237  -8.713  0.00  0.00    +0.004 A 
ATOM     12  C   UNL     1       3.838 -11.776  -7.525  0.00  0.00    +0.047 A 
ATOM     13  C   UNL     1       3.035 -11.116  -6.610  0.00  0.00    +0.141 A 
BRANCH  13  14
ATOM     14  O   UNL     1       3.565 -10.658  -5.444  0.00  0.00    -0.493 OA
ATOM     15  C   UNL     1       4.959 -10.888  -5.231  0.00  0.00    +0.277 C 
ENDBRANCH  13  14
ENDBRANCH   5   8
ENDBRANCH   1   2
BRANCH   1  16
ATOM     16  C   UNL     1      -0.652  -9.003  -1.337  0.00  0.00    +0.009 A 
ATOM     17  C   UNL     1      -0.411  -9.310  -0.039  0.00  0.00    +0.013 A 
ATOM     18  C   UNL     1      -1.377  -9.991   0.679  0.00  0.00    +0.008 A 
ATOM     19  C   UNL     1      -2.536 -10.330   0.064  0.00  0.00    +0.045 A 
ATOM     20  S   UNL     1      -2.288  -9.676  -1.579  0.00  0.00    -0.100 S 
ENDBRANCH   1  16
BRANCH   1  21
ATOM     21  C   UNL     1      -0.218  -6.816  -2.422  0.00  0.00    +0.091 C 
ATOM     22  C   UNL     1      -1.644  -6.756  -2.972  0.00  0.00    +0.030 C 
BRANCH  21  23
ATOM     23  N   UNL     1      -0.180  -6.199  -1.094  0.00  0.00    -0.322 N 
ATOM     24  H   UNL     1      -0.262  -6.751  -0.300  0.00  0.00    +0.148 HD
BRANCH  23  25
ATOM     25  C   UNL     1      -0.033  -4.865  -0.974  0.00  0.00    +0.135 C 
ATOM     26  S   UNL     1       0.110  -3.890  -2.374  0.00  0.00    -0.019 S 
BRANCH  25  27
ATOM     27  N   UNL     1       0.001  -4.297   0.248  0.00  0.00    -0.297 N 
ATOM     28  H   UNL     1      -0.022  -4.854   1.042  0.00  0.00    +0.154 HD
BRANCH  27  33
ATOM     29  C   UNL     1       0.277   1.347   0.747  0.00  0.00    +0.044 C 
ATOM     30  C   UNL     1       0.203  -0.153   0.615  0.00  0.00    -0.050 A 
ATOM     31  C   UNL     1       1.048  -0.810  -0.261  0.00  0.00    +0.005 A 
ATOM     32  C   UNL     1       0.984  -2.184  -0.385  0.00  0.00    +0.024 A 
ATOM     33  C   UNL     1       0.069  -2.905   0.371  0.00  0.00    +0.036 A 
ATOM     34  C   UNL     1      -0.777  -2.243   1.250  0.00  0.00    -0.029 A 
ATOM     35  C   UNL     1      -0.704  -0.869   1.373  0.00  0.00    +0.008 A 
ATOM     36  C   UNL     1      -1.771  -3.022   2.072  0.00  0.00    +0.045 C 
ENDBRANCH  27  33
ENDBRANCH  25  27
ENDBRANCH  23  25
ENDBRANCH  21  23
ENDBRANCH   1  21
TORSDOF 9
