REMARK  Name = ZINC32236736
REMARK  5 active torsions:
REMARK  status: ('A' for Active; 'I' for Inactive)
REMARK    1  A    between atoms: C_1  and  C_2
REMARK    2  A    between atoms: C_6  and  N_11
REMARK    3  A    between atoms: C_14  and  C_16
REMARK    4  A    between atoms: C_16  and  O_17
REMARK    5  A    between atoms: O_17  and  C_18
REMARK                            x       y       z     vdW  Elec       q    Type
REMARK                         _______ _______ _______ _____ _____    ______ ____
ROOT
ATOM      1  C   UNL     1      -0.019   1.526   0.010  0.00  0.00    +0.035 C 
ATOM      2  C   UNL     1       0.002  -0.004   0.002  0.00  0.00    +0.120 C 
ATOM      3  C   UNL     1       0.739  -0.498  -1.215  0.00  0.00    +0.047 A 
ATOM      4  C   UNL     1       1.825  -1.242  -0.807  0.00  0.00    +0.030 A 
ATOM      5  C   UNL     1       2.658  -1.802  -1.777  0.00  0.00    +0.126 A 
ATOM      6  N   UNL     1       2.375  -1.601  -3.061  0.00  0.00    -0.201 NA
ATOM      7  C   UNL     1       1.321  -0.880  -3.413  0.00  0.00    +0.192 A 
ATOM      8  N   UNL     1       0.515  -0.337  -2.512  0.00  0.00    -0.329 N 
ATOM      9  N   UNL     1       1.055  -0.689  -4.758  0.00  0.00    -0.329 N 
ATOM     10  C   UNL     1       1.859  -1.276   0.697  0.00  0.00    +0.149 C 
ATOM     11  N   UNL     1       0.713  -0.498   1.186  0.00  0.00    -0.286 N 
ATOM     12  C   UNL     1       0.379  -0.281   2.474  0.00  0.00    +0.254 C 
ATOM     13  O   UNL     1      -0.600   0.384   2.742  0.00  0.00    -0.272 OA
ATOM     14  H   UNL     1       1.636  -1.081  -5.428  0.00  0.00    +0.145 HD
ATOM     15  H   UNL     1       0.286  -0.163  -5.030  0.00  0.00    +0.145 HD
ATOM     16  H   UNL     1      -0.248   0.185  -2.805  0.00  0.00    +0.168 HD
ENDROOT
BRANCH   5  17
ATOM     17  N   UNL     1       3.759  -2.557  -1.408  0.00  0.00    -0.343 N 
ATOM     18  H   UNL     1       3.958  -2.699  -0.469  0.00  0.00    +0.144 HD
ATOM     19  H   UNL     1       4.332  -2.943  -2.089  0.00  0.00    +0.144 HD
ENDBRANCH   5  17
BRANCH  12  20
ATOM     20  C   UNL     1       1.220  -0.863   3.580  0.00  0.00    +0.324 C 
BRANCH  20  21
ATOM     21  O   UNL     1       0.666  -0.495   4.844  0.00  0.00    -0.481 OA
BRANCH  21  22
ATOM     22  C   UNL     1       1.310  -0.943   5.954  0.00  0.00    +0.140 A 
ATOM     23  C   UNL     1       2.455  -1.716   5.829  0.00  0.00    +0.048 A 
ATOM     24  C   UNL     1       3.108  -2.170   6.958  0.00  0.00    +0.023 A 
ATOM     25  C   UNL     1       2.621  -1.855   8.214  0.00  0.00    +0.043 A 
ATOM     26  C   UNL     1       1.480  -1.085   8.343  0.00  0.00    +0.043 A 
ATOM     27  C   UNL     1       0.826  -0.624   7.215  0.00  0.00    +0.084 A 
ATOM     28 CL   UNL     1      -0.603   0.349   7.377  0.00  0.00    -0.080 Cl
ATOM     29 CL   UNL     1       3.444  -2.429   9.631  0.00  0.00    -0.083 Cl
ENDBRANCH  21  22
ENDBRANCH  20  21
ENDBRANCH  12  20
TORSDOF 4
