REMARK  Name = ZINC64651051
REMARK  7 active torsions:
REMARK  status: ('A' for Active; 'I' for Inactive)
REMARK    1  A    between atoms: C_1  and  C_2
REMARK    2  A    between atoms: C_5  and  C_34
REMARK    3  A    between atoms: C_6  and  C_8
REMARK    4  A    between atoms: C_15  and  C_18
REMARK    5  A    between atoms: C_18  and  N_19
REMARK    6  A    between atoms: C_20  and  C_22
REMARK    7  A    between atoms: C_24  and  C_33
REMARK                            x       y       z     vdW  Elec       q    Type
REMARK                         _______ _______ _______ _____ _____    ______ ____
ROOT
ATOM      1  C   UNL     1      -0.085  -3.156   2.121  0.00  0.00    +0.003 A 
ATOM      2  C   UNL     1      -0.776  -4.360   1.986  0.00  0.00    +0.013 A 
ATOM      3  C   UNL     1      -0.830  -5.249   3.035  0.00  0.00    +0.046 A 
ATOM      4  C   UNL     1      -0.194  -4.958   4.241  0.00  0.00    +0.124 A 
ATOM      5  C   UNL     1       0.501  -3.760   4.366  0.00  0.00    -0.002 A 
ATOM      6  C   UNL     1       0.560  -2.866   3.323  0.00  0.00    +0.017 A 
ATOM      7  C   UNL     1       1.098  -3.737   5.760  0.00  0.00    +0.085 C 
ATOM      8  C   UNL     1       0.967  -5.217   6.189  0.00  0.00    +0.195 C 
ATOM      9  O   UNL     1      -0.134  -5.684   5.391  0.00  0.00    -0.487 OA
ENDROOT
BRANCH   1  15
ATOM     10  C   UNL     1       2.462  -0.082  -0.694  0.00  0.00    +0.067 C 
ATOM     11  C   UNL     1       1.161  -0.750  -0.331  0.00  0.00    +0.057 A 
ATOM     12  C   UNL     1       0.014  -0.466  -1.052  0.00  0.00    +0.134 A 
ATOM     13  N   UNL     1      -1.131  -1.050  -0.738  0.00  0.00    -0.256 NA
ATOM     14  C   UNL     1      -1.184  -1.906   0.264  0.00  0.00    +0.064 A 
ATOM     15  C   UNL     1      -0.031  -2.195   0.993  0.00  0.00    +0.092 A 
ATOM     16  N   UNL     1       1.119  -1.610   0.671  0.00  0.00    -0.249 NA
ATOM     17  C   UNL     1      -2.489  -2.570   0.621  0.00  0.00    +0.068 C 
ENDBRANCH   1  15
BRANCH   8  18
ATOM     18  C   UNL     1       0.643  -5.323   7.681  0.00  0.00    +0.149 C 
BRANCH  18  19
ATOM     19  N   UNL     1       0.643  -6.732   8.082  0.00  0.00    -0.310 N 
ATOM     20  C   UNL     1       0.381  -7.068   9.360  0.00  0.00    +0.240 C 
ATOM     21  O   UNL     1       0.146  -6.205  10.179  0.00  0.00    -0.273 OA
ATOM     22  H   UNL     1       0.831  -7.423   7.427  0.00  0.00    +0.149 HD
BRANCH  20  23
ATOM     23  C   UNL     1       0.381  -8.518   9.773  0.00  0.00    +0.193 C 
ATOM     24  C   UNL     1      -0.936  -9.164   9.405  0.00  0.00    -0.033 C 
ATOM     25  C   UNL     1      -1.484  -9.585  10.568  0.00  0.00    +0.001 A 
ATOM     26  C   UNL     1      -2.740 -10.277  10.882  0.00  0.00    +0.030 A 
ATOM     27  C   UNL     1      -3.022 -10.572  12.172  0.00  0.00    +0.042 A 
ATOM     28  C   UNL     1      -2.145 -10.234  13.214  0.00  0.00    +0.022 A 
ATOM     29  C   UNL     1      -0.974  -9.598  13.004  0.00  0.00    +0.027 A 
ATOM     30  C   UNL     1      -0.577  -9.239  11.686  0.00  0.00    +0.043 A 
ATOM     31  N   UNL     1       0.492  -8.628  11.232  0.00  0.00    -0.370 N 
ATOM     32 CL   UNL     1      -4.506 -11.391  12.547  0.00  0.00    -0.084 Cl
ATOM     33  C   UNL     1      -1.519  -9.310   8.024  0.00  0.00    +0.042 C 
ATOM     34  H   UNL     1       1.232  -8.304  11.769  0.00  0.00    +0.161 HD
ENDBRANCH  20  23
ENDBRANCH  18  19
ENDBRANCH   8  18
TORSDOF 4
