REMARK  Name = ZINC15931287
REMARK  7 active torsions:
REMARK  status: ('A' for Active; 'I' for Inactive)
REMARK    1  A    between atoms: C_1  and  C_2
REMARK    2  A    between atoms: C_2  and  C_3
REMARK    3  A    between atoms: C_2  and  C_4
REMARK    4  A    between atoms: C_2  and  N_5
REMARK    5  A    between atoms: C_6  and  C_8
REMARK    6  A    between atoms: C_14  and  C_23
REMARK    7  A    between atoms: C_17  and  C_19
REMARK                            x       y       z     vdW  Elec       q    Type
REMARK                         _______ _______ _______ _____ _____    ______ ____
ROOT
ATOM      1  C   UNL     1       2.659  -0.606  -2.635  0.00  0.00    +0.096 A 
ATOM      2  C   UNL     1       2.109  -1.421  -3.656  0.00  0.00    +0.149 A 
ATOM      3  N   UNL     1       3.031  -1.624  -4.558  0.00  0.00    -0.177 NA
ATOM      4  N   UNL     1       4.198  -0.965  -4.176  0.00  0.00    -0.238 N 
ATOM      5  C   UNL     1       3.965  -0.338  -2.999  0.00  0.00    +0.130 A 
ATOM      6  N   UNL     1       4.925   0.413  -2.343  0.00  0.00    -0.322 N 
ATOM      7  C   UNL     1       6.309   0.276  -2.837  0.00  0.00    +0.104 C 
ATOM      8  C   UNL     1       6.282   0.292  -4.370  0.00  0.00    +0.063 C 
ATOM      9  C   UNL     1       5.482  -0.915  -4.883  0.00  0.00    +0.215 C 
ATOM     10  H   UNL     1       4.701   0.996  -1.601  0.00  0.00    +0.148 HD
ENDROOT
BRANCH   7  11
ATOM     11  C   UNL     1       7.144   1.423  -2.329  0.00  0.00    -0.027 A 
ATOM     12  C   UNL     1       6.610   2.697  -2.280  0.00  0.00    +0.006 A 
ATOM     13  C   UNL     1       7.376   3.749  -1.814  0.00  0.00    +0.015 A 
ATOM     14  C   UNL     1       8.675   3.527  -1.397  0.00  0.00    +0.018 A 
ATOM     15  C   UNL     1       9.209   2.252  -1.446  0.00  0.00    +0.015 A 
ATOM     16  C   UNL     1       8.441   1.199  -1.907  0.00  0.00    +0.006 A 
ATOM     17 BR   UNL     1       9.723   4.967  -0.759  0.00  0.00    -0.050 Br
ENDBRANCH   7  11
BRANCH   1  19
ATOM     18  N   UNL     1       0.688  -0.476  -1.203  0.00  0.00    -0.306 N 
ATOM     19  C   UNL     1       1.972  -0.132  -1.427  0.00  0.00    +0.249 C 
ATOM     20  O   UNL     1       2.561   0.571  -0.628  0.00  0.00    -0.270 OA
ATOM     21  H   UNL     1       0.218  -1.037  -1.840  0.00  0.00    +0.150 HD
BRANCH  18  23
ATOM     22  C   UNL     1      -0.019   1.526   0.010  0.00  0.00    +0.031 C 
ATOM     23  C   UNL     1       0.002  -0.004   0.002  0.00  0.00    +0.026 C 
ATOM     24  C   UNL     1       0.742  -0.511   1.242  0.00  0.00    +0.031 C 
ATOM     25  C   UNL     1      -1.433  -0.534   0.013  0.00  0.00    +0.031 C 
ENDBRANCH  18  23
ENDBRANCH   1  19
BRANCH   9  26
ATOM     26  C   UNL     1       5.234  -0.750  -6.384  0.00  0.00    +0.412 C 
ATOM     27  F   UNL     1       4.531   0.438  -6.613  0.00  0.00    -0.168 F 
ATOM     28  F   UNL     1       6.460  -0.702  -7.056  0.00  0.00    -0.168 F 
ATOM     29  F   UNL     1       4.486  -1.833  -6.855  0.00  0.00    -0.168 F 
ENDBRANCH   9  26
TORSDOF 4
