REMARK  Name = ZINC49944307
REMARK  13 active torsions:
REMARK  status: ('A' for Active; 'I' for Inactive)
REMARK    1  A    between atoms: C_1  and  C_2
REMARK    2  A    between atoms: C_2  and  C_3
REMARK    3  A    between atoms: C_3  and  C_5
REMARK    4  A    between atoms: C_3  and  C_6
REMARK    5  A    between atoms: C_6  and  C_8
REMARK    6  A    between atoms: C_6  and  N_22
REMARK    7  A    between atoms: N_10  and  C_11
REMARK    8  A    between atoms: C_11  and  C_12
REMARK    9  A    between atoms: C_12  and  C_14
REMARK   10  A    between atoms: C_12  and  N_19
REMARK   11  A    between atoms: N_19  and  C_20
REMARK   12  A    between atoms: N_19  and  C_21
REMARK   13  A    between atoms: C_23  and  C_25
REMARK                            x       y       z     vdW  Elec       q    Type
REMARK                         _______ _______ _______ _____ _____    ______ ____
ROOT
ATOM      1  C   UNL     1       0.408  -0.183   2.451  0.00  0.00    +0.162 C 
ENDROOT
BRANCH   1   2
ATOM      2  C   UNL     1       0.770  -0.858   3.749  0.00  0.00    +0.234 C 
ATOM      3  O   UNL     1       0.863  -0.204   4.767  0.00  0.00    -0.274 OA
ATOM      4  N   UNL     1       0.992  -2.187   3.779  0.00  0.00    -0.315 N 
ATOM      5  H   UNL     1       0.989  -2.697   2.954  0.00  0.00    +0.149 HD
BRANCH   4   6
ATOM      6  C   UNL     1       1.236  -2.860   5.056  0.00  0.00    +0.096 C 
BRANCH   6   7
ATOM      7  C   UNL     1       1.575  -4.330   4.802  0.00  0.00    +0.016 C 
BRANCH   7   8
ATOM      8  C   UNL     1       2.857  -4.421   4.014  0.00  0.00    +0.093 A 
ATOM      9  C   UNL     1       2.953  -4.623   2.688  0.00  0.00    +0.043 A 
ATOM     10  C   UNL     1       4.331  -4.639   2.375  0.00  0.00    +0.041 A 
ATOM     11  C   UNL     1       4.995  -4.446   3.528  0.00  0.00    +0.195 A 
ATOM     12  O   UNL     1       4.097  -4.309   4.517  0.00  0.00    -0.469 OA
ENDBRANCH   7   8
BRANCH   7  13
ATOM     13  N   UNL     1       1.739  -5.025   6.086  0.00  0.00    +0.384 N 
ATOM     14  C   UNL     1       0.455  -5.044   6.799  0.00  0.00    -0.096 C 
ATOM     15  C   UNL     1       2.185  -6.403   5.843  0.00  0.00    -0.096 C 
ATOM     16  H   UNL     1       2.427  -4.542   6.644  0.00  0.00    -0.082 HD
ENDBRANCH   7  13
ENDBRANCH   6   7
ENDBRANCH   4   6
ENDBRANCH   1   2
BRANCH   1  17
ATOM     17  N   UNL     1       0.259   1.257   2.674  0.00  0.00    -0.300 N 
ATOM     18  C   UNL     1      -0.641   1.960   1.959  0.00  0.00    +0.245 C 
ATOM     19  O   UNL     1      -1.264   1.420   1.065  0.00  0.00    -0.270 OA
ATOM     20  H   UNL     1       0.808   1.705   3.337  0.00  0.00    +0.150 HD
BRANCH  18  21
ATOM     21  C   UNL     1      -0.872   3.389   2.261  0.00  0.00    +0.037 A 
ATOM     22  C   UNL     1      -0.156   4.014   3.283  0.00  0.00    +0.013 A 
ATOM     23  C   UNL     1      -0.376   5.348   3.559  0.00  0.00    +0.001 A 
ATOM     24  C   UNL     1      -1.304   6.065   2.826  0.00  0.00    +0.000 A 
ATOM     25  C   UNL     1      -2.019   5.452   1.813  0.00  0.00    +0.001 A 
ATOM     26  C   UNL     1      -1.804   4.120   1.522  0.00  0.00    +0.013 A 
ENDBRANCH  18  21
ENDBRANCH   1  17
BRANCH   1  27
ATOM     27  C   UNL     1       1.514  -0.428   1.423  0.00  0.00    +0.015 C 
ATOM     28  C   UNL     1       1.075   0.118   0.062  0.00  0.00    +0.010 C 
BRANCH  27  30
ATOM     29  C   UNL     1       3.349  -0.403   3.118  0.00  0.00    +0.004 C 
ATOM     30  C   UNL     1       2.792   0.284   1.869  0.00  0.00    +0.002 C 
ENDBRANCH  27  30
ENDBRANCH   1  27
TORSDOF 9
