REMARK  Name = ZINC36484309
REMARK  11 active torsions:
REMARK  status: ('A' for Active; 'I' for Inactive)
REMARK    1  A    between atoms: C_1  and  C_2
REMARK    2  A    between atoms: C_2  and  C_3
REMARK    3  A    between atoms: C_2  and  C_4
REMARK    4  A    between atoms: C_2  and  N_5
REMARK    5  A    between atoms: C_6  and  C_8
REMARK    6  A    between atoms: C_8  and  C_10
REMARK    7  A    between atoms: C_8  and  N_17
REMARK    8  A    between atoms: C_15  and  O_16
REMARK    9  A    between atoms: N_17  and  C_18
REMARK   10  A    between atoms: C_25  and  C_27
REMARK   11  A    between atoms: C_29  and  N_34
REMARK                            x       y       z     vdW  Elec       q    Type
REMARK                         _______ _______ _______ _____ _____    ______ ____
ROOT
ATOM      1  N   UNL     1       4.332  -0.072  -2.861  0.00  0.00    -0.251 N 
ATOM      2  C   UNL     1       4.490   1.242  -3.118  0.00  0.00    +0.256 C 
ATOM      3  O   UNL     1       5.532   1.646  -3.597  0.00  0.00    -0.269 OA
ENDROOT
BRANCH   1   4
ATOM      4  C   UNL     1       5.331  -0.981  -3.225  0.00  0.00    +0.039 A 
ATOM      5  C   UNL     1       5.047  -2.007  -4.117  0.00  0.00    +0.023 A 
ATOM      6  C   UNL     1       6.035  -2.903  -4.474  0.00  0.00    +0.003 A 
ATOM      7  C   UNL     1       7.307  -2.780  -3.946  0.00  0.00    +0.020 A 
ATOM      8  C   UNL     1       7.594  -1.758  -3.057  0.00  0.00    +0.043 A 
ATOM      9  C   UNL     1       6.610  -0.855  -2.700  0.00  0.00    +0.043 A 
ATOM     10 CL   UNL     1       9.192  -1.607  -2.396  0.00  0.00    -0.083 Cl
ENDBRANCH   1   4
BRANCH   2  11
ATOM     11  C   UNL     1       3.401   2.189  -2.816  0.00  0.00    +0.086 A 
ATOM     12  C   UNL     1       2.145   1.714  -2.429  0.00  0.00    +0.049 A 
ATOM     13  C   UNL     1       1.131   2.604  -2.148  0.00  0.00    +0.127 A 
ATOM     14  C   UNL     1       1.351   3.969  -2.248  0.00  0.00    +0.036 A 
ATOM     15  C   UNL     1       2.587   4.451  -2.629  0.00  0.00    +0.054 A 
ATOM     16  C   UNL     1       3.621   3.570  -2.910  0.00  0.00    +0.191 A 
ATOM     17  O   UNL     1       4.837   4.042  -3.279  0.00  0.00    -0.287 OA
BRANCH  13  18
ATOM     18  N   UNL     1      -0.200   2.100  -1.739  0.00  0.00    +0.056 N 
ATOM     19  O   UNL     1      -0.372   0.916  -1.571  0.00  0.00    -0.126 OA
ATOM     20  O   UNL     1      -1.114   2.874  -1.572  0.00  0.00    -0.126 OA
ENDBRANCH  13  18
ENDBRANCH   2  11
BRANCH   1  21
ATOM     21  C   UNL     1       3.113  -0.548  -2.203  0.00  0.00    +0.201 C 
BRANCH  21  22
ATOM     22  C   UNL     1       3.279  -1.998  -1.826  0.00  0.00    +0.024 A 
ATOM     23  C   UNL     1       4.473  -2.441  -1.291  0.00  0.00    +0.009 A 
ATOM     24  C   UNL     1       4.627  -3.771  -0.946  0.00  0.00    +0.001 A 
ATOM     25  C   UNL     1       3.585  -4.660  -1.134  0.00  0.00    +0.004 A 
ATOM     26  C   UNL     1       2.389  -4.223  -1.667  0.00  0.00    +0.046 A 
ATOM     27  C   UNL     1       2.231  -2.887  -2.010  0.00  0.00    +0.122 A 
BRANCH  27  28
ATOM     28  O   UNL     1       1.053  -2.453  -2.530  0.00  0.00    -0.506 OA
ATOM     29  H   UNL     1       1.006  -2.505  -3.495  0.00  0.00    +0.292 HD
ENDBRANCH  27  28
ENDBRANCH  21  22
BRANCH  21  31
ATOM     30  N   UNL     1       1.788   0.007  -0.189  0.00  0.00    -0.309 N 
ATOM     31  C   UNL     1       2.862   0.268  -0.961  0.00  0.00    +0.239 C 
ATOM     32  O   UNL     1       3.626   1.160  -0.656  0.00  0.00    -0.273 OA
ATOM     33  H   UNL     1       1.177  -0.706  -0.432  0.00  0.00    +0.149 HD
BRANCH  30  35
ATOM     34  C   UNL     1       1.375   2.273   0.636  0.00  0.00    +0.031 C 
ATOM     35  C   UNL     1       1.544   0.801   1.018  0.00  0.00    +0.026 C 
ATOM     36  C   UNL     1       2.730   0.655   1.973  0.00  0.00    +0.031 C 
ATOM     37  C   UNL     1       0.271   0.304   1.706  0.00  0.00    +0.031 C 
ENDBRANCH  30  35
ENDBRANCH  21  31
ENDBRANCH   1  21
TORSDOF 8
