REMARK  Name = ZINC45819532
REMARK  7 active torsions:
REMARK  status: ('A' for Active; 'I' for Inactive)
REMARK    1  A    between atoms: C_4  and  N_7
REMARK    2  A    between atoms: N_10  and  C_11
REMARK    3  A    between atoms: C_11  and  C_12
REMARK    4  A    between atoms: C_12  and  C_13
REMARK    5  A    between atoms: N_15  and  C_16
REMARK    6  A    between atoms: C_16  and  C_17
REMARK    7  A    between atoms: C_17  and  N_23
REMARK                            x       y       z     vdW  Elec       q    Type
REMARK                         _______ _______ _______ _____ _____    ______ ____
ROOT
ATOM      1  C   UNL     1       6.215  -4.775  -5.035  0.00  0.00    +0.214 C 
ATOM      2  O   UNL     1       6.083  -5.450  -4.036  0.00  0.00    -0.276 OA
ATOM      3  N   UNL     1       6.803  -5.298  -6.129  0.00  0.00    -0.317 N 
ATOM      4  H   UNL     1       6.908  -4.758  -6.928  0.00  0.00    +0.149 HD
ENDROOT
BRANCH   1   5
ATOM      5  C   UNL     1       5.723  -3.350  -5.052  0.00  0.00    +0.114 C 
BRANCH   5   6
ATOM      6  C   UNL     1       5.103  -3.009  -3.695  0.00  0.00    +0.115 C 
BRANCH   6  10
ATOM      7  N   UNL     1       3.598   0.173  -2.632  0.00  0.00    -0.297 N 
ATOM      8  C   UNL     1       4.038  -1.101  -2.617  0.00  0.00    +0.300 C 
ATOM      9  O   UNL     1       3.905  -1.778  -1.616  0.00  0.00    -0.253 OA
ATOM     10  N   UNL     1       4.625  -1.624  -3.712  0.00  0.00    -0.299 N 
ATOM     11  H   UNL     1       3.704   0.713  -3.431  0.00  0.00    +0.151 HD
ATOM     12  H   UNL     1       4.731  -1.084  -4.510  0.00  0.00    +0.150 HD
BRANCH   7  16
ATOM     13  C   UNL     1       0.963   2.498  -0.213  0.00  0.00    +0.000 C 
ATOM     14  C   UNL     1       2.451   2.857  -0.215  0.00  0.00    +0.002 C 
ATOM     15  C   UNL     1       3.117   2.263  -1.458  0.00  0.00    +0.022 C 
ATOM     16  C   UNL     1       2.960   0.742  -1.443  0.00  0.00    +0.074 C 
ATOM     17  C   UNL     1       1.473   0.383  -1.441  0.00  0.00    +0.022 C 
ATOM     18  C   UNL     1       0.806   0.977  -0.198  0.00  0.00    +0.002 C 
ENDBRANCH   7  16
ENDBRANCH   6  10
ENDBRANCH   5   6
ENDBRANCH   1   5
BRANCH   3  19
ATOM     19  C   UNL     1       7.281  -6.683  -6.113  0.00  0.00    +0.092 C 
BRANCH  19  20
ATOM     20  C   UNL     1       7.782  -7.066  -7.507  0.00  0.00    -0.050 C 
ATOM     21  C   UNL     1       8.158  -8.549  -7.524  0.00  0.00    -0.010 C 
ATOM     22  C   UNL     1       9.261  -8.808  -6.496  0.00  0.00    -0.001 C 
ATOM     23  C   UNL     1      10.490  -7.966  -6.844  0.00  0.00    -0.000 C 
ATOM     24  C   UNL     1      10.115  -6.483  -6.827  0.00  0.00    -0.001 C 
ATOM     25  C   UNL     1       9.012  -6.224  -7.855  0.00  0.00    -0.010 C 
BRANCH  20  26
ATOM     26  N   UNL     1       6.723  -6.817  -8.494  0.00  0.00    +0.384 N 
ATOM     27  C   UNL     1       5.529  -7.592  -8.134  0.00  0.00    -0.078 C 
ATOM     28  C   UNL     1       4.397  -7.275  -9.112  0.00  0.00    -0.019 C 
ATOM     29  C   UNL     1       4.838  -7.643 -10.532  0.00  0.00    -0.004 C 
ATOM     30  C   UNL     1       6.125  -6.885 -10.869  0.00  0.00    -0.019 C 
ATOM     31  C   UNL     1       7.194  -7.217  -9.825  0.00  0.00    -0.078 C 
ATOM     32  H   UNL     1       6.495  -5.834  -8.500  0.00  0.00    -0.081 HD
ENDBRANCH  20  26
ENDBRANCH  19  20
ENDBRANCH   3  19
TORSDOF 7
