REMARK  Name = ZINC36556850
REMARK  15 active torsions:
REMARK  status: ('A' for Active; 'I' for Inactive)
REMARK    1  A    between atoms: C_1  and  C_2
REMARK    2  A    between atoms: C_5  and  C_7
REMARK    3  A    between atoms: C_7  and  N_8
REMARK    4  A    between atoms: N_8  and  C_9
REMARK    5  A    between atoms: C_9  and  C_11
REMARK    6  A    between atoms: C_9  and  C_18
REMARK    7  A    between atoms: C_15  and  O_17
REMARK    8  A    between atoms: N_20  and  C_21
REMARK    9  A    between atoms: C_21  and  C_22
REMARK   10  A    between atoms: C_21  and  C_23
REMARK   11  A    between atoms: C_21  and  C_24
REMARK   12  A    between atoms: C_25  and  C_27
REMARK   13  A    between atoms: C_35  and  C_37
REMARK   14  A    between atoms: C_38  and  C_39
REMARK   15  A    between atoms: C_38  and  C_40
REMARK                            x       y       z     vdW  Elec       q    Type
REMARK                         _______ _______ _______ _____ _____    ______ ____
ROOT
ATOM      1  N   UNL     1       1.396  -4.102  -1.268  0.00  0.00    -0.278 N 
ATOM      2  C   UNL     1       0.432  -4.667  -2.021  0.00  0.00    +0.220 C 
ATOM      3  O   UNL     1       0.628  -4.878  -3.199  0.00  0.00    -0.275 OA
ENDROOT
BRANCH   2   4
ATOM      4  C   UNL     1      -0.900  -5.039  -1.395  0.00  0.00    +0.079 C 
ATOM      5  C   UNL     1      -0.689  -6.226  -0.462  0.00  0.00    +0.017 C 
ATOM      6  C   UNL     1      -1.858  -7.210  -0.485  0.00  0.00    -0.004 C 
ATOM      7  C   UNL     1      -2.097  -7.765  -1.905  0.00  0.00    +0.008 C 
ATOM      8  C   UNL     1      -2.879  -6.444  -2.120  0.00  0.00    -0.001 C 
ATOM      9  C   UNL     1      -1.899  -5.336  -2.506  0.00  0.00    +0.001 C 
ATOM     10  C   UNL     1      -2.649  -4.065  -2.913  0.00  0.00    +0.008 C 
ATOM     11  C   UNL     1      -3.231  -6.541  -0.635  0.00  0.00    -0.029 C 
ATOM     12  C   UNL     1      -4.402  -7.503  -0.350  0.00  0.00    +0.011 C 
ATOM     13  C   UNL     1      -3.411  -5.231   0.125  0.00  0.00    +0.011 C 
ENDBRANCH   2   4
BRANCH   1  14
ATOM     14  C   UNL     1       1.134  -3.779   0.137  0.00  0.00    +0.183 C 
BRANCH  14  19
ATOM     15  C   UNL     1       0.466   1.181   0.761  0.00  0.00    +0.086 C 
ATOM     16  C   UNL     1       0.176  -0.274   0.498  0.00  0.00    +0.102 A 
ATOM     17  C   UNL     1      -1.032  -0.799   0.224  0.00  0.00    +0.045 A 
ATOM     18  C   UNL     1      -0.844  -2.189   0.049  0.00  0.00    +0.046 A 
ATOM     19  C   UNL     1       0.467  -2.431   0.227  0.00  0.00    +0.122 A 
ATOM     20  O   UNL     1       1.081  -1.267   0.493  0.00  0.00    -0.463 OA
ENDBRANCH  14  19
ENDBRANCH   1  14
BRANCH   1  21
ATOM     21  C   UNL     1       2.707  -3.810  -1.855  0.00  0.00    +0.193 C 
BRANCH  21  22
ATOM     22  C   UNL     1       3.538  -5.067  -1.877  0.00  0.00    -0.015 A 
ATOM     23  C   UNL     1       3.506  -5.936  -0.801  0.00  0.00    +0.006 A 
ATOM     24  C   UNL     1       4.267  -7.089  -0.818  0.00  0.00    +0.004 A 
ATOM     25  C   UNL     1       5.063  -7.377  -1.910  0.00  0.00    +0.045 A 
ATOM     26  C   UNL     1       5.098  -6.507  -2.990  0.00  0.00    +0.117 A 
ATOM     27  C   UNL     1       4.328  -5.353  -2.973  0.00  0.00    +0.051 A 
BRANCH  26  28
ATOM     28  O   UNL     1       5.880  -6.787  -4.066  0.00  0.00    -0.507 OA
ATOM     29  H   UNL     1       5.436  -7.306  -4.750  0.00  0.00    +0.292 HD
ENDBRANCH  26  28
ENDBRANCH  21  22
BRANCH  21  30
ATOM     30  C   UNL     1       3.404  -2.760  -1.028  0.00  0.00    +0.238 C 
ATOM     31  O   UNL     1       2.919  -2.393   0.021  0.00  0.00    -0.273 OA
ATOM     32  N   UNL     1       4.567  -2.230  -1.456  0.00  0.00    -0.309 N 
ATOM     33  H   UNL     1       4.955  -2.523  -2.295  0.00  0.00    +0.149 HD
BRANCH  32  34
ATOM     34  C   UNL     1       5.245  -1.209  -0.652  0.00  0.00    +0.026 C 
ATOM     35  C   UNL     1       5.586  -1.786   0.723  0.00  0.00    +0.031 C 
ATOM     36  C   UNL     1       6.533  -0.778  -1.357  0.00  0.00    +0.031 C 
ATOM     37  C   UNL     1       4.326   0.002  -0.484  0.00  0.00    +0.031 C 
ENDBRANCH  32  34
ENDBRANCH  21  30
ENDBRANCH   1  21
TORSDOF 8
