REMARK  Name = ZINC10735185
REMARK  9 active torsions:
REMARK  status: ('A' for Active; 'I' for Inactive)
REMARK    1  A    between atoms: C_1  and  C_2
REMARK    2  A    between atoms: C_5  and  C_32
REMARK    3  A    between atoms: C_10  and  C_12
REMARK    4  A    between atoms: C_12  and  O_13
REMARK    5  A    between atoms: O_13  and  C_14
REMARK    6  A    between atoms: C_14  and  C_16
REMARK    7  A    between atoms: C_19  and  S_22
REMARK    8  A    between atoms: S_22  and  N_25
REMARK    9  A    between atoms: N_25  and  C_26
REMARK                            x       y       z     vdW  Elec       q    Type
REMARK                         _______ _______ _______ _____ _____    ______ ____
ROOT
ATOM      1  C   UNL     1       3.073   1.814  -2.713  0.00  0.00    +0.059 A 
ATOM      2  C   UNL     1       1.810   1.781  -2.120  0.00  0.00    +0.017 A 
ATOM      3  C   UNL     1       1.399   0.652  -1.441  0.00  0.00    +0.029 A 
ATOM      4  C   UNL     1       2.236  -0.446  -1.348  0.00  0.00    +0.109 A 
ATOM      5  C   UNL     1       3.490  -0.419  -1.933  0.00  0.00    +0.029 A 
ATOM      6  C   UNL     1       3.913   0.703  -2.615  0.00  0.00    +0.017 A 
ENDROOT
BRANCH   4   7
ATOM      7  S   UNL     1       1.704  -1.883  -0.479  0.00  0.00    +0.072 S 
ATOM      8  O   UNL     1       2.874  -2.501   0.038  0.00  0.00    -0.150 OA
ATOM      9  O   UNL     1       0.624  -1.479   0.352  0.00  0.00    -0.150 OA
BRANCH   7  10
ATOM     10  N   UNL     1       1.074  -2.927  -1.600  0.00  0.00    -0.216 N 
ATOM     11  H   UNL     1       1.487  -3.792  -1.743  0.00  0.00    +0.174 HD
BRANCH  10  12
ATOM     12  C   UNL     1      -0.054  -2.561  -2.339  0.00  0.00    +0.048 A 
ATOM     13  C   UNL     1      -1.310  -2.579  -1.746  0.00  0.00    +0.024 A 
ATOM     14  C   UNL     1      -2.422  -2.212  -2.478  0.00  0.00    +0.002 A 
ATOM     15  C   UNL     1      -2.288  -1.837  -3.803  0.00  0.00    +0.000 A 
ATOM     16  C   UNL     1      -1.039  -1.823  -4.397  0.00  0.00    +0.002 A 
ATOM     17  C   UNL     1       0.078  -2.184  -3.669  0.00  0.00    +0.024 A 
ENDBRANCH  10  12
ENDBRANCH   7  10
ENDBRANCH   4   7
BRANCH   1  18
ATOM     18  C   UNL     1       3.520   3.019  -3.441  0.00  0.00    +0.340 C 
ATOM     19  O   UNL     1       2.787   3.985  -3.524  0.00  0.00    -0.245 OA
BRANCH  18  20
ATOM     20  O   UNL     1       4.739   3.048  -4.013  0.00  0.00    -0.452 OA
BRANCH  20  21
ATOM     21  C   UNL     1       5.112   4.265  -4.711  0.00  0.00    +0.328 C 
BRANCH  21  29
ATOM     22  C   UNL     1       7.407   7.446  -4.200  0.00  0.00    +0.009 C 
ATOM     23  C   UNL     1       7.199   7.546  -5.712  0.00  0.00    +0.004 C 
ATOM     24  C   UNL     1       8.554   7.482  -6.420  0.00  0.00    +0.009 C 
ATOM     25  C   UNL     1       9.258   6.172  -6.060  0.00  0.00    +0.004 C 
ATOM     26  C   UNL     1       8.407   4.991  -6.537  0.00  0.00    +0.111 C 
ATOM     27  N   UNL     1       7.056   5.125  -5.976  0.00  0.00    -0.298 N 
ATOM     28  C   UNL     1       6.322   6.379  -6.191  0.00  0.00    +0.111 C 
ATOM     29  C   UNL     1       6.498   4.113  -5.281  0.00  0.00    +0.253 C 
ATOM     30  O   UNL     1       7.112   3.081  -5.115  0.00  0.00    -0.272 OA
ATOM     31  C   UNL     1      10.627   6.124  -6.742  0.00  0.00    +0.009 C 
ENDBRANCH  21  29
ENDBRANCH  20  21
ENDBRANCH  18  20
ENDBRANCH   1  18
TORSDOF 7
