REMARK  Name = ZINC38637028
REMARK  8 active torsions:
REMARK  status: ('A' for Active; 'I' for Inactive)
REMARK    1  A    between atoms: C_1  and  C_2
REMARK    2  A    between atoms: C_2  and  C_4
REMARK    3  A    between atoms: C_2  and  N_20
REMARK    4  A    between atoms: C_4  and  O_6
REMARK    5  A    between atoms: O_6  and  C_7
REMARK    6  A    between atoms: C_7  and  C_8
REMARK    7  A    between atoms: C_8  and  C_10
REMARK    8  A    between atoms: C_21  and  C_23
REMARK                            x       y       z     vdW  Elec       q    Type
REMARK                         _______ _______ _______ _____ _____    ______ ____
ROOT
ATOM      1  O   UNL     1       0.280  -0.192   2.448  0.00  0.00    -0.455 OA
ENDROOT
BRANCH   1   2
ATOM      2  C   UNL     1       0.731  -0.503   1.223  0.00  0.00    +0.328 C 
ATOM      3  O   UNL     1       1.722  -1.184   1.099  0.00  0.00    -0.249 OA
BRANCH   2   5
ATOM      4  C   UNL     1      -0.019   1.526   0.010  0.00  0.00    +0.040 C 
ATOM      5  C   UNL     1       0.002  -0.004   0.002  0.00  0.00    +0.179 C 
BRANCH   5   6
ATOM      6  N   UNL     1       0.688  -0.476  -1.203  0.00  0.00    -0.299 N 
ATOM      7  C   UNL     1       0.006  -0.608  -2.358  0.00  0.00    +0.245 C 
ATOM      8  O   UNL     1      -1.177  -0.335  -2.400  0.00  0.00    -0.270 OA
ATOM      9  H   UNL     1       1.632  -0.695  -1.170  0.00  0.00    +0.150 HD
BRANCH   7  10
ATOM     10  C   UNL     1       0.698  -1.085  -3.575  0.00  0.00    +0.037 A 
ATOM     11  C   UNL     1       2.056  -1.405  -3.529  0.00  0.00    +0.013 A 
ATOM     12  C   UNL     1       2.696  -1.850  -4.667  0.00  0.00    +0.001 A 
ATOM     13  C   UNL     1       1.994  -1.978  -5.853  0.00  0.00    +0.000 A 
ATOM     14  C   UNL     1       0.648  -1.662  -5.906  0.00  0.00    +0.001 A 
ATOM     15  C   UNL     1      -0.005  -1.222  -4.773  0.00  0.00    +0.013 A 
ENDBRANCH   7  10
ENDBRANCH   5   6
ENDBRANCH   2   5
ENDBRANCH   1   2
BRANCH   1  16
ATOM     16  C   UNL     1       1.020  -0.699   3.560  0.00  0.00    +0.311 C 
BRANCH  16  17
ATOM     17  C   UNL     1       0.369  -0.250   4.843  0.00  0.00    +0.200 C 
ATOM     18  O   UNL     1      -0.630   0.436   4.809  0.00  0.00    -0.288 OA
BRANCH  17  19
ATOM     19  C   UNL     1       0.945  -0.645   6.137  0.00  0.00    +0.023 A 
ATOM     20  C   UNL     1       2.158  -1.470   6.168  0.00  0.00    +0.013 A 
ATOM     21  C   UNL     1       2.729  -1.861   7.327  0.00  0.00    +0.026 A 
ATOM     22  C   UNL     1       2.170  -1.482   8.566  0.00  0.00    +0.056 A 
ATOM     23  N   UNL     1       2.488  -1.700   9.825  0.00  0.00    -0.268 N 
ATOM     24  C   UNL     1       1.569  -1.075  10.617  0.00  0.00    +0.308 C 
ATOM     25  O   UNL     1       1.576  -1.081  11.830  0.00  0.00    -0.252 OA
ATOM     26  N   UNL     1       0.631  -0.435   9.831  0.00  0.00    -0.268 N 
ATOM     27  C   UNL     1       0.934  -0.640   8.578  0.00  0.00    +0.057 A 
ATOM     28  C   UNL     1       0.347  -0.232   7.296  0.00  0.00    +0.036 A 
ATOM     29  H   UNL     1      -0.125   0.080  10.154  0.00  0.00    +0.156 HD
ATOM     30  H   UNL     1       3.247  -2.218  10.136  0.00  0.00    +0.156 HD
ENDBRANCH  17  19
ENDBRANCH  16  17
ENDBRANCH   1  16
TORSDOF 7
