REMARK  Name = ZINC20905556
REMARK  6 active torsions:
REMARK  status: ('A' for Active; 'I' for Inactive)
REMARK    1  A    between atoms: C_10  and  C_11
REMARK    2  A    between atoms: N_12  and  N_13
REMARK    3  A    between atoms: C_16  and  S_19
REMARK    4  A    between atoms: S_19  and  C_20
REMARK    5  A    between atoms: C_20  and  C_21
REMARK    6  A    between atoms: C_21  and  C_22
REMARK                            x       y       z     vdW  Elec       q    Type
REMARK                         _______ _______ _______ _____ _____    ______ ____
ROOT
ATOM      1  N   UNL     1      -1.150   2.163   0.012  0.00  0.00    -0.205 N 
ATOM      2  C   UNL     1      -0.017   1.363  -0.006  0.00  0.00    +0.232 A 
ATOM      3  N   UNL     1       0.002  -0.004  -0.014  0.00  0.00    -0.186 NA
ATOM      4  C   UNL     1       1.306  -0.408  -0.038  0.00  0.00    +0.210 A 
ATOM      5  N   UNL     1       2.063   0.663  -0.044  0.00  0.00    -0.144 NA
ATOM      6  N   UNL     1       1.225   1.785  -0.023  0.00  0.00    -0.245 N 
ATOM      7  H   UNL     1      -2.148   1.702   0.021  0.00  0.00    +0.177 HD
ATOM      8  H   UNL     1       1.439   2.864  -0.020  0.00  0.00    +0.192 HD
ENDROOT
BRANCH   1  10
ATOM      9  C   UNL     1      -2.084   4.308   0.036  0.00  0.00    +0.139 C 
ATOM     10  N   UNL     1      -1.022   3.558   0.019  0.00  0.00    -0.188 NA
BRANCH   9  20
ATOM     11  C   UNL     1       1.829   7.656   0.331  0.00  0.00    +0.001 A 
ATOM     12  C   UNL     1       1.743   6.265   0.328  0.00  0.00    +0.001 A 
ATOM     13  C   UNL     1       0.536   5.639   0.236  0.00  0.00    +0.009 A 
ATOM     14  C   UNL     1      -0.635   6.401   0.143  0.00  0.00    -0.009 A 
ATOM     15  C   UNL     1      -0.551   7.815   0.146  0.00  0.00    -0.017 A 
ATOM     16  C   UNL     1       0.711   8.428   0.243  0.00  0.00    +0.008 A 
ATOM     17  C   UNL     1      -1.728   8.577   0.054  0.00  0.00    +0.008 A 
ATOM     18  C   UNL     1      -2.943   7.970  -0.038  0.00  0.00    +0.001 A 
ATOM     19  C   UNL     1      -3.072   6.588  -0.051  0.00  0.00    +0.010 A 
ATOM     20  C   UNL     1      -1.950   5.772   0.043  0.00  0.00    +0.002 A 
ENDBRANCH   9  20
ENDBRANCH   1  10
BRANCH   4  21
ATOM     21  S   UNL     1       1.873  -2.077  -0.057  0.00  0.00    -0.084 S 
BRANCH  21  22
ATOM     22  C   UNL     1       3.662  -1.801  -0.084  0.00  0.00    +0.086 C 
BRANCH  22  23
ATOM     23  C   UNL     1       4.386  -3.148  -0.104  0.00  0.00    +0.107 C 
BRANCH  23  24
ATOM     24  C   UNL     1       5.875  -2.919  -0.127  0.00  0.00    +0.219 C 
ATOM     25  O   UNL     1       6.314  -1.788  -0.127  0.00  0.00    -0.275 OA
ATOM     26  N   UNL     1       6.718  -3.969  -0.147  0.00  0.00    -0.265 N 
ATOM     27  C   UNL     1       8.088  -3.758  -0.168  0.00  0.00    +0.165 A 
ATOM     28  N   UNL     1       9.057  -4.643  -0.188  0.00  0.00    -0.225 NA
ATOM     29  C   UNL     1      10.361  -4.291  -0.208  0.00  0.00    +0.080 A 
ATOM     30  C   UNL     1      11.493  -5.138  -0.232  0.00  0.00    +0.029 A 
ATOM     31  C   UNL     1      12.759  -4.613  -0.250  0.00  0.00    +0.002 A 
ATOM     32  C   UNL     1      12.976  -3.243  -0.245  0.00  0.00    +0.001 A 
ATOM     33  C   UNL     1      11.892  -2.385  -0.222  0.00  0.00    +0.017 A 
ATOM     34  C   UNL     1      10.620  -2.902  -0.204  0.00  0.00    +0.041 A 
ATOM     35  S   UNL     1       8.983  -2.212  -0.181  0.00  0.00    -0.052 S 
ATOM     36  H   UNL     1       6.320  -4.995  -0.146  0.00  0.00    +0.157 HD
ENDBRANCH  23  24
ENDBRANCH  22  23
ENDBRANCH  21  22
ENDBRANCH   4  21
TORSDOF 6
