REMARK  Name = ZINC13727420
REMARK  5 active torsions:
REMARK  status: ('A' for Active; 'I' for Inactive)
REMARK    1  A    between atoms: C_1  and  N_2
REMARK    2  A    between atoms: C_10  and  C_12
REMARK    3  A    between atoms: N_16  and  N_20
REMARK    4  A    between atoms: C_21  and  C_23
REMARK    5  A    between atoms: C_26  and  O_29
REMARK                            x       y       z     vdW  Elec       q    Type
REMARK                         _______ _______ _______ _____ _____    ______ ____
ROOT
ATOM      1  C   UNL     1      -2.641   5.692  -2.997  0.00  0.00    +0.028 C 
ATOM      2  C   UNL     1      -2.954   7.008  -2.874  0.00  0.00    +0.079 C 
ATOM      3  C   UNL     1      -3.593   7.918  -3.845  0.00  0.00    +0.275 C 
ATOM      4  O   UNL     1      -3.929   7.538  -4.951  0.00  0.00    -0.267 OA
ATOM      5  N   UNL     1      -3.784   9.165  -3.451  0.00  0.00    -0.169 N 
ATOM      6  C   UNL     1      -3.403   9.584  -2.227  0.00  0.00    +0.138 C 
ATOM      7  S   UNL     1      -3.556  11.145  -1.542  0.00  0.00    -0.026 S 
ATOM      8  S   UNL     1      -2.700   8.115  -1.494  0.00  0.00    -0.059 S 
ENDROOT
BRANCH   1  18
ATOM      9  C   UNL     1      -1.686   3.198   2.685  0.00  0.00    +0.129 C 
ATOM     10  N   UNL     1      -0.874   2.824   1.519  0.00  0.00    -0.333 N 
ATOM     11  C   UNL     1      -0.828   1.370   1.358  0.00  0.00    +0.105 C 
ATOM     12  C   UNL     1       0.012   1.041   0.117  0.00  0.00    +0.024 C 
ATOM     13  C   UNL     1      -0.762   1.516  -1.115  0.00  0.00    +0.038 C 
ATOM     14  C   UNL     1      -1.268   2.918  -0.887  0.00  0.00    -0.026 A 
ATOM     15  C   UNL     1      -1.306   3.489   0.378  0.00  0.00    +0.033 A 
ATOM     16  C   UNL     1      -1.791   4.792   0.536  0.00  0.00    +0.024 A 
ATOM     17  C   UNL     1      -2.226   5.512  -0.550  0.00  0.00    +0.010 A 
ATOM     18  C   UNL     1      -2.183   4.934  -1.826  0.00  0.00    -0.023 A 
ATOM     19  C   UNL     1      -1.699   3.631  -1.976  0.00  0.00    +0.013 A 
ENDBRANCH   1  18
BRANCH   5  20
ATOM     20  N   UNL     1      -4.391  10.074  -4.327  0.00  0.00    -0.222 N 
ATOM     21  C   UNL     1      -3.647  11.009  -4.951  0.00  0.00    +0.261 C 
ATOM     22  O   UNL     1      -2.448  11.063  -4.753  0.00  0.00    -0.269 OA
ATOM     23  H   UNL     1      -5.347  10.031  -4.485  0.00  0.00    +0.174 HD
BRANCH  21  24
ATOM     24  C   UNL     1      -4.286  11.966  -5.874  0.00  0.00    +0.038 A 
ATOM     25  C   UNL     1      -5.662  11.902  -6.107  0.00  0.00    +0.016 A 
ATOM     26  C   UNL     1      -6.256  12.800  -6.966  0.00  0.00    +0.046 A 
ATOM     27  C   UNL     1      -5.486  13.763  -7.608  0.00  0.00    +0.117 A 
ATOM     28  C   UNL     1      -4.116  13.827  -7.383  0.00  0.00    +0.046 A 
ATOM     29  C   UNL     1      -3.516  12.936  -6.522  0.00  0.00    +0.016 A 
BRANCH  27  30
ATOM     30  O   UNL     1      -6.074  14.644  -8.458  0.00  0.00    -0.507 OA
ATOM     31  H   UNL     1      -6.107  14.342  -9.376  0.00  0.00    +0.292 HD
ENDBRANCH  27  30
ENDBRANCH  21  24
ENDBRANCH   5  20
TORSDOF 4
