REMARK  Name = ZINC67408384
REMARK  6 active torsions:
REMARK  status: ('A' for Active; 'I' for Inactive)
REMARK    1  A    between atoms: C_1  and  C_2
REMARK    2  A    between atoms: C_2  and  C_4
REMARK    3  A    between atoms: C_2  and  N_11
REMARK    4  A    between atoms: C_8  and  O_10
REMARK    5  A    between atoms: N_11  and  C_12
REMARK    6  A    between atoms: C_18  and  C_21
REMARK                            x       y       z     vdW  Elec       q    Type
REMARK                         _______ _______ _______ _____ _____    ______ ____
ROOT
ATOM      1  N   UNL     1       0.821  -0.441  -1.214  0.00  0.00    -0.282 N 
ATOM      2  C   UNL     1       0.546   0.072  -2.559  0.00  0.00    +0.134 C 
ATOM      3  C   UNL     1       1.830  -1.312  -1.019  0.00  0.00    +0.308 C 
ATOM      4  O   UNL     1       2.059  -1.738   0.097  0.00  0.00    -0.252 OA
ATOM      5  N   UNL     1       2.585  -1.713  -2.061  0.00  0.00    -0.248 N 
ATOM      6  C   UNL     1       3.626  -2.612  -1.859  0.00  0.00    +0.166 A 
ATOM      7  N   UNL     1       4.474  -3.118  -2.735  0.00  0.00    -0.225 NA
ATOM      8  C   UNL     1       5.416  -3.973  -2.366  0.00  0.00    +0.080 A 
ATOM      9  C   UNL     1       5.511  -4.339  -1.052  0.00  0.00    +0.076 A 
ATOM     10  S   UNL     1       4.175  -3.385  -0.344  0.00  0.00    -0.060 S 
ATOM     11  H   UNL     1       2.403  -1.374  -2.951  0.00  0.00    +0.158 HD
ENDROOT
BRANCH   8  12
ATOM     12  C   UNL     1       6.357  -4.529  -3.368  0.00  0.00    +0.001 A 
ATOM     13  C   UNL     1       7.343  -5.433  -2.976  0.00  0.00    +0.010 A 
ATOM     14  C   UNL     1       8.217  -5.946  -3.913  0.00  0.00    +0.001 A 
ATOM     15  C   UNL     1       8.116  -5.565  -5.239  0.00  0.00    +0.000 A 
ATOM     16  C   UNL     1       7.139  -4.667  -5.634  0.00  0.00    +0.001 A 
ATOM     17  C   UNL     1       6.256  -4.153  -4.707  0.00  0.00    +0.010 A 
ENDBRANCH   8  12
BRANCH   1  19
ATOM     18  C   UNL     1       0.007   1.524  -0.005  0.00  0.00    +0.033 C 
ATOM     19  C   UNL     1       0.000  -0.005  -0.082  0.00  0.00    +0.104 C 
BRANCH  19  20
ATOM     20  C   UNL     1      -1.413  -0.492  -0.269  0.00  0.00    -0.024 A 
ATOM     21  C   UNL     1      -1.653  -1.672  -0.950  0.00  0.00    +0.006 A 
ATOM     22  C   UNL     1      -2.948  -2.122  -1.123  0.00  0.00    +0.004 A 
ATOM     23  C   UNL     1      -4.008  -1.393  -0.617  0.00  0.00    +0.045 A 
ATOM     24  C   UNL     1      -3.770  -0.210   0.067  0.00  0.00    +0.117 A 
ATOM     25  C   UNL     1      -2.468   0.236   0.245  0.00  0.00    +0.050 A 
BRANCH  24  26
ATOM     26  O   UNL     1      -4.810   0.508   0.566  0.00  0.00    -0.507 OA
ATOM     27  H   UNL     1      -5.057   0.267   1.469  0.00  0.00    +0.292 HD
ENDBRANCH  24  26
ENDBRANCH  19  20
ENDBRANCH   1  19
TORSDOF 4
