REMARK  Name = ZINC40013036
REMARK  7 active torsions:
REMARK  status: ('A' for Active; 'I' for Inactive)
REMARK    1  A    between atoms: C_1  and  C_2
REMARK    2  A    between atoms: C_2  and  N_3
REMARK    3  A    between atoms: N_3  and  C_4
REMARK    4  A    between atoms: C_12  and  C_14
REMARK    5  A    between atoms: C_14  and  S_15
REMARK    6  A    between atoms: S_15  and  C_16
REMARK    7  A    between atoms: C_20  and  C_22
REMARK                            x       y       z     vdW  Elec       q    Type
REMARK                         _______ _______ _______ _____ _____    ______ ____
ROOT
ATOM      1  C   UNL     1      -1.365  -0.556   5.341  0.00  0.00    +0.339 C 
ATOM      2  N   UNL     1      -0.125  -1.350   5.323  0.00  0.00    -0.219 N 
ATOM      3  N   UNL     1       0.920  -0.414   5.297  0.00  0.00    -0.145 NA
ATOM      4  C   UNL     1       0.436   0.800   5.299  0.00  0.00    +0.238 C 
ATOM      5  O   UNL     1      -0.921   0.808   5.326  0.00  0.00    -0.443 OA
ATOM      6  H   UNL     1      -0.047  -2.317   5.327  0.00  0.00    +0.173 HD
ENDROOT
BRANCH   4   7
ATOM      7  C   UNL     1       1.226   1.958   5.277  0.00  0.00    +0.043 C 
ATOM      8  C   UNL     1       2.620   2.028   5.245  0.00  0.00    +0.008 A 
ATOM      9  C   UNL     1       3.624   1.037   5.225  0.00  0.00    +0.010 A 
ATOM     10  C   UNL     1       4.931   1.403   5.194  0.00  0.00    +0.001 A 
ATOM     11  C   UNL     1       5.314   2.746   5.180  0.00  0.00    +0.002 A 
ATOM     12  C   UNL     1       4.403   3.750   5.197  0.00  0.00    +0.026 A 
ATOM     13  C   UNL     1       3.018   3.445   5.231  0.00  0.00    +0.043 A 
ATOM     14  N   UNL     1       1.954   4.223   5.252  0.00  0.00    -0.380 N 
ATOM     15  C   UNL     1       0.746   3.392   5.277  0.00  0.00    +0.154 C 
ATOM     16  H   UNL     1       1.968   5.193   5.249  0.00  0.00    +0.160 HD
ENDBRANCH   4   7
BRANCH   1  17
ATOM     17  S   UNL     1      -2.367  -0.912   3.871  0.00  0.00    -0.087 S 
BRANCH  17  18
ATOM     18  C   UNL     1      -1.274  -0.497   2.484  0.00  0.00    +0.170 C 
BRANCH  18  20
ATOM     19  N   UNL     1      -1.372  -0.511   0.012  0.00  0.00    -0.296 N 
ATOM     20  C   UNL     1      -1.993  -0.751   1.184  0.00  0.00    +0.226 C 
ATOM     21  O   UNL     1      -3.131  -1.171   1.193  0.00  0.00    -0.275 OA
BRANCH  19  22
ATOM     22  C   UNL     1      -2.072  -0.758  -1.251  0.00  0.00    +0.098 C 
ATOM     23  C   UNL     1      -3.356   0.086  -1.307  0.00  0.00    +0.046 C 
ATOM     24  C   UNL     1      -4.255  -0.397  -2.471  0.00  0.00    +0.168 C 
ATOM     25  S   UNL     1      -3.798  -2.172  -2.623  0.00  0.00    -0.029 S 
ATOM     26  O   UNL     1      -4.897  -2.970  -2.204  0.00  0.00    -0.174 OA
ATOM     27  O   UNL     1      -3.221  -2.393  -3.903  0.00  0.00    -0.174 OA
ATOM     28  C   UNL     1      -2.474  -2.257  -1.345  0.00  0.00    +0.188 C 
ENDBRANCH  19  22
BRANCH  19  30
ATOM     29  C   UNL     1      -0.019   1.526   0.010  0.00  0.00    +0.024 C 
ATOM     30  C   UNL     1       0.002  -0.004   0.002  0.00  0.00    +0.105 C 
ENDBRANCH  19  30
ENDBRANCH  18  20
ENDBRANCH  17  18
ENDBRANCH   1  17
TORSDOF 6
