REMARK  Name = ZINC18199146
REMARK  9 active torsions:
REMARK  status: ('A' for Active; 'I' for Inactive)
REMARK    1  A    between atoms: C_1  and  C_2
REMARK    2  A    between atoms: C_2  and  C_4
REMARK    3  A    between atoms: C_2  and  C_14
REMARK    4  A    between atoms: C_4  and  C_5
REMARK    5  A    between atoms: C_19  and  C_24
REMARK    6  A    between atoms: C_27  and  O_32
REMARK    7  A    between atoms: C_28  and  O_30
REMARK    8  A    between atoms: O_30  and  C_31
REMARK    9  A    between atoms: O_32  and  C_33
REMARK                            x       y       z     vdW  Elec       q    Type
REMARK                         _______ _______ _______ _____ _____    ______ ____
ROOT
ATOM      1  C   UNL     1       0.956   5.615   1.492  0.00  0.00    +0.149 C 
ATOM      2  C   UNL     1       1.076   6.103   2.919  0.00  0.00    +0.037 C 
ATOM      3  C   UNL     1       2.159   6.779   3.358  0.00  0.00    +0.020 C 
ATOM      4  C   UNL     1       2.260   7.230   4.796  0.00  0.00    +0.060 C 
ATOM      5  C   UNL     1       0.863   7.536   5.339  0.00  0.00    +0.032 C 
ATOM      6  C   UNL     1       0.010   6.269   5.217  0.00  0.00    +0.088 C 
ATOM      7  C   UNL     1       0.002   5.822   3.782  0.00  0.00    +0.163 C 
ATOM      8  O   UNL     1      -0.955   5.204   3.358  0.00  0.00    -0.292 OA
ATOM      9  N   UNL     1       3.211   7.082   2.527  0.00  0.00    -0.287 N 
ATOM     10  C   UNL     1       3.026   6.936   1.162  0.00  0.00    +0.220 A 
ATOM     11  N   UNL     1       1.968   6.255   0.659  0.00  0.00    -0.223 N 
ATOM     12  N   UNL     1       2.081   6.310  -0.729  0.00  0.00    -0.132 NA
ATOM     13  C   UNL     1       3.170   6.997  -0.994  0.00  0.00    +0.233 A 
ATOM     14  N   UNL     1       3.740   7.374   0.160  0.00  0.00    -0.180 NA
ATOM     15  N   UNL     1       3.656   7.287  -2.269  0.00  0.00    -0.326 N 
ATOM     16  H   UNL     1       4.058   7.388   2.886  0.00  0.00    +0.155 HD
ATOM     17  H   UNL     1       3.179   6.973  -3.053  0.00  0.00    +0.145 HD
ATOM     18  H   UNL     1       4.471   7.803  -2.372  0.00  0.00    +0.145 HD
ENDROOT
BRANCH   5  19
ATOM     19  C   UNL     1       0.960   7.947   6.786  0.00  0.00    -0.040 A 
ATOM     20  C   UNL     1       1.494   7.075   7.716  0.00  0.00    +0.008 A 
ATOM     21  C   UNL     1       1.585   7.447   9.044  0.00  0.00    +0.049 A 
ATOM     22  C   UNL     1       1.141   8.697   9.446  0.00  0.00    +0.161 A 
ATOM     23  C   UNL     1       0.603   9.574   8.509  0.00  0.00    +0.162 A 
ATOM     24  C   UNL     1       0.519   9.197   7.179  0.00  0.00    +0.053 A 
BRANCH  23  25
ATOM     25  O   UNL     1       0.165  10.802   8.898  0.00  0.00    -0.491 OA
ATOM     26  C   UNL     1      -0.375  11.650   7.883  0.00  0.00    +0.277 C 
ENDBRANCH  23  25
BRANCH  22  27
ATOM     27  O   UNL     1       1.230   9.065  10.752  0.00  0.00    -0.491 OA
ATOM     28  C   UNL     1       1.792   8.113  11.657  0.00  0.00    +0.277 C 
ENDBRANCH  22  27
ENDBRANCH   5  19
BRANCH   1  30
ATOM     29  C   UNL     1       0.887   3.584   0.039  0.00  0.00    +0.010 C 
ATOM     30  C   UNL     1       1.153   4.099   1.455  0.00  0.00    +0.019 C 
BRANCH  30  31
ATOM     31  C   UNL     1       2.590   3.761   1.859  0.00  0.00    +0.041 C 
BRANCH  31  32
ATOM     32  C   UNL     1       2.749   2.265   1.942  0.00  0.00    -0.043 A 
ATOM     33  C   UNL     1       2.504   1.610   3.135  0.00  0.00    +0.007 A 
ATOM     34  C   UNL     1       2.651   0.238   3.216  0.00  0.00    +0.050 A 
ATOM     35  C   UNL     1       3.042  -0.485   2.102  0.00  0.00    +0.166 A 
ATOM     36  C   UNL     1       3.288   0.174   0.900  0.00  0.00    +0.166 A 
ATOM     37  C   UNL     1       3.140   1.550   0.825  0.00  0.00    +0.053 A 
ATOM     38  O   UNL     1       3.656  -0.749  -0.037  0.00  0.00    -0.453 OA
ATOM     39  C   UNL     1       4.028  -1.924   0.707  0.00  0.00    +0.466 C 
ATOM     40  O   UNL     1       3.256  -1.821   1.918  0.00  0.00    -0.453 OA
ENDBRANCH  31  32
ENDBRANCH  30  31
ENDBRANCH   1  30
TORSDOF 6
