REMARK  Name = ZINC09680425
REMARK  6 active torsions:
REMARK  status: ('A' for Active; 'I' for Inactive)
REMARK    1  A    between atoms: C_1  and  C_2
REMARK    2  A    between atoms: C_5  and  C_8
REMARK    3  A    between atoms: C_14  and  C_15
REMARK    4  A    between atoms: C_17  and  C_31
REMARK    5  A    between atoms: N_18  and  C_21
REMARK    6  A    between atoms: C_19  and  C_20
REMARK                            x       y       z     vdW  Elec       q    Type
REMARK                         _______ _______ _______ _____ _____    ______ ____
ROOT
ATOM      1  C   UNL     1      -0.027  -2.453   1.406  0.00  0.00    +0.130 C 
ATOM      2  N   UNL     1       1.167  -1.942   1.228  0.00  0.00    -0.164 NA
ATOM      3  N   UNL     1       1.332  -0.603   0.944  0.00  0.00    -0.152 N 
ATOM      4  C   UNL     1       2.569   0.069   0.840  0.00  0.00    +0.153 C 
ATOM      5  N   UNL     1       3.676  -0.380   1.371  0.00  0.00    -0.283 NA
ATOM      6  C   UNL     1       2.490   1.339   0.068  0.00  0.00    +0.081 C 
ATOM      7  C   UNL     1       3.543   1.788  -0.703  0.00  0.00    +0.026 C 
ATOM      8  C   UNL     1       1.220   2.096   0.171  0.00  0.00    +0.273 C 
ATOM      9  O   UNL     1       1.192   3.304  -0.006  0.00  0.00    -0.268 OA
ATOM     10  N   UNL     1       0.097   1.411   0.465  0.00  0.00    -0.152 NA
ATOM     11  C   UNL     1       0.184   0.145   0.786  0.00  0.00    +0.181 C 
ATOM     12  S   UNL     1      -1.087  -1.036   1.149  0.00  0.00    -0.033 S 
ATOM     13  H   UNL     1       3.659  -1.173   1.929  0.00  0.00    +0.188 HD
ENDROOT
BRANCH   1  18
ATOM     14  C   UNL     1      -1.486  -7.871   2.688  0.00  0.00    +0.044 C 
ATOM     15  C   UNL     1      -1.104  -6.452   2.352  0.00  0.00    -0.050 A 
ATOM     16  C   UNL     1      -2.088  -5.493   2.193  0.00  0.00    +0.004 A 
ATOM     17  C   UNL     1      -1.745  -4.193   1.886  0.00  0.00    +0.011 A 
ATOM     18  C   UNL     1      -0.402  -3.846   1.736  0.00  0.00    +0.009 A 
ATOM     19  C   UNL     1       0.585  -4.819   1.891  0.00  0.00    +0.011 A 
ATOM     20  C   UNL     1       0.230  -6.114   2.204  0.00  0.00    +0.004 A 
ENDBRANCH   1  18
BRANCH   7  21
ATOM     21  C   UNL     1       4.666   0.950  -0.927  0.00  0.00    -0.003 A 
ATOM     22  C   UNL     1       4.729  -0.509  -0.761  0.00  0.00    +0.031 A 
ATOM     23  C   UNL     1       5.981  -0.874  -1.083  0.00  0.00    +0.022 A 
ATOM     24  N   UNL     1       6.698   0.236  -1.434  0.00  0.00    -0.317 N 
ATOM     25  C   UNL     1       5.926   1.339  -1.352  0.00  0.00    +0.028 A 
ATOM     26  C   UNL     1       6.359   2.748  -1.665  0.00  0.00    +0.064 C 
ATOM     27  C   UNL     1       6.511  -2.285  -1.061  0.00  0.00    +0.064 C 
BRANCH  24  28
ATOM     28  C   UNL     1       8.039   0.229  -1.828  0.00  0.00    +0.054 A 
ATOM     29  C   UNL     1       8.373   0.076  -3.157  0.00  0.00    +0.027 A 
ATOM     30  C   UNL     1       9.704   0.073  -3.561  0.00  0.00    +0.003 A 
ATOM     31  C   UNL     1      10.713   0.208  -2.656  0.00  0.00    +0.008 A 
ATOM     32  C   UNL     1      10.416   0.361  -1.292  0.00  0.00    -0.016 A 
ATOM     33  C   UNL     1       9.064   0.372  -0.869  0.00  0.00    +0.006 A 
ATOM     34  C   UNL     1       8.769   0.525   0.495  0.00  0.00    +0.010 A 
ATOM     35  C   UNL     1       9.783   0.660   1.393  0.00  0.00    +0.001 A 
ATOM     36  C   UNL     1      11.114   0.650   0.978  0.00  0.00    +0.001 A 
ATOM     37  C   UNL     1      11.437   0.504  -0.336  0.00  0.00    +0.008 A 
ENDBRANCH  24  28
ENDBRANCH   7  21
TORSDOF 3
