REMARK  Name = ZINC13066485
REMARK  10 active torsions:
REMARK  status: ('A' for Active; 'I' for Inactive)
REMARK    1  A    between atoms: C_1  and  C_2
REMARK    2  A    between atoms: C_2  and  C_14
REMARK    3  A    between atoms: N_3  and  N_4
REMARK    4  A    between atoms: C_5  and  C_7
REMARK    5  A    between atoms: C_7  and  C_8
REMARK    6  A    between atoms: C_17  and  S_20
REMARK    7  A    between atoms: S_20  and  N_23
REMARK    8  A    between atoms: N_23  and  C_24
REMARK    9  A    between atoms: C_24  and  C_25
REMARK   10  A    between atoms: C_28  and  C_31
REMARK                            x       y       z     vdW  Elec       q    Type
REMARK                         _______ _______ _______ _____ _____    ______ ____
ROOT
ATOM      1  C   UNL     1       1.078   3.535   0.011  0.00  0.00    -0.002 A 
ATOM      2  C   UNL     1       2.276   4.253   0.009  0.00  0.00    +0.011 A 
ATOM      3  C   UNL     1       2.250   5.633   0.011  0.00  0.00    +0.029 A 
ATOM      4  C   UNL     1       1.040   6.305   0.026  0.00  0.00    +0.105 A 
ATOM      5  C   UNL     1      -0.150   5.600   0.034  0.00  0.00    +0.029 A 
ATOM      6  C   UNL     1      -0.139   4.221   0.026  0.00  0.00    +0.011 A 
ENDROOT
BRANCH   1   8
ATOM      7  C   UNL     1       2.413   1.325  -0.014  0.00  0.00    +0.068 C 
ATOM      8  C   UNL     1       1.098   2.061   0.003  0.00  0.00    +0.063 C 
ATOM      9  N   UNL     1      -0.017   1.397   0.010  0.00  0.00    -0.185 NA
BRANCH   9  10
ATOM     10  N   UNL     1       0.002  -0.004   0.002  0.00  0.00    -0.206 N 
ATOM     11  C   UNL     1      -1.156  -0.694   0.009  0.00  0.00    +0.237 C 
ATOM     12  O   UNL     1      -2.214  -0.102   0.023  0.00  0.00    -0.274 OA
ATOM     13  H   UNL     1       0.849  -0.478  -0.009  0.00  0.00    +0.177 HD
BRANCH  11  14
ATOM     14  C   UNL     1      -1.135  -2.201   0.001  0.00  0.00    +0.132 C 
BRANCH  14  15
ATOM     15  C   UNL     1      -2.549  -2.722   0.012  0.00  0.00    -0.039 A 
ATOM     16  C   UNL     1      -3.184  -2.973   1.214  0.00  0.00    +0.004 A 
ATOM     17  C   UNL     1      -4.483  -3.447   1.224  0.00  0.00    +0.000 A 
ATOM     18  C   UNL     1      -5.143  -3.679   0.031  0.00  0.00    +0.000 A 
ATOM     19  C   UNL     1      -4.506  -3.434  -1.171  0.00  0.00    +0.000 A 
ATOM     20  C   UNL     1      -3.209  -2.955  -1.180  0.00  0.00    +0.004 A 
ENDBRANCH  14  15
ENDBRANCH  11  14
ENDBRANCH   9  10
ENDBRANCH   1   8
BRANCH   4  21
ATOM     21  S   UNL     1       1.016   8.067   0.035  0.00  0.00    +0.059 S 
ATOM     22  O   UNL     1       2.251   8.492  -0.525  0.00  0.00    -0.153 OA
ATOM     23  O   UNL     1      -0.239   8.459  -0.502  0.00  0.00    -0.153 OA
BRANCH  21  24
ATOM     24  N   UNL     1       1.025   8.548   1.619  0.00  0.00    -0.186 NA
ATOM     25  H   UNL     1       0.260   9.019   1.987  0.00  0.00    +0.148 HD
BRANCH  24  26
ATOM     26  C   UNL     1       2.186   8.264   2.465  0.00  0.00    +0.141 C 
BRANCH  26  27
ATOM     27  C   UNL     1       2.114   9.102   3.716  0.00  0.00    -0.032 A 
ATOM     28  C   UNL     1       2.700  10.355   3.739  0.00  0.00    +0.006 A 
ATOM     29  C   UNL     1       2.634  11.130   4.879  0.00  0.00    +0.015 A 
ATOM     30  C   UNL     1       1.983  10.642   6.014  0.00  0.00    +0.063 A 
ATOM     31  C   UNL     1       1.398   9.374   5.985  0.00  0.00    +0.015 A 
ATOM     32  C   UNL     1       1.468   8.613   4.837  0.00  0.00    +0.006 A 
BRANCH  30  33
ATOM     33  C   UNL     1       1.912  11.464   7.239  0.00  0.00    +0.387 C 
ATOM     34  O   UNL     1       1.345  11.037   8.225  0.00  0.00    -0.241 OA
ATOM     35  O   UNL     1       2.477  12.686   7.264  0.00  0.00    -0.241 OA
ENDBRANCH  30  33
ENDBRANCH  26  27
ENDBRANCH  24  26
ENDBRANCH  21  24
ENDBRANCH   4  21
TORSDOF 9
