REMARK  Name = ZINC35361218
REMARK  8 active torsions:
REMARK  status: ('A' for Active; 'I' for Inactive)
REMARK    1  A    between atoms: C_1  and  C_2
REMARK    2  A    between atoms: N_5  and  C_17
REMARK    3  A    between atoms: N_8  and  C_9
REMARK    4  A    between atoms: C_13  and  O_15
REMARK    5  A    between atoms: O_15  and  C_16
REMARK    6  A    between atoms: C_17  and  C_18
REMARK    7  A    between atoms: C_24  and  C_37
REMARK    8  A    between atoms: C_29  and  C_36
REMARK                            x       y       z     vdW  Elec       q    Type
REMARK                         _______ _______ _______ _____ _____    ______ ____
ROOT
ATOM      1  C   UNL     1      -2.788  -1.909   0.238  0.00  0.00    -0.064 C 
ENDROOT
BRANCH   1   2
ATOM      2  C   UNL     1      -3.164  -3.390   0.162  0.00  0.00    +0.088 C 
ATOM      3  C   UNL     1      -4.673  -3.576   0.325  0.00  0.00    +0.046 C 
ATOM      4  C   UNL     1      -5.568  -2.402  -0.010  0.00  0.00    +0.009 C 
ATOM      5  C   UNL     1      -7.019  -2.835   0.264  0.00  0.00    +0.015 C 
ATOM      6  C   UNL     1      -7.217  -3.259   1.717  0.00  0.00    +0.011 C 
ATOM      7  C   UNL     1      -8.590  -3.793   1.938  0.00  0.00    -0.012 C 
ATOM      8  C   UNL     1      -8.855  -4.943   2.536  0.00  0.00    +0.048 C 
ATOM      9  C   UNL     1      -7.752  -5.788   3.025  0.00  0.00    +0.182 C 
ATOM     10  O   UNL     1      -7.979  -6.827   3.618  0.00  0.00    -0.288 OA
ATOM     11  C   UNL     1      -6.370  -5.348   2.778  0.00  0.00    -0.000 C 
ATOM     12  C   UNL     1      -6.128  -4.199   2.171  0.00  0.00    -0.013 C 
ATOM     13  C   UNL     1      -4.729  -3.769   1.873  0.00  0.00    +0.208 C 
ATOM     14  O   UNL     1      -3.645  -4.654   2.087  0.00  0.00    -0.456 OA
ATOM     15  C   UNL     1      -2.598  -4.156   1.358  0.00  0.00    +0.309 C 
ATOM     16  O   UNL     1      -1.425  -4.296   1.614  0.00  0.00    -0.251 OA
ATOM     17  C   UNL     1      -5.220  -6.214   3.222  0.00  0.00    +0.048 C 
ATOM     18  C   UNL     1      -7.101  -1.994   2.569  0.00  0.00    +0.020 C 
ENDBRANCH   1   2
BRANCH   1  22
ATOM     19  C   UNL     1       1.039  -2.448  -2.774  0.00  0.00    +0.026 C 
ATOM     20  C   UNL     1       0.609  -2.148  -1.336  0.00  0.00    +0.054 C 
ATOM     21  C   UNL     1      -0.919  -2.187  -1.237  0.00  0.00    -0.056 C 
ATOM     22  N   UNL     1      -1.332  -1.766   0.108  0.00  0.00    +0.382 N 
ATOM     23  C   UNL     1      -0.958  -0.363   0.329  0.00  0.00    -0.060 C 
ATOM     24  C   UNL     1       0.568  -0.233   0.307  0.00  0.00    +0.087 C 
ATOM     25  N   UNL     1       1.071  -0.804  -0.953  0.00  0.00    -0.331 N 
ATOM     26  H   UNL     1      -0.877  -2.346   0.796  0.00  0.00    -0.082 HD
BRANCH  25  27
ATOM     27  C   UNL     1       1.956  -0.091  -1.764  0.00  0.00    +0.033 A 
ATOM     28  C   UNL     1       1.524   1.048  -2.433  0.00  0.00    +0.023 A 
ATOM     29  C   UNL     1       2.400   1.753  -3.235  0.00  0.00    +0.005 A 
ATOM     30  C   UNL     1       3.708   1.329  -3.373  0.00  0.00    +0.046 A 
ATOM     31  C   UNL     1       4.146   0.194  -2.707  0.00  0.00    +0.122 A 
ATOM     32  C   UNL     1       3.271  -0.515  -1.897  0.00  0.00    +0.068 A 
BRANCH  31  33
ATOM     33  O   UNL     1       5.433  -0.222  -2.844  0.00  0.00    -0.495 OA
ATOM     34  C   UNL     1       6.280   0.559  -3.689  0.00  0.00    +0.277 C 
ENDBRANCH  31  33
ENDBRANCH  25  27
ENDBRANCH   1  22
TORSDOF 4
