REMARK  Name = ZINC06398487
REMARK  7 active torsions:
REMARK  status: ('A' for Active; 'I' for Inactive)
REMARK    1  A    between atoms: C_1  and  O_2
REMARK    2  A    between atoms: O_2  and  C_3
REMARK    3  A    between atoms: C_8  and  N_9
REMARK    4  A    between atoms: N_9  and  C_10
REMARK    5  A    between atoms: C_10  and  N_12
REMARK    6  A    between atoms: N_15  and  C_18
REMARK    7  A    between atoms: C_21  and  O_24
REMARK                            x       y       z     vdW  Elec       q    Type
REMARK                         _______ _______ _______ _____ _____    ______ ____
ROOT
ATOM      1  N   UNL     1       3.335   6.018  -0.013  0.00  0.00    -0.309 N 
ATOM      2  C   UNL     1       4.670   5.428  -0.201  0.00  0.00    +0.125 C 
ATOM      3  C   UNL     1       5.365   6.166  -1.356  0.00  0.00    +0.124 C 
ATOM      4  N   UNL     1       5.357   7.610  -1.083  0.00  0.00    -0.327 N 
ATOM      5  C   UNL     1       3.986   8.135  -1.032  0.00  0.00    +0.124 C 
ATOM      6  C   UNL     1       3.234   7.478   0.130  0.00  0.00    +0.125 C 
ENDROOT
BRANCH   4   7
ATOM      7  C   UNL     1       6.125   8.302  -2.026  0.00  0.00    +0.030 A 
ATOM      8  C   UNL     1       5.556   9.332  -2.764  0.00  0.00    +0.027 A 
ATOM      9  C   UNL     1       6.316  10.019  -3.690  0.00  0.00    +0.047 A 
ATOM     10  C   UNL     1       7.644   9.673  -3.892  0.00  0.00    +0.117 A 
ATOM     11  C   UNL     1       8.211   8.642  -3.158  0.00  0.00    +0.047 A 
ATOM     12  C   UNL     1       7.455   7.957  -2.228  0.00  0.00    +0.027 A 
BRANCH  10  13
ATOM     13  O   UNL     1       8.390  10.346  -4.808  0.00  0.00    -0.507 OA
ATOM     14  H   UNL     1       8.361   9.963  -5.696  0.00  0.00    +0.292 HD
ENDBRANCH  10  13
ENDBRANCH   4   7
BRANCH   1  15
ATOM     15  C   UNL     1       2.235   5.240   0.032  0.00  0.00    +0.137 C 
ATOM     16  S   UNL     1       0.684   5.957   0.127  0.00  0.00    -0.018 S 
BRANCH  15  17
ATOM     17  N   UNL     1       2.357   3.898   0.002  0.00  0.00    -0.294 N 
ATOM     18  H   UNL     1       2.201   3.416  -0.825  0.00  0.00    +0.154 HD
BRANCH  17  24
ATOM     19  C   UNL     1       2.735   1.808   1.162  0.00  0.00    +0.141 A 
ATOM     20  C   UNL     1       3.083   1.123   2.315  0.00  0.00    +0.049 A 
ATOM     21  C   UNL     1       3.400   1.821   3.466  0.00  0.00    +0.024 A 
ATOM     22  C   UNL     1       3.380   3.204   3.467  0.00  0.00    +0.043 A 
ATOM     23  C   UNL     1       3.034   3.895   2.321  0.00  0.00    +0.047 A 
ATOM     24  C   UNL     1       2.709   3.201   1.164  0.00  0.00    +0.076 A 
ATOM     25 CL   UNL     1       3.785   4.074   4.914  0.00  0.00    -0.083 Cl
BRANCH  19  27
ATOM     26  C   UNL     1       2.464  -0.304   0.103  0.00  0.00    +0.277 C 
ATOM     27  O   UNL     1       2.417   1.122   0.031  0.00  0.00    -0.493 OA
ENDBRANCH  19  27
ENDBRANCH  17  24
ENDBRANCH  15  17
ENDBRANCH   1  15
TORSDOF 6
