REMARK  Name = ZINC67537172
REMARK  10 active torsions:
REMARK  status: ('A' for Active; 'I' for Inactive)
REMARK    1  A    between atoms: C_1  and  C_2
REMARK    2  A    between atoms: C_2  and  C_4
REMARK    3  A    between atoms: C_2  and  N_11
REMARK    4  A    between atoms: C_8  and  O_10
REMARK    5  A    between atoms: N_11  and  C_12
REMARK    6  A    between atoms: N_15  and  C_16
REMARK    7  A    between atoms: C_21  and  C_22
REMARK    8  A    between atoms: C_22  and  N_23
REMARK    9  A    between atoms: N_23  and  C_24
REMARK   10  A    between atoms: N_23  and  C_25
REMARK                            x       y       z     vdW  Elec       q    Type
REMARK                         _______ _______ _______ _____ _____    ______ ____
ROOT
ATOM      1  N   UNL     1       0.833  -0.913  -1.030  0.00  0.00    -0.282 N 
ATOM      2  C   UNL     1       1.967  -0.157  -1.570  0.00  0.00    +0.134 C 
ATOM      3  C   UNL     1      -0.053  -1.487  -1.867  0.00  0.00    +0.307 C 
ATOM      4  O   UNL     1      -0.994  -2.114  -1.420  0.00  0.00    -0.252 OA
ATOM      5  N   UNL     1       0.103  -1.367  -3.201  0.00  0.00    -0.269 N 
ATOM      6  H   UNL     1       0.811  -0.808  -3.558  0.00  0.00    +0.156 HD
ENDROOT
BRANCH   5   7
ATOM      7  C   UNL     1      -0.757  -2.047  -4.070  0.00  0.00    +0.036 A 
ATOM      8  C   UNL     1      -2.087  -2.241  -3.723  0.00  0.00    +0.023 A 
ATOM      9  C   UNL     1      -2.934  -2.912  -4.583  0.00  0.00    +0.002 A 
ATOM     10  C   UNL     1      -2.457  -3.391  -5.790  0.00  0.00    +0.000 A 
ATOM     11  C   UNL     1      -1.133  -3.200  -6.139  0.00  0.00    +0.003 A 
ATOM     12  C   UNL     1      -0.283  -2.524  -5.285  0.00  0.00    -0.043 A 
BRANCH  12  13
ATOM     13  C   UNL     1       1.159  -2.310  -5.669  0.00  0.00    -0.041 C 
BRANCH  13  14
ATOM     14  N   UNL     1       1.998  -3.308  -4.992  0.00  0.00    +0.382 N 
ATOM     15  C   UNL     1       1.659  -4.649  -5.485  0.00  0.00    -0.095 C 
ATOM     16  H   UNL     1       1.836  -3.264  -3.997  0.00  0.00    -0.081 HD
BRANCH  14  17
ATOM     17  C   UNL     1       3.413  -3.027  -5.270  0.00  0.00    -0.069 C 
ATOM     18  C   UNL     1       4.288  -4.065  -4.565  0.00  0.00    -0.015 C 
ATOM     19  C   UNL     1       5.761  -3.772  -4.855  0.00  0.00    -0.002 C 
ATOM     20  C   UNL     1       6.114  -2.375  -4.341  0.00  0.00    -0.000 C 
ATOM     21  C   UNL     1       5.239  -1.337  -5.046  0.00  0.00    -0.002 C 
ATOM     22  C   UNL     1       3.766  -1.629  -4.756  0.00  0.00    -0.015 C 
ENDBRANCH  14  17
ENDBRANCH  13  14
ENDBRANCH  12  13
ENDBRANCH   5   7
BRANCH   1  24
ATOM     23  C   UNL     1       0.653   0.346   1.059  0.00  0.00    +0.033 C 
ATOM     24  C   UNL     1       0.664  -1.044   0.419  0.00  0.00    +0.104 C 
BRANCH  24  25
ATOM     25  C   UNL     1       1.803  -1.850   0.987  0.00  0.00    -0.024 A 
ATOM     26  C   UNL     1       1.544  -3.012   1.691  0.00  0.00    +0.006 A 
ATOM     27  C   UNL     1       2.588  -3.753   2.213  0.00  0.00    +0.004 A 
ATOM     28  C   UNL     1       3.892  -3.334   2.034  0.00  0.00    +0.045 A 
ATOM     29  C   UNL     1       4.154  -2.169   1.329  0.00  0.00    +0.117 A 
ATOM     30  C   UNL     1       3.106  -1.430   0.800  0.00  0.00    +0.050 A 
BRANCH  29  31
ATOM     31  O   UNL     1       5.436  -1.755   1.151  0.00  0.00    -0.507 OA
ATOM     32  H   UNL     1       5.854  -2.100   0.350  0.00  0.00    +0.292 HD
ENDBRANCH  29  31
ENDBRANCH  24  25
ENDBRANCH   1  24
TORSDOF 7
