REMARK  Name = ZINC42074405
REMARK  5 active torsions:
REMARK  status: ('A' for Active; 'I' for Inactive)
REMARK    1  A    between atoms: C_1  and  C_2
REMARK    2  A    between atoms: C_4  and  C_21
REMARK    3  A    between atoms: C_8  and  N_13
REMARK    4  A    between atoms: N_13  and  C_14
REMARK    5  A    between atoms: C_14  and  C_15
REMARK                            x       y       z     vdW  Elec       q    Type
REMARK                         _______ _______ _______ _____ _____    ______ ____
ROOT
ATOM      1  C   UNL     1      -0.018   1.503   0.010  0.00  0.00    +0.044 C 
ATOM      2  C   UNL     1       0.002  -0.004   0.002  0.00  0.00    -0.050 A 
ATOM      3  C   UNL     1       0.006  -0.691  -1.198  0.00  0.00    +0.008 A 
ATOM      4  C   UNL     1       0.025  -2.070  -1.213  0.00  0.00    -0.029 A 
ATOM      5  C   UNL     1       0.040  -2.782  -0.015  0.00  0.00    +0.038 A 
ATOM      6  C   UNL     1       0.037  -2.081   1.184  0.00  0.00    -0.031 A 
ATOM      7  C   UNL     1       0.023  -0.704   1.196  0.00  0.00    +0.007 A 
ATOM      8  C   UNL     1       0.056  -3.118   2.283  0.00  0.00    +0.049 C 
ATOM      9  C   UNL     1       0.071  -4.439   1.543  0.00  0.00    +0.208 C 
ATOM     10  O   UNL     1       0.088  -5.544   2.042  0.00  0.00    -0.277 OA
ATOM     11  N   UNL     1       0.060  -4.156   0.229  0.00  0.00    -0.286 N 
ATOM     12  C   UNL     1       0.028  -2.808  -2.527  0.00  0.00    +0.045 C 
ATOM     13  H   UNL     1       0.066  -4.829  -0.469  0.00  0.00    +0.155 HD
ENDROOT
BRANCH   8  14
ATOM     14  N   UNL     1      -1.147  -3.006   3.118  0.00  0.00    +0.392 N 
ATOM     15  H   UNL     1      -1.226  -2.063   3.469  0.00  0.00    -0.084 HD
ATOM     16  H   UNL     1      -1.962  -3.229   2.566  0.00  0.00    -0.084 HD
BRANCH  14  17
ATOM     17  C   UNL     1      -1.049  -3.941   4.247  0.00  0.00    -0.038 C 
BRANCH  17  18
ATOM     18  C   UNL     1      -2.283  -3.826   5.104  0.00  0.00    -0.026 A 
ATOM     19  C   UNL     1      -3.450  -4.510   5.015  0.00  0.00    +0.010 A 
ATOM     20  C   UNL     1      -4.458  -4.235   5.920  0.00  0.00    +0.023 A 
ATOM     21  C   UNL     1      -4.250  -3.288   6.869  0.00  0.00    +0.055 A 
ATOM     22  S   UNL     1      -2.585  -2.758   6.502  0.00  0.00    -0.088 S 
ATOM     23 BR   UNL     1      -5.417  -2.691   8.232  0.00  0.00    -0.043 Br
ENDBRANCH  17  18
ENDBRANCH  14  17
ENDBRANCH   8  14
TORSDOF 3
