REMARK  Name = ZINC36266783
REMARK  5 active torsions:
REMARK  status: ('A' for Active; 'I' for Inactive)
REMARK    1  A    between atoms: C_5  and  C_8
REMARK    2  A    between atoms: C_5  and  N_19
REMARK    3  A    between atoms: C_8  and  N_9
REMARK    4  A    between atoms: N_9  and  S_10
REMARK    5  A    between atoms: S_10  and  N_13
REMARK                            x       y       z     vdW  Elec       q    Type
REMARK                         _______ _______ _______ _____ _____    ______ ____
ROOT
ATOM      1  C   UNL     1       2.622  -1.851   1.665  0.00  0.00    +0.094 C 
ENDROOT
BRANCH   1   6
ATOM      2  C   UNL     1       0.329   1.807   0.072  0.00  0.00    -0.000 C 
ATOM      3  C   UNL     1       1.825   2.182   0.082  0.00  0.00    -0.000 C 
ATOM      4  C   UNL     1       2.353   2.004   1.480  0.00  0.00    -0.001 C 
ATOM      5  C   UNL     1       2.992   0.619   1.697  0.00  0.00    -0.012 C 
ATOM      6  C   UNL     1       2.183  -0.521   1.050  0.00  0.00    -0.057 C 
ATOM      7  C   UNL     1       0.700  -0.358   1.248  0.00  0.00    -0.012 C 
ATOM      8  C   UNL     1       0.117   0.368   0.018  0.00  0.00    -0.001 C 
BRANCH   6   9
ATOM      9  N   UNL     1       2.469  -0.549  -0.391  0.00  0.00    +0.383 N 
ATOM     10  H   UNL     1       3.465  -0.469  -0.537  0.00  0.00    -0.089 HD
ATOM     11  H   UNL     1       2.140  -1.418  -0.782  0.00  0.00    -0.089 HD
ATOM     12  H   UNL     1       2.001   0.223  -0.842  0.00  0.00    -0.089 HD
ENDBRANCH   6   9
ENDBRANCH   1   6
BRANCH   1  13
ATOM     13  N   UNL     1       1.947  -2.954   0.976  0.00  0.00    -0.181 NA
ATOM     14  H   UNL     1       1.180  -2.775   0.409  0.00  0.00    +0.149 HD
BRANCH  13  15
ATOM     15  S   UNL     1       2.493  -4.506   1.165  0.00  0.00    +0.097 S 
ATOM     16  O   UNL     1       1.627  -5.336   0.404  0.00  0.00    -0.141 OA
ATOM     17  O   UNL     1       3.897  -4.471   0.952  0.00  0.00    -0.141 OA
BRANCH  15  18
ATOM     18  N   UNL     1       2.265  -4.915   2.754  0.00  0.00    -0.162 NA
ATOM     19  C   UNL     1       3.308  -4.658   3.759  0.00  0.00    +0.138 C 
ATOM     20  C   UNL     1       2.669  -3.922   4.942  0.00  0.00    +0.177 C 
ATOM     21  O   UNL     1       1.524  -4.653   5.388  0.00  0.00    -0.377 OA
ATOM     22  C   UNL     1       0.485  -4.766   4.412  0.00  0.00    +0.177 C 
ATOM     23  C   UNL     1       1.011  -5.540   3.202  0.00  0.00    +0.138 C 
ENDBRANCH  15  18
ENDBRANCH  13  15
ENDBRANCH   1  13
TORSDOF 5
