REMARK  Name = ZINC39678398
REMARK  5 active torsions:
REMARK  status: ('A' for Active; 'I' for Inactive)
REMARK    1  A    between atoms: C_4  and  N_33
REMARK    2  A    between atoms: C_5  and  C_7
REMARK    3  A    between atoms: C_7  and  N_8
REMARK    4  A    between atoms: C_9  and  C_11
REMARK    5  A    between atoms: C_22  and  C_24
REMARK                            x       y       z     vdW  Elec       q    Type
REMARK                         _______ _______ _______ _____ _____    ______ ____
ROOT
ATOM      1  C   UNL     1       1.814  -4.512   2.962  0.00  0.00    +0.100 C 
ATOM      2  C   UNL     1       3.256  -4.163   3.394  0.00  0.00    +0.121 C 
ATOM      3  N   UNL     1       3.707  -5.338   4.176  0.00  0.00    -0.296 N 
ATOM      4  C   UNL     1       3.157  -6.503   3.442  0.00  0.00    +0.115 C 
ATOM      5  C   UNL     1       1.754  -6.049   2.993  0.00  0.00    -0.004 C 
ATOM      6  C   UNL     1       1.443  -6.594   1.603  0.00  0.00    -0.010 C 
ATOM      7  C   UNL     1       1.330  -8.120   1.671  0.00  0.00    -0.082 C 
ATOM      8  N   UNL     1       0.268  -8.492   2.613  0.00  0.00    +0.379 N 
ATOM      9  C   UNL     1       0.619  -8.044   3.966  0.00  0.00    -0.082 C 
ATOM     10  C   UNL     1       0.702  -6.516   3.995  0.00  0.00    -0.010 C 
ATOM     11  C   UNL     1       4.450  -5.347   5.301  0.00  0.00    +0.252 C 
ATOM     12  O   UNL     1       4.741  -6.402   5.829  0.00  0.00    -0.270 OA
ATOM     13  H   UNL     1      -0.598  -8.057   2.331  0.00  0.00    -0.086 HD
ATOM     14  H   UNL     1       0.154  -9.494   2.611  0.00  0.00    -0.086 HD
ENDROOT
BRANCH  11  15
ATOM     15  C   UNL     1       4.910  -4.075   5.891  0.00  0.00    +0.108 A 
ATOM     16  C   UNL     1       4.123  -3.416   6.842  0.00  0.00    +0.138 A 
ATOM     17  C   UNL     1       4.561  -2.225   7.391  0.00  0.00    +0.041 A 
ATOM     18  C   UNL     1       5.773  -1.684   7.001  0.00  0.00    +0.026 A 
ATOM     19  C   UNL     1       6.557  -2.328   6.061  0.00  0.00    +0.077 A 
ATOM     20  C   UNL     1       6.136  -3.524   5.506  0.00  0.00    +0.156 A 
ATOM     21  F   UNL     1       6.906  -4.155   4.592  0.00  0.00    -0.203 F 
ATOM     22 CL   UNL     1       8.076  -1.638   5.580  0.00  0.00    -0.081 Cl
ATOM     23  F   UNL     1       2.939  -3.942   7.224  0.00  0.00    -0.205 F 
ENDBRANCH  11  15
BRANCH   1  25
ATOM     24  N   UNL     1       0.295  -3.671   1.201  0.00  0.00    -0.311 N 
ATOM     25  C   UNL     1       1.548  -4.005   1.568  0.00  0.00    +0.218 C 
ATOM     26  O   UNL     1       2.460  -3.898   0.776  0.00  0.00    -0.275 OA
ATOM     27  H   UNL     1      -0.435  -3.756   1.834  0.00  0.00    +0.149 HD
BRANCH  24  28
ATOM     28  C   UNL     1       0.035  -3.178  -0.154  0.00  0.00    +0.141 C 
BRANCH  28  33
ATOM     29  C   UNL     1      -3.610  -3.509  -1.080  0.00  0.00    +0.000 A 
ATOM     30  C   UNL     1      -4.133  -2.326  -0.589  0.00  0.00    +0.002 A 
ATOM     31  C   UNL     1      -3.310  -1.416   0.044  0.00  0.00    +0.023 A 
ATOM     32  C   UNL     1      -1.955  -1.689   0.187  0.00  0.00    +0.034 A 
ATOM     33  C   UNL     1      -1.433  -2.877  -0.307  0.00  0.00    -0.009 A 
ATOM     34  C   UNL     1      -2.262  -3.784  -0.939  0.00  0.00    +0.007 A 
BRANCH  32  35
ATOM     35  N   UNL     1      -1.120  -0.770   0.827  0.00  0.00    -0.330 N 
ATOM     36  C   UNL     1      -0.446   0.288   0.062  0.00  0.00    +0.105 C 
ATOM     37  C   UNL     1      -0.767   1.641   0.703  0.00  0.00    +0.019 C 
ATOM     38  C   UNL     1      -0.390   1.601   2.186  0.00  0.00    +0.003 C 
ATOM     39  C   UNL     1      -1.214   0.522   2.894  0.00  0.00    +0.019 C 
ATOM     40  C   UNL     1      -0.902  -0.840   2.278  0.00  0.00    +0.105 C 
ENDBRANCH  32  35
ENDBRANCH  28  33
ENDBRANCH  24  28
ENDBRANCH   1  25
TORSDOF 5
