REMARK  Name = ZINC12462704
REMARK  7 active torsions:
REMARK  status: ('A' for Active; 'I' for Inactive)
REMARK    1  A    between atoms: C_1  and  C_2
REMARK    2  A    between atoms: C_6  and  C_8
REMARK    3  A    between atoms: C_14  and  C_29
REMARK    4  A    between atoms: C_15  and  C_22
REMARK    5  A    between atoms: C_17  and  C_20
REMARK    6  A    between atoms: C_18  and  N_19
REMARK    7  A    between atoms: C_26  and  C_28
REMARK                            x       y       z     vdW  Elec       q    Type
REMARK                         _______ _______ _______ _____ _____    ______ ____
ROOT
ATOM      1  C   UNL     1       2.248   1.263   0.508  0.00  0.00    +0.028 C 
ATOM      2  C   UNL     1       1.064   1.700   0.008  0.00  0.00    +0.080 A 
ATOM      3  C   UNL     1      -0.180   0.957  -0.226  0.00  0.00    +0.271 A 
ATOM      4  O   UNL     1      -0.257  -0.229   0.035  0.00  0.00    -0.266 OA
ATOM      5  N   UNL     1      -1.235   1.618  -0.743  0.00  0.00    -0.256 N 
ATOM      6  C   UNL     1      -1.078   2.965  -1.011  0.00  0.00    +0.104 A 
ATOM      7  C   UNL     1      -2.049   3.760  -1.526  0.00  0.00    +0.072 C 
ATOM      8  C   UNL     1      -3.401   3.144  -1.827  0.00  0.00    +0.106 C 
ATOM      9  C   UNL     1      -3.534   1.667  -1.514  0.00  0.00    +0.080 C 
ATOM     10  C   UNL     1      -2.470   1.012  -1.001  0.00  0.00    +0.119 C 
ATOM     11  S   UNL     1       0.601   3.334  -0.542  0.00  0.00    -0.065 S 
ENDROOT
BRANCH   1  17
ATOM     12  C   UNL     1       4.429   5.521  -0.893  0.00  0.00    +0.044 C 
ATOM     13  C   UNL     1       4.476   4.202  -0.166  0.00  0.00    -0.050 A 
ATOM     14  C   UNL     1       5.627   3.824   0.504  0.00  0.00    +0.003 A 
ATOM     15  C   UNL     1       5.680   2.615   1.176  0.00  0.00    +0.001 A 
ATOM     16  C   UNL     1       4.586   1.776   1.182  0.00  0.00    +0.008 A 
ATOM     17  C   UNL     1       3.419   2.151   0.507  0.00  0.00    -0.024 A 
ATOM     18  C   UNL     1       3.375   3.373  -0.174  0.00  0.00    +0.011 A 
ENDBRANCH   1  17
BRANCH   8  19
ATOM     19  C   UNL     1      -3.693   3.340  -3.292  0.00  0.00    -0.034 A 
ATOM     20  C   UNL     1      -2.840   2.812  -4.244  0.00  0.00    +0.004 A 
ATOM     21  C   UNL     1      -3.111   2.987  -5.587  0.00  0.00    +0.001 A 
ATOM     22  C   UNL     1      -4.229   3.699  -5.980  0.00  0.00    +0.003 A 
ATOM     23  C   UNL     1      -5.079   4.232  -5.029  0.00  0.00    -0.050 A 
ATOM     24  C   UNL     1      -4.811   4.052  -3.684  0.00  0.00    +0.008 A 
ATOM     25  C   UNL     1      -6.297   5.008  -5.457  0.00  0.00    +0.044 C 
ENDBRANCH   8  19
BRANCH  10  26
ATOM     26  N   UNL     1      -2.606  -0.327  -0.722  0.00  0.00    -0.343 N 
ATOM     27  H   UNL     1      -3.247  -0.862  -1.214  0.00  0.00    +0.144 HD
ATOM     28  H   UNL     1      -2.060  -0.736  -0.032  0.00  0.00    +0.144 HD
ENDBRANCH  10  26
BRANCH   9  29
ATOM     29  C   UNL     1      -4.766   0.979  -1.757  0.00  0.00    +0.099 C 
ATOM     30  N   UNL     1      -5.743   0.433  -1.950  0.00  0.00    -0.191 NA
ENDBRANCH   9  29
BRANCH   7  31
ATOM     31  C   UNL     1      -1.803   5.148  -1.780  0.00  0.00    +0.098 C 
ATOM     32  N   UNL     1      -1.607   6.249  -1.981  0.00  0.00    -0.191 NA
ENDBRANCH   7  31
TORSDOF 5
