REMARK  Name = ZINC29537090
REMARK  5 active torsions:
REMARK  status: ('A' for Active; 'I' for Inactive)
REMARK    1  A    between atoms: N_9  and  C_24
REMARK    2  A    between atoms: C_10  and  S_12
REMARK    3  A    between atoms: S_12  and  C_13
REMARK    4  A    between atoms: C_13  and  C_14
REMARK    5  A    between atoms: C_27  and  C_30
REMARK                            x       y       z     vdW  Elec       q    Type
REMARK                         _______ _______ _______ _____ _____    ______ ____
ROOT
ATOM      1  C   UNL     1      -6.357   6.079  -1.091  0.00  0.00    +0.001 A 
ATOM      2  C   UNL     1      -5.222   6.364  -0.343  0.00  0.00    +0.002 A 
ATOM      3  C   UNL     1      -4.497   5.365   0.244  0.00  0.00    +0.028 A 
ATOM      4  C   UNL     1      -4.902   4.035   0.091  0.00  0.00    +0.079 A 
ATOM      5  C   UNL     1      -6.059   3.749  -0.670  0.00  0.00    +0.065 A 
ATOM      6  C   UNL     1      -6.778   4.789  -1.258  0.00  0.00    +0.015 A 
ATOM      7  C   UNL     1      -6.464   2.345  -0.816  0.00  0.00    +0.267 A 
ATOM      8  O   UNL     1      -7.450   2.037  -1.460  0.00  0.00    -0.267 OA
ATOM      9  N   UNL     1      -5.702   1.407  -0.208  0.00  0.00    -0.255 N 
ATOM     10  C   UNL     1      -4.597   1.770   0.512  0.00  0.00    +0.177 A 
ATOM     11  N   UNL     1      -4.218   3.015   0.660  0.00  0.00    -0.223 NA
ENDROOT
BRANCH   9  12
ATOM     12  C   UNL     1      -6.046   0.057  -0.317  0.00  0.00    +0.052 A 
ATOM     13  C   UNL     1      -6.906  -0.517   0.613  0.00  0.00    +0.027 A 
ATOM     14  C   UNL     1      -7.251  -1.846   0.506  0.00  0.00    +0.021 A 
ATOM     15  C   UNL     1      -6.728  -2.621  -0.532  0.00  0.00    +0.052 A 
ATOM     16  C   UNL     1      -5.859  -2.042  -1.462  0.00  0.00    +0.021 A 
ATOM     17  C   UNL     1      -5.523  -0.711  -1.352  0.00  0.00    +0.027 A 
BRANCH  15  18
ATOM     18  C   UNL     1      -7.079  -4.004  -0.643  0.00  0.00    +0.099 C 
ATOM     19  N   UNL     1      -7.359  -5.102  -0.732  0.00  0.00    -0.191 NA
ENDBRANCH  15  18
ENDBRANCH   9  12
BRANCH  10  20
ATOM     20  S   UNL     1      -3.642   0.504   1.282  0.00  0.00    -0.078 S 
BRANCH  20  21
ATOM     21  C   UNL     1      -2.358   1.511   2.064  0.00  0.00    +0.173 C 
BRANCH  21  22
ATOM     22  C   UNL     1      -1.398   0.615   2.803  0.00  0.00    +0.229 C 
ATOM     23  O   UNL     1      -1.565  -0.586   2.802  0.00  0.00    -0.275 OA
ATOM     24  N   UNL     1      -0.349   1.148   3.462  0.00  0.00    -0.270 N 
ATOM     25  C   UNL     1       0.483   0.331   4.226  0.00  0.00    +0.125 A 
ATOM     26  C   UNL     1       1.495   0.901   4.989  0.00  0.00    +0.045 A 
ATOM     27  C   UNL     1       2.311   0.079   5.747  0.00  0.00    +0.020 A 
ATOM     28  C   UNL     1       2.091  -1.292   5.706  0.00  0.00    +0.036 A 
ATOM     29  C   UNL     1       1.069  -1.790   4.921  0.00  0.00    +0.128 A 
ATOM     30  N   UNL     1       0.304  -0.981   4.213  0.00  0.00    -0.239 NA
ATOM     31 BR   UNL     1       3.178  -2.465   6.716  0.00  0.00    -0.049 Br
ATOM     32  H   UNL     1      -0.150   2.228   3.396  0.00  0.00    +0.156 HD
ENDBRANCH  21  22
ENDBRANCH  20  21
ENDBRANCH  10  20
TORSDOF 5
