REMARK  Name = ZINC00930994
REMARK  6 active torsions:
REMARK  status: ('A' for Active; 'I' for Inactive)
REMARK    1  A    between atoms: C_9  and  C_12
REMARK    2  A    between atoms: N_14  and  C_15
REMARK    3  A    between atoms: N_14  and  C_22
REMARK    4  A    between atoms: C_22  and  C_24
REMARK    5  A    between atoms: C_22  and  C_29
REMARK    6  A    between atoms: N_31  and  C_32
REMARK                            x       y       z     vdW  Elec       q    Type
REMARK                         _______ _______ _______ _____ _____    ______ ____
ROOT
ATOM      1  C   UNL     1      -3.045   0.333   0.984  0.00  0.00    +0.265 C 
ATOM      2  O   UNL     1      -3.472  -0.802   0.965  0.00  0.00    -0.271 OA
ATOM      3  N   UNL     1      -2.300   0.790  -0.042  0.00  0.00    -0.252 N 
ENDROOT
BRANCH   1  12
ATOM      4  C   UNL     1      -5.827   2.609   6.216  0.00  0.00    +0.004 A 
ATOM      5  C   UNL     1      -5.535   1.269   6.385  0.00  0.00    +0.004 A 
ATOM      6  C   UNL     1      -4.920   0.560   5.371  0.00  0.00    +0.049 A 
ATOM      7  C   UNL     1      -4.594   1.191   4.180  0.00  0.00    +0.163 A 
ATOM      8  C   UNL     1      -4.886   2.539   4.010  0.00  0.00    +0.162 A 
ATOM      9  C   UNL     1      -5.504   3.245   5.032  0.00  0.00    +0.049 A 
ATOM     10  O   UNL     1      -4.572   3.180   2.851  0.00  0.00    -0.484 OA
ATOM     11  C   UNL     1      -4.296   2.355   1.715  0.00  0.00    +0.283 C 
ATOM     12  C   UNL     1      -3.347   1.232   2.155  0.00  0.00    +0.296 C 
ATOM     13  O   UNL     1      -3.992   0.479   3.188  0.00  0.00    -0.472 OA
ENDBRANCH   1  12
BRANCH   3  14
ATOM     14  C   UNL     1      -2.148   0.015  -1.196  0.00  0.00    +0.040 A 
ATOM     15  C   UNL     1      -2.876  -1.159  -1.346  0.00  0.00    +0.024 A 
ATOM     16  C   UNL     1      -2.729  -1.921  -2.489  0.00  0.00    +0.005 A 
ATOM     17  C   UNL     1      -1.851  -1.522  -3.480  0.00  0.00    +0.038 A 
ATOM     18  C   UNL     1      -1.119  -0.355  -3.332  0.00  0.00    +0.125 A 
ATOM     19  C   UNL     1      -1.267   0.414  -2.191  0.00  0.00    +0.062 A 
ATOM     20  F   UNL     1      -0.262   0.031  -4.301  0.00  0.00    -0.205 F 
ENDBRANCH   3  14
BRANCH   3  21
ATOM     21  C   UNL     1      -1.649   2.099   0.052  0.00  0.00    +0.204 C 
BRANCH  21  22
ATOM     22  C   UNL     1      -2.157   2.993  -1.049  0.00  0.00    +0.019 A 
ATOM     23  C   UNL     1      -2.232   4.346  -1.084  0.00  0.00    +0.013 A 
ATOM     24  C   UNL     1      -2.736   4.960  -2.215  0.00  0.00    +0.008 A 
ATOM     25  C   UNL     1      -3.150   4.191  -3.252  0.00  0.00    +0.045 A 
ATOM     26  S   UNL     1      -2.824   2.545  -2.643  0.00  0.00    -0.099 S 
ENDBRANCH  21  22
BRANCH  21  27
ATOM     27  C   UNL     1      -0.158   1.929  -0.086  0.00  0.00    +0.239 C 
ATOM     28  O   UNL     1       0.315   0.824  -0.247  0.00  0.00    -0.273 OA
ATOM     29  N   UNL     1       0.651   3.007  -0.036  0.00  0.00    -0.311 N 
ATOM     30  H   UNL     1       0.273   3.891   0.093  0.00  0.00    +0.149 HD
BRANCH  29  31
ATOM     31  C   UNL     1       2.100   2.842  -0.177  0.00  0.00    +0.073 C 
ATOM     32  C   UNL     1       2.709   2.505   1.185  0.00  0.00    +0.022 C 
ATOM     33  C   UNL     1       4.223   2.333   1.039  0.00  0.00    +0.002 C 
ATOM     34  C   UNL     1       4.835   3.634   0.514  0.00  0.00    +0.000 C 
ATOM     35  C   UNL     1       4.225   3.971  -0.848  0.00  0.00    +0.002 C 
ATOM     36  C   UNL     1       2.712   4.143  -0.701  0.00  0.00    +0.022 C 
ENDBRANCH  29  31
ENDBRANCH  21  27
ENDBRANCH   3  21
TORSDOF 6
