REMARK  Name = ZINC39495273
REMARK  11 active torsions:
REMARK  status: ('A' for Active; 'I' for Inactive)
REMARK    1  A    between atoms: C_4  and  C_7
REMARK    2  A    between atoms: C_7  and  C_8
REMARK    3  A    between atoms: C_9  and  C_31
REMARK    4  A    between atoms: C_12  and  S_21
REMARK    5  A    between atoms: C_13  and  C_14
REMARK    6  A    between atoms: C_19  and  O_20
REMARK    7  A    between atoms: S_21  and  O_24
REMARK    8  A    between atoms: O_24  and  C_25
REMARK    9  A    between atoms: C_31  and  C_33
REMARK   10  A    between atoms: C_31  and  N_36
REMARK   11  A    between atoms: C_33  and  C_34
REMARK                            x       y       z     vdW  Elec       q    Type
REMARK                         _______ _______ _______ _____ _____    ______ ____
ROOT
ATOM      1  C   UNL     1       3.570  -0.885   1.790  0.00  0.00    -0.028 A 
ATOM      2  C   UNL     1       4.488  -0.213   2.572  0.00  0.00    -0.023 A 
ATOM      3  C   UNL     1       5.050  -0.834   3.673  0.00  0.00    +0.008 A 
ATOM      4  C   UNL     1       4.695  -2.131   3.998  0.00  0.00    +0.031 A 
ATOM      5  C   UNL     1       3.778  -2.812   3.224  0.00  0.00    +0.136 A 
ATOM      6  C   UNL     1       3.204  -2.190   2.117  0.00  0.00    +0.018 A 
ENDROOT
BRANCH   6   7
ATOM      7  C   UNL     1       2.213  -2.915   1.285  0.00  0.00    +0.026 A 
ATOM      8  C   UNL     1       2.642  -3.791   0.290  0.00  0.00    +0.012 A 
ATOM      9  C   UNL     1       1.716  -4.463  -0.481  0.00  0.00    +0.001 A 
ATOM     10  C   UNL     1       0.362  -4.271  -0.270  0.00  0.00    +0.004 A 
ATOM     11  C   UNL     1      -0.074  -3.405   0.715  0.00  0.00    +0.046 A 
ATOM     12  C   UNL     1       0.845  -2.728   1.500  0.00  0.00    +0.125 A 
BRANCH  12  13
ATOM     13  O   UNL     1       0.417  -1.881   2.473  0.00  0.00    -0.506 OA
ATOM     14  H   UNL     1       0.220  -0.988   2.158  0.00  0.00    +0.292 HD
ENDBRANCH  12  13
ENDBRANCH   6   7
BRANCH   5  15
ATOM     15  S   UNL     1       3.327  -4.465   3.639  0.00  0.00    +0.152 S 
ATOM     16  O   UNL     1       2.205  -4.374   4.506  0.00  0.00    -0.131 OA
ATOM     17  O   UNL     1       3.292  -5.194   2.421  0.00  0.00    -0.131 OA
BRANCH  15  18
ATOM     18  O   UNL     1       4.466  -5.048   4.463  0.00  0.00    -0.342 OA
BRANCH  18  19
ATOM     19  C   UNL     1       5.562  -5.383   3.732  0.00  0.00    +0.157 A 
ATOM     20  C   UNL     1       5.621  -6.612   3.091  0.00  0.00    +0.048 A 
ATOM     21  C   UNL     1       6.735  -6.949   2.348  0.00  0.00    +0.004 A 
ATOM     22  C   UNL     1       7.792  -6.064   2.243  0.00  0.00    +0.000 A 
ATOM     23  C   UNL     1       7.736  -4.839   2.882  0.00  0.00    +0.004 A 
ATOM     24  C   UNL     1       6.621  -4.494   3.621  0.00  0.00    +0.048 A 
ENDBRANCH  18  19
ENDBRANCH  15  18
ENDBRANCH   5  15
BRANCH   1  25
ATOM     25  C   UNL     1       2.960  -0.208   0.591  0.00  0.00    +0.071 C 
BRANCH  25  29
ATOM     26  C   UNL     1       5.077  -1.369  -2.933  0.00  0.00    +0.000 A 
ATOM     27  C   UNL     1       3.924  -2.037  -2.568  0.00  0.00    +0.000 A 
ATOM     28  C   UNL     1       3.238  -1.661  -1.428  0.00  0.00    +0.004 A 
ATOM     29  C   UNL     1       3.707  -0.618  -0.652  0.00  0.00    -0.043 A 
ATOM     30  C   UNL     1       4.862   0.050  -1.016  0.00  0.00    +0.004 A 
ATOM     31  C   UNL     1       5.546  -0.325  -2.157  0.00  0.00    +0.000 A 
ENDBRANCH  25  29
ENDBRANCH   1  25
BRANCH   2  32
ATOM     32  C   UNL     1       4.880   1.200   2.224  0.00  0.00    +0.110 C 
BRANCH  32  33
ATOM     33  N   UNL     1       3.807   2.116   2.618  0.00  0.00    -0.311 N 
ATOM     34  C   UNL     1       3.588   3.242   1.911  0.00  0.00    +0.326 C 
ATOM     35  O   UNL     1       4.280   3.497   0.948  0.00  0.00    -0.280 OA
ATOM     36  H   UNL     1       3.254   1.911   3.388  0.00  0.00    +0.149 HD
ENDBRANCH  32  33
BRANCH  32  37
ATOM     37  C   UNL     1       6.165   1.570   2.967  0.00  0.00    +0.097 C 
BRANCH  37  38
ATOM     38  C   UNL     1       6.625   2.936   2.526  0.00  0.00    +0.225 C 
ATOM     39  O   UNL     1       6.814   3.803   3.345  0.00  0.00    -0.301 OA
ENDBRANCH  37  38
ENDBRANCH  32  37
ENDBRANCH   2  32
TORSDOF 11
