REMARK  Name = ZINC12760330
REMARK  10 active torsions:
REMARK  status: ('A' for Active; 'I' for Inactive)
REMARK    1  A    between atoms: C_1  and  C_2
REMARK    2  A    between atoms: C_3  and  N_9
REMARK    3  A    between atoms: C_4  and  C_8
REMARK    4  A    between atoms: N_5  and  C_7
REMARK    5  A    between atoms: C_10  and  C_12
REMARK    6  A    between atoms: C_12  and  S_13
REMARK    7  A    between atoms: S_13  and  C_14
REMARK    8  A    between atoms: N_26  and  C_27
REMARK    9  A    between atoms: C_27  and  C_28
REMARK   10  A    between atoms: C_27  and  C_29
REMARK                            x       y       z     vdW  Elec       q    Type
REMARK                         _______ _______ _______ _____ _____    ______ ____
ROOT
ATOM      1  C   UNL     1      -1.324   2.921   1.130  0.00  0.00    +0.173 A 
ATOM      2  N   UNL     1      -1.372   3.349   2.376  0.00  0.00    -0.216 NA
ATOM      3  C   UNL     1      -1.589   2.502   3.376  0.00  0.00    +0.117 A 
ATOM      4  C   UNL     1      -1.779   1.129   3.163  0.00  0.00    +0.076 A 
ATOM      5  C   UNL     1      -2.009   0.314   4.367  0.00  0.00    -0.023 A 
ATOM      6  C   UNL     1      -2.012   0.959   5.545  0.00  0.00    -0.004 A 
ATOM      7  S   UNL     1      -1.717   2.664   5.137  0.00  0.00    -0.073 S 
ATOM      8  C   UNL     1      -2.251   0.026   6.702  0.00  0.00    +0.043 C 
ATOM      9  C   UNL     1      -1.974  -1.381   6.130  0.00  0.00    +0.010 C 
ATOM     10  C   UNL     1      -2.266  -1.172   4.631  0.00  0.00    +0.037 C 
ATOM     11  C   UNL     1      -1.727   0.692   1.802  0.00  0.00    +0.263 A 
ATOM     12  O   UNL     1      -1.881  -0.484   1.523  0.00  0.00    -0.267 OA
ATOM     13  N   UNL     1      -1.504   1.601   0.834  0.00  0.00    -0.285 N 
ENDROOT
BRANCH  13  14
ATOM     14  C   UNL     1      -1.448   1.164  -0.564  0.00  0.00    +0.087 C 
ATOM     15  C   UNL     1      -2.784   0.530  -0.954  0.00  0.00    +0.031 C 
ATOM     16  C   UNL     1      -0.327   0.136  -0.732  0.00  0.00    +0.031 C 
ENDBRANCH  13  14
BRANCH   1  17
ATOM     17  S   UNL     1      -1.028   4.071  -0.172  0.00  0.00    -0.078 S 
BRANCH  17  18
ATOM     18  C   UNL     1      -0.874   5.598   0.787  0.00  0.00    +0.173 C 
BRANCH  18  20
ATOM     19  N   UNL     1      -0.460   7.997   0.348  0.00  0.00    -0.282 N 
ATOM     20  C   UNL     1      -0.611   6.753  -0.146  0.00  0.00    +0.228 C 
ATOM     21  O   UNL     1      -0.535   6.561  -1.341  0.00  0.00    -0.275 OA
ATOM     22  H   UNL     1      -0.594   8.163   1.294  0.00  0.00    +0.155 HD
BRANCH  19  25
ATOM     23  C   UNL     1       1.274   7.689  -2.221  0.00  0.00    +0.069 C 
ATOM     24  C   UNL     1       0.669   8.955  -1.672  0.00  0.00    +0.081 A 
ATOM     25  C   UNL     1      -0.108   9.057  -0.509  0.00  0.00    +0.077 A 
ATOM     26  C   UNL     1      -0.456  10.360  -0.354  0.00  0.00    +0.057 A 
ATOM     27  N   UNL     1       0.081  11.054  -1.391  0.00  0.00    -0.270 N 
ATOM     28  N   UNL     1       0.776  10.147  -2.201  0.00  0.00    -0.175 NA
ATOM     29  C   UNL     1      -0.045  12.495  -1.621  0.00  0.00    +0.172 C 
ATOM     30  C   UNL     1      -1.288  10.932   0.765  0.00  0.00    +0.067 C 
ENDBRANCH  19  25
ENDBRANCH  18  20
ENDBRANCH  17  18
ENDBRANCH   1  17
TORSDOF 5
