REMARK  Name = ZINC06198052
REMARK  7 active torsions:
REMARK  status: ('A' for Active; 'I' for Inactive)
REMARK    1  A    between atoms: C_1  and  C_2
REMARK    2  A    between atoms: C_2  and  C_3
REMARK    3  A    between atoms: C_10  and  C_15
REMARK    4  A    between atoms: C_15  and  C_17
REMARK    5  A    between atoms: C_15  and  N_64
REMARK    6  A    between atoms: N_21  and  C_22
REMARK    7  A    between atoms: C_22  and  C_23
REMARK                            x       y       z     vdW  Elec       q    Type
REMARK                         _______ _______ _______ _____ _____    ______ ____
ROOT
ATOM      1  C   UNL     1       3.512   0.638  -0.029  0.00  0.00    +0.039 C 
ENDROOT
BRANCH   1   9
ATOM      2  C   UNL     1       6.716   1.066  -5.304  0.00  0.00    -0.047 A 
ATOM      3  C   UNL     1       6.450  -0.220  -5.753  0.00  0.00    +0.005 A 
ATOM      4  C   UNL     1       5.671  -1.079  -5.007  0.00  0.00    +0.026 A 
ATOM      5  C   UNL     1       5.146  -0.653  -3.791  0.00  0.00    +0.049 A 
ATOM      6  C   UNL     1       5.418   0.652  -3.340  0.00  0.00    -0.001 A 
ATOM      7  C   UNL     1       6.210   1.506  -4.114  0.00  0.00    +0.013 A 
ATOM      8  C   UNL     1       4.861   1.090  -2.058  0.00  0.00    +0.017 A 
ATOM      9  C   UNL     1       4.100   0.219  -1.351  0.00  0.00    +0.011 A 
ATOM     10  C   UNL     1       3.863  -1.081  -1.846  0.00  0.00    +0.251 A 
ATOM     11  O   UNL     1       3.180  -1.851  -1.191  0.00  0.00    -0.268 OA
ATOM     12  N   UNL     1       4.366  -1.491  -3.023  0.00  0.00    -0.322 N 
ATOM     13  H   UNL     1       4.171  -2.417  -3.347  0.00  0.00    +0.169 HD
BRANCH   2  15
ATOM     14  C   UNL     1       9.038   1.817  -5.743  0.00  0.00    +0.009 C 
ATOM     15  C   UNL     1       7.570   1.986  -6.138  0.00  0.00    +0.032 C 
ENDBRANCH   2  15
ENDBRANCH   1   9
BRANCH   1  22
ATOM     16  C   UNL     1       3.161  -0.076   2.268  0.00  0.00    -0.077 C 
ATOM     17  C   UNL     1       3.706  -0.863   3.428  0.00  0.00    -0.019 C 
ATOM     18  C   UNL     1       4.738   0.011   4.171  0.00  0.00    -0.002 C 
ATOM     19  C   UNL     1       6.026   0.045   3.486  0.00  0.00    -0.002 C 
ATOM     20  C   UNL     1       5.915   0.642   2.067  0.00  0.00    -0.019 C 
ATOM     21  C   UNL     1       5.361  -0.412   1.148  0.00  0.00    -0.077 C 
ATOM     22  N   UNL     1       3.868  -0.376   0.977  0.00  0.00    +0.389 N 
ATOM     23  H   UNL     1       3.558  -1.296   0.644  0.00  0.00    -0.080 HD
ENDBRANCH   1  22
BRANCH   1  24
ATOM     24  C   UNL     1       2.010   0.693  -0.142  0.00  0.00    +0.143 A 
ATOM     25  N   UNL     1       1.188  -0.328  -0.144  0.00  0.00    -0.115 NA
ATOM     26  N   UNL     1      -0.012   0.128  -0.259  0.00  0.00    -0.023 NA
ATOM     27  N   UNL     1       0.024   1.413  -0.329  0.00  0.00    -0.044 NA
ATOM     28  N   UNL     1       1.253   1.799  -0.261  0.00  0.00    -0.228 N 
BRANCH  28  29
ATOM     29  C   UNL     1       1.734   3.182  -0.305  0.00  0.00    +0.178 C 
BRANCH  29  30
ATOM     30  C   UNL     1       1.796   3.746   1.116  0.00  0.00    +0.140 C 
ATOM     31  C   UNL     1       2.354   5.191   1.097  0.00  0.00    +0.035 C 
ATOM     32  C   UNL     1       1.745   5.760   2.408  0.00  0.00    +0.031 C 
ATOM     33  C   UNL     1       0.381   5.040   2.475  0.00  0.00    +0.160 C 
ATOM     34  O   UNL     1       0.473   3.862   1.665  0.00  0.00    -0.375 OA
ENDBRANCH  29  30
ENDBRANCH  28  29
ENDBRANCH   1  24
TORSDOF 6
