REMARK  Name = ZINC40816157
REMARK  6 active torsions:
REMARK  status: ('A' for Active; 'I' for Inactive)
REMARK    1  A    between atoms: C_1  and  C_2
REMARK    2  A    between atoms: C_3  and  C_28
REMARK    3  A    between atoms: C_11  and  C_12
REMARK    4  A    between atoms: C_19  and  O_27
REMARK    5  A    between atoms: C_20  and  O_26
REMARK    6  A    between atoms: C_23  and  C_25
REMARK                            x       y       z     vdW  Elec       q    Type
REMARK                         _______ _______ _______ _____ _____    ______ ____
ROOT
ATOM      1  C   UNL     1       0.070  -4.662   1.070  0.00  0.00    +0.249 C 
ATOM      2  O   UNL     1      -0.037  -4.877  -0.122  0.00  0.00    -0.270 OA
ATOM      3  N   UNL     1       0.189  -5.691   1.932  0.00  0.00    -0.290 N 
ATOM      4  C   UNL     1       0.189  -5.473   3.389  0.00  0.00    +0.113 C 
ATOM      5  C   UNL     1       1.557  -5.891   3.925  0.00  0.00    +0.054 C 
ATOM      6  C   UNL     1       1.960  -7.235   3.379  0.00  0.00    -0.037 A 
ATOM      7  C   UNL     1       2.936  -7.944   4.071  0.00  0.00    +0.053 A 
ATOM      8  C   UNL     1       3.360  -9.180   3.621  0.00  0.00    +0.158 A 
ATOM      9  C   UNL     1       2.807  -9.719   2.463  0.00  0.00    +0.159 A 
ATOM     10  C   UNL     1       1.835  -9.013   1.779  0.00  0.00    +0.055 A 
ATOM     11  C   UNL     1       1.407  -7.774   2.239  0.00  0.00    -0.020 A 
ATOM     12  C   UNL     1       0.318  -7.073   1.458  0.00  0.00    +0.104 C 
ATOM     13  C   UNL     1      -1.011  -7.805   1.658  0.00  0.00    +0.033 C 
ENDROOT
BRANCH   1  24
ATOM     14  C   UNL     1      -2.591   0.989   1.418  0.00  0.00    +0.046 C 
ATOM     15  C   UNL     1      -2.156  -0.434   1.180  0.00  0.00    -0.022 A 
ATOM     16  C   UNL     1      -2.796  -1.352   0.439  0.00  0.00    +0.017 A 
ATOM     17  N   UNL     1      -2.100  -2.531   0.456  0.00  0.00    -0.357 N 
ATOM     18  H   UNL     1      -2.366  -3.341  -0.007  0.00  0.00    +0.166 HD
ATOM     19  C   UNL     1      -0.972  -2.398   1.225  0.00  0.00    +0.059 A 
ATOM     20  C   UNL     1      -0.950  -1.078   1.709  0.00  0.00    +0.004 A 
ATOM     21  C   UNL     1       0.098  -0.650   2.524  0.00  0.00    +0.010 A 
ATOM     22  C   UNL     1       1.116  -1.521   2.852  0.00  0.00    +0.001 A 
ATOM     23  C   UNL     1       1.109  -2.821   2.381  0.00  0.00    +0.015 A 
ATOM     24  C   UNL     1       0.069  -3.275   1.572  0.00  0.00    +0.061 A 
ATOM     25  C   UNL     1      -4.088  -1.120  -0.301  0.00  0.00    +0.063 C 
ENDBRANCH   1  24
BRANCH   9  26
ATOM     26  O   UNL     1       3.220 -10.932   2.007  0.00  0.00    -0.503 OA
ATOM     27  H   UNL     1       2.713 -11.677   2.358  0.00  0.00    +0.292 HD
ENDBRANCH   9  26
BRANCH   8  28
ATOM     28  O   UNL     1       4.314  -9.865   4.306  0.00  0.00    -0.503 OA
ATOM     29  H   UNL     1       3.963 -10.455   4.986  0.00  0.00    +0.292 HD
ENDBRANCH   8  28
TORSDOF 3
