REMARK  Name = ZINC64069989
REMARK  4 active torsions:
REMARK  status: ('A' for Active; 'I' for Inactive)
REMARK    1  A    between atoms: C_1  and  C_2
REMARK    2  A    between atoms: C_5  and  C_17
REMARK    3  A    between atoms: C_6  and  C_8
REMARK    4  A    between atoms: N_10  and  C_11
REMARK                            x       y       z     vdW  Elec       q    Type
REMARK                         _______ _______ _______ _____ _____    ______ ____
ROOT
ATOM      1  C   UNL     1      -0.655   1.045  -0.166  0.00  0.00    +0.040 C 
ATOM      2  C   UNL     1      -0.173  -0.380   0.116  0.00  0.00    +0.130 C 
ATOM      3  N   UNL     1       0.517  -0.951  -1.058  0.00  0.00    -0.331 N 
ATOM      4  C   UNL     1       1.827  -1.279  -0.886  0.00  0.00    +0.054 C 
ATOM      5  C   UNL     1       2.462  -1.088   0.308  0.00  0.00    +0.097 C 
ATOM      6  S   UNL     1       1.190  -0.388   1.351  0.00  0.00    -0.096 S 
ATOM      7  H   UNL     1       0.062  -1.086  -1.904  0.00  0.00    +0.147 HD
ENDROOT
BRANCH   4   8
ATOM      8  C   UNL     1       2.578  -1.855  -2.016  0.00  0.00    -0.003 A 
ATOM      9  C   UNL     1       2.678  -1.157  -3.222  0.00  0.00    +0.010 A 
ATOM     10  C   UNL     1       3.383  -1.702  -4.274  0.00  0.00    +0.001 A 
ATOM     11  C   UNL     1       3.990  -2.938  -4.139  0.00  0.00    +0.000 A 
ATOM     12  C   UNL     1       3.895  -3.636  -2.947  0.00  0.00    +0.001 A 
ATOM     13  C   UNL     1       3.199  -3.101  -1.884  0.00  0.00    +0.010 A 
ENDBRANCH   4   8
BRANCH   5  14
ATOM     14  C   UNL     1       3.806  -1.375   0.640  0.00  0.00    +0.289 C 
ATOM     15  O   UNL     1       4.668  -1.783  -0.320  0.00  0.00    -0.265 OA
ATOM     16  N   UNL     1       4.221  -1.246   1.888  0.00  0.00    -0.171 NA
BRANCH  16  17
ATOM     17  C   UNL     1       5.504  -1.520   2.205  0.00  0.00    +0.249 A 
ATOM     18  N   UNL     1       6.063  -1.436   3.445  0.00  0.00    -0.243 N 
ATOM     19  H   UNL     1       5.622  -1.169   4.266  0.00  0.00    +0.192 HD
ATOM     20  N   UNL     1       7.407  -1.813   3.293  0.00  0.00    -0.159 NA
ATOM     21  C   UNL     1       7.589  -2.095   2.031  0.00  0.00    +0.247 A 
ATOM     22  N   UNL     1       6.447  -1.926   1.369  0.00  0.00    -0.198 NA
ENDBRANCH  16  17
ENDBRANCH   5  14
TORSDOF 3
