REMARK  Name = ZINC45806569
REMARK  6 active torsions:
REMARK  status: ('A' for Active; 'I' for Inactive)
REMARK    1  A    between atoms: C_2  and  C_3
REMARK    2  A    between atoms: C_3  and  N_4
REMARK    3  A    between atoms: C_8  and  C_10
REMARK    4  A    between atoms: C_10  and  N_11
REMARK    5  A    between atoms: C_14  and  C_17
REMARK    6  A    between atoms: C_17  and  N_18
REMARK                            x       y       z     vdW  Elec       q    Type
REMARK                         _______ _______ _______ _____ _____    ______ ____
ROOT
ATOM      1  N   UNL     1      -4.626  -6.357  -3.524  0.00  0.00    +0.385 N 
ATOM      2  C   UNL     1      -5.639  -5.304  -3.669  0.00  0.00    -0.078 C 
ATOM      3  C   UNL     1      -7.035  -5.931  -3.666  0.00  0.00    -0.017 C 
ATOM      4  C   UNL     1      -7.149  -6.915  -4.834  0.00  0.00    -0.031 C 
ATOM      5  C   UNL     1      -6.042  -7.965  -4.714  0.00  0.00    -0.017 C 
ATOM      6  C   UNL     1      -4.682  -7.264  -4.677  0.00  0.00    -0.078 C 
ATOM      7  H   UNL     1      -4.804  -6.879  -2.679  0.00  0.00    -0.081 HD
ENDROOT
BRANCH   1   8
ATOM      8  C   UNL     1      -3.293  -5.745  -3.449  0.00  0.00    +0.019 C 
BRANCH   8  13
ATOM      9  N   UNL     1      -0.822  -2.842  -0.519  0.00  0.00    -0.296 N 
ATOM     10  C   UNL     1      -1.963  -3.503  -0.800  0.00  0.00    +0.306 C 
ATOM     11  O   UNL     1      -2.912  -3.425  -0.044  0.00  0.00    -0.252 OA
ATOM     12  N   UNL     1      -2.052  -4.250  -1.918  0.00  0.00    -0.242 N 
ATOM     13  C   UNL     1      -3.193  -4.910  -2.198  0.00  0.00    +0.204 C 
ATOM     14  O   UNL     1      -4.139  -4.833  -1.444  0.00  0.00    -0.277 OA
ATOM     15  H   UNL     1      -0.065  -2.905  -1.123  0.00  0.00    +0.151 HD
ATOM     16  H   UNL     1      -1.295  -4.312  -2.521  0.00  0.00    +0.159 HD
BRANCH   9  17
ATOM     17  C   UNL     1      -0.726  -2.031   0.696  0.00  0.00    +0.132 C 
BRANCH  17  19
ATOM     18  C   UNL     1       0.761  -0.104   0.900  0.00  0.00    +0.005 C 
ATOM     19  C   UNL     1       0.642  -1.403   0.774  0.00  0.00    -0.016 C 
ENDBRANCH  17  19
ENDBRANCH   9  17
ENDBRANCH   8  13
ENDBRANCH   1   8
BRANCH   4  20
ATOM     20  C   UNL     1      -8.515  -7.603  -4.791  0.00  0.00    -0.076 C 
BRANCH  20  21
ATOM     21  N   UNL     1      -8.653  -8.488  -5.955  0.00  0.00    +0.380 N 
ATOM     22  C   UNL     1      -8.619  -7.667  -7.181  0.00  0.00    -0.079 C 
ATOM     23  C   UNL     1      -8.158  -8.539  -8.322  0.00  0.00    -0.019 C 
ATOM     24  C   UNL     1      -9.350  -9.104  -9.117  0.00  0.00    -0.002 C 
ATOM     25  C   UNL     1     -10.500  -9.543  -8.188  0.00  0.00    -0.002 C 
ATOM     26  C   UNL     1     -10.003 -10.255  -6.956  0.00  0.00    -0.019 C 
ATOM     27  C   UNL     1      -9.829  -9.228  -5.817  0.00  0.00    -0.079 C 
ATOM     28  H   UNL     1      -7.871  -9.125  -5.972  0.00  0.00    -0.082 HD
ENDBRANCH  20  21
ENDBRANCH   4  20
TORSDOF 6
