REMARK  Name = ZINC63529305
REMARK  6 active torsions:
REMARK  status: ('A' for Active; 'I' for Inactive)
REMARK    1  A    between atoms: C_7  and  C_10
REMARK    2  A    between atoms: C_10  and  C_11
REMARK    3  A    between atoms: C_11  and  N_12
REMARK    4  A    between atoms: C_13  and  C_15
REMARK    5  A    between atoms: C_17  and  N_33
REMARK    6  A    between atoms: C_22  and  C_27
REMARK                            x       y       z     vdW  Elec       q    Type
REMARK                         _______ _______ _______ _____ _____    ______ ____
ROOT
ATOM      1  C   UNL     1      -1.752  -6.557  -2.622  0.00  0.00    +0.155 C 
ATOM      2  C   UNL     1      -1.439  -7.522  -3.790  0.00  0.00    +0.102 C 
ATOM      3  C   UNL     1      -2.647  -8.001  -4.535  0.00  0.00    -0.021 C 
ATOM      4  C   UNL     1      -2.643  -8.716  -5.674  0.00  0.00    +0.005 C 
ATOM      5  C   UNL     1      -3.929  -8.993  -6.321  0.00  0.00    +0.024 C 
ATOM      6  C   UNL     1      -5.033  -8.289  -5.962  0.00  0.00    +0.037 C 
ATOM      7  N   UNL     1      -4.920  -7.316  -4.960  0.00  0.00    -0.328 N 
ATOM      8  C   UNL     1      -3.971  -7.597  -3.879  0.00  0.00    +0.157 C 
ATOM      9  S   UNL     1      -3.474  -6.034  -3.044  0.00  0.00    -0.120 S 
ATOM     10  H   UNL     1      -5.443  -6.500  -4.980  0.00  0.00    +0.147 HD
ENDROOT
BRANCH   6  11
ATOM     11  C   UNL     1      -6.332  -8.544  -6.618  0.00  0.00    +0.014 A 
ATOM     12  C   UNL     1      -6.447  -9.520  -7.616  0.00  0.00    +0.013 A 
ATOM     13  C   UNL     1      -7.685  -9.719  -8.198  0.00  0.00    +0.020 A 
ATOM     14  C   UNL     1      -8.761  -8.956  -7.780  0.00  0.00    +0.111 A 
ATOM     15  N   UNL     1      -8.624  -8.043  -6.838  0.00  0.00    -0.263 NA
ATOM     16  C   UNL     1      -7.467  -7.820  -6.249  0.00  0.00    +0.120 A 
ENDBRANCH   6  11
BRANCH   1  18
ATOM     17  N   UNL     1      -0.458  -4.798  -1.460  0.00  0.00    -0.314 N 
ATOM     18  C   UNL     1      -0.811  -5.380  -2.623  0.00  0.00    +0.228 C 
ATOM     19  O   UNL     1      -0.371  -4.957  -3.671  0.00  0.00    -0.275 OA
ATOM     20  H   UNL     1      -0.810  -5.136  -0.622  0.00  0.00    +0.149 HD
BRANCH  17  21
ATOM     21  C   UNL     1       0.457  -3.653  -1.462  0.00  0.00    +0.108 C 
BRANCH  21  22
ATOM     22  C   UNL     1       0.691  -3.186  -0.024  0.00  0.00    +0.052 C 
BRANCH  22  29
ATOM     23  C   UNL     1      -0.016   1.348   0.009  0.00  0.00    +0.001 A 
ATOM     24  C   UNL     1       1.166   2.101   0.002  0.00  0.00    +0.002 A 
ATOM     25  C   UNL     1       2.391   1.535  -0.013  0.00  0.00    +0.026 A 
ATOM     26  C   UNL     1       2.529   0.120  -0.022  0.00  0.00    +0.043 A 
ATOM     27  N   UNL     1       3.587  -0.654  -0.037  0.00  0.00    -0.380 N 
ATOM     28  C   UNL     1       3.143  -2.053  -0.041  0.00  0.00    +0.144 C 
ATOM     29  C   UNL     1       1.631  -2.008  -0.025  0.00  0.00    -0.040 C 
ATOM     30  C   UNL     1       1.295  -0.698  -0.014  0.00  0.00    -0.001 A 
ATOM     31  C   UNL     1       0.002  -0.004   0.002  0.00  0.00    +0.010 A 
ATOM     32  H   UNL     1       4.509  -0.353  -0.045  0.00  0.00    +0.160 HD
ENDBRANCH  22  29
ENDBRANCH  21  22
ENDBRANCH  17  21
ENDBRANCH   1  18
BRANCH   2  33
ATOM     33  N   UNL     1      -0.732  -8.692  -3.253  0.00  0.00    -0.323 NA
ATOM     34  H   UNL     1      -0.509  -9.348  -3.986  0.00  0.00    +0.119 HD
ATOM     35  H   UNL     1       0.098  -8.414  -2.751  0.00  0.00    +0.119 HD
ENDBRANCH   2  33
TORSDOF 6
