REMARK  Name = ZINC15319711
REMARK  4 active torsions:
REMARK  status: ('A' for Active; 'I' for Inactive)
REMARK    1  A    between atoms: C_8  and  C_10
REMARK    2  A    between atoms: C_10  and  O_12
REMARK    3  A    between atoms: O_12  and  C_13
REMARK    4  A    between atoms: C_13  and  C_14
REMARK                            x       y       z     vdW  Elec       q    Type
REMARK                         _______ _______ _______ _____ _____    ______ ____
ROOT
ATOM      1  C   UNL     1      -0.016   1.343   0.009  0.00  0.00    +0.361 C 
ATOM      2  O   UNL     1       1.028   1.965   0.003  0.00  0.00    -0.243 OA
ENDROOT
BRANCH   1  10
ATOM      3  C   UNL     1      -4.830   4.860   0.053  0.00  0.00    +0.130 A 
ATOM      4  C   UNL     1      -5.531   3.643   0.050  0.00  0.00    +0.054 A 
ATOM      5  C   UNL     1      -4.841   2.477   0.040  0.00  0.00    +0.131 A 
ATOM      6  N   UNL     1      -3.474   2.512   0.033  0.00  0.00    -0.218 N 
ATOM      7  C   UNL     1      -2.824   3.721   0.036  0.00  0.00    +0.175 A 
ATOM      8  N   UNL     1      -3.519   4.868   0.046  0.00  0.00    -0.234 NA
ATOM      9  C   UNL     1      -1.463   3.455   0.033  0.00  0.00    +0.119 A 
ATOM     10  C   UNL     1      -1.305   2.064   0.019  0.00  0.00    +0.190 A 
ATOM     11  N   UNL     1      -2.505   1.502   0.023  0.00  0.00    -0.157 NA
ATOM     12 CL   UNL     1      -0.187   4.632   0.041  0.00  0.00    -0.077 Cl
ATOM     13 BR   UNL     1      -7.422   3.632   0.060  0.00  0.00    -0.047 Br
ENDBRANCH   1  10
BRANCH   1  14
ATOM     14  O   UNL     1       0.002  -0.004   0.002  0.00  0.00    -0.460 OA
BRANCH  14  15
ATOM     15  C   UNL     1       1.305  -0.646  -0.014  0.00  0.00    +0.234 C 
BRANCH  15  16
ATOM     16  C   UNL     1       1.125  -2.165  -0.020  0.00  0.00    +0.013 C 
ATOM     17  C   UNL     1       0.444  -2.591  -1.322  0.00  0.00    +0.003 C 
ATOM     18  C   UNL     1       1.347  -2.211  -2.498  0.00  0.00    -0.018 C 
ATOM     19  C   UNL     1       2.696  -2.908  -2.327  0.00  0.00    -0.078 C 
ATOM     20  C   UNL     1       2.495  -2.841   0.093  0.00  0.00    -0.062 C 
ATOM     21  C   UNL     1       3.161  -2.353   1.384  0.00  0.00    -0.015 C 
ATOM     22  C   UNL     1       4.554  -2.969   1.515  0.00  0.00    -0.003 C 
ATOM     23  C   UNL     1       5.380  -2.581   0.284  0.00  0.00    -0.019 C 
ATOM     24  C   UNL     1       4.667  -3.088  -0.969  0.00  0.00    -0.078 C 
ATOM     25  N   UNL     1       3.333  -2.466  -1.075  0.00  0.00    +0.382 N 
ATOM     26  H   UNL     1       3.439  -1.445  -1.093  0.00  0.00    -0.081 HD
ENDBRANCH  15  16
ENDBRANCH  14  15
ENDBRANCH   1  14
TORSDOF 4
