REMARK  Name = ZINC59892411
REMARK  13 active torsions:
REMARK  status: ('A' for Active; 'I' for Inactive)
REMARK    1  A    between atoms: C_1  and  C_2
REMARK    2  A    between atoms: N_5  and  S_8
REMARK    3  A    between atoms: S_8  and  C_11
REMARK    4  A    between atoms: C_14  and  N_17
REMARK    5  A    between atoms: C_18  and  C_20
REMARK    6  A    between atoms: C_20  and  S_21
REMARK    7  A    between atoms: S_21  and  C_22
REMARK    8  A    between atoms: N_27  and  N_28
REMARK    9  A    between atoms: C_29  and  C_30
REMARK   10  A    between atoms: C_29  and  C_31
REMARK   11  A    between atoms: C_31  and  C_32
REMARK   12  A    between atoms: C_32  and  C_33
REMARK   13  A    between atoms: C_32  and  C_34
REMARK                            x       y       z     vdW  Elec       q    Type
REMARK                         _______ _______ _______ _____ _____    ______ ____
ROOT
ATOM      1  N   UNL     1       0.101  -9.041  -0.008  0.00  0.00    -0.285 N 
ATOM      2  C   UNL     1       1.301  -9.601   0.243  0.00  0.00    +0.227 C 
ATOM      3  O   UNL     1       2.086  -9.046   0.983  0.00  0.00    -0.275 OA
ATOM      4  H   UNL     1      -0.556  -9.519  -0.538  0.00  0.00    +0.155 HD
ENDROOT
BRANCH   1   8
ATOM      5  C   UNL     1      -0.788  -5.257   1.490  0.00  0.00    +0.106 A 
ATOM      6  C   UNL     1       0.508  -5.565   1.120  0.00  0.00    +0.030 A 
ATOM      7  C   UNL     1       0.806  -6.819   0.623  0.00  0.00    +0.025 A 
ATOM      8  C   UNL     1      -0.198  -7.770   0.496  0.00  0.00    +0.034 A 
ATOM      9  C   UNL     1      -1.498  -7.458   0.870  0.00  0.00    +0.025 A 
ATOM     10  C   UNL     1      -1.788  -6.204   1.370  0.00  0.00    +0.030 A 
BRANCH   5  11
ATOM     11  S   UNL     1      -1.164  -3.656   2.124  0.00  0.00    +0.061 S 
ATOM     12  O   UNL     1      -2.550  -3.443   1.893  0.00  0.00    -0.153 OA
ATOM     13  O   UNL     1      -0.164  -2.777   1.627  0.00  0.00    -0.153 OA
BRANCH  11  18
ATOM     14  C   UNL     1      -1.100  -1.726   7.523  0.00  0.00    +0.007 C 
ATOM     15  C   UNL     1      -0.924  -2.790   6.438  0.00  0.00    -0.012 C 
ATOM     16  C   UNL     1       0.141  -2.329   5.440  0.00  0.00    +0.020 C 
ATOM     17  C   UNL     1       0.339  -3.412   4.374  0.00  0.00    +0.110 C 
ATOM     18  N   UNL     1      -0.963  -3.720   3.767  0.00  0.00    -0.177 NA
ATOM     19  C   UNL     1      -2.083  -4.087   4.644  0.00  0.00    +0.110 C 
ATOM     20  C   UNL     1      -2.253  -2.997   5.707  0.00  0.00    +0.020 C 
ENDBRANCH  11  18
ENDBRANCH   5  11
ENDBRANCH   1   8
BRANCH   2  21
ATOM     21  C   UNL     1       1.668 -10.915  -0.397  0.00  0.00    +0.173 C 
BRANCH  21  22
ATOM     22  S   UNL     1       3.333 -11.401   0.134  0.00  0.00    -0.075 S 
BRANCH  22  23
ATOM     23  C   UNL     1       3.611 -12.935  -0.688  0.00  0.00    +0.211 A 
ATOM     24  N   UNL     1       4.719 -13.678  -0.592  0.00  0.00    -0.186 NA
ATOM     25  C   UNL     1       4.593 -14.759  -1.333  0.00  0.00    +0.232 A 
ATOM     26  N   UNL     1       3.380 -14.719  -1.924  0.00  0.00    -0.245 N 
ATOM     27  N   UNL     1       2.764 -13.535  -1.488  0.00  0.00    -0.144 NA
ATOM     28  N   UNL     1       5.538 -15.758  -1.481  0.00  0.00    -0.205 N 
ATOM     29  H   UNL     1       5.353 -16.520  -2.053  0.00  0.00    +0.177 HD
ATOM     30  H   UNL     1       3.007 -15.380  -2.528  0.00  0.00    +0.192 HD
BRANCH  28  31
ATOM     31  N   UNL     1       6.762 -15.671  -0.805  0.00  0.00    -0.189 NA
ATOM     32  C   UNL     1       7.636 -16.596  -0.942  0.00  0.00    +0.034 C 
ATOM     33  C   UNL     1       7.348 -17.779  -1.830  0.00  0.00    +0.062 C 
BRANCH  32  34
ATOM     34  C   UNL     1       8.953 -16.502  -0.215  0.00  0.00    +0.055 C 
BRANCH  34  35
ATOM     35  C   UNL     1       9.055 -17.640   0.804  0.00  0.00    -0.012 C 
ATOM     36  C   UNL     1      10.440 -17.619   1.453  0.00  0.00    +0.007 C 
ATOM     37  C   UNL     1       7.984 -17.458   1.881  0.00  0.00    +0.007 C 
ENDBRANCH  34  35
ENDBRANCH  32  34
ENDBRANCH  28  31
ENDBRANCH  22  23
ENDBRANCH  21  22
ENDBRANCH   2  21
TORSDOF 9
