REMARK  Name = ZINC63571757
REMARK  2 active torsions:
REMARK  status: ('A' for Active; 'I' for Inactive)
REMARK    1  A    between atoms: C_8  and  C_26
REMARK    2  A    between atoms: N_18  and  C_19
REMARK                            x       y       z     vdW  Elec       q    Type
REMARK                         _______ _______ _______ _____ _____    ______ ____
ROOT
ATOM      1  C   UNL     1       0.136   1.592   0.129  0.00  0.00    +0.001 A 
ATOM      2  C   UNL     1       1.337   2.313   0.100  0.00  0.00    +0.002 A 
ATOM      3  C   UNL     1       2.546   1.714   0.066  0.00  0.00    +0.026 A 
ATOM      4  C   UNL     1       2.647   0.296   0.058  0.00  0.00    +0.043 A 
ATOM      5  N   UNL     1       3.687  -0.505   0.008  0.00  0.00    -0.375 N 
ATOM      6  C   UNL     1       3.216  -1.884   0.103  0.00  0.00    +0.131 C 
ATOM      7  C   UNL     1       3.667  -2.727  -1.095  0.00  0.00    +0.134 C 
ATOM      8  N   UNL     1       2.838  -3.942  -1.131  0.00  0.00    -0.276 N 
ATOM      9  C   UNL     1       1.381  -3.848  -1.264  0.00  0.00    +0.114 C 
ATOM     10  C   UNL     1       0.815  -3.012  -0.101  0.00  0.00    +0.052 C 
ATOM     11  C   UNL     1       1.700  -1.797   0.059  0.00  0.00    -0.035 C 
ATOM     12  C   UNL     1       1.390  -0.492   0.082  0.00  0.00    -0.001 A 
ATOM     13  C   UNL     1       0.118   0.240   0.122  0.00  0.00    +0.010 A 
ATOM     14  C   UNL     1       3.424  -5.153  -1.040  0.00  0.00    +0.307 C 
ATOM     15  O   UNL     1       4.615  -5.236  -0.812  0.00  0.00    -0.252 OA
ATOM     16  N   UNL     1       2.689  -6.271  -1.201  0.00  0.00    -0.268 N 
ATOM     17  H   UNL     1       1.757  -6.205  -1.464  0.00  0.00    +0.156 HD
ATOM     18  H   UNL     1       4.612  -0.227  -0.079  0.00  0.00    +0.160 HD
ENDROOT
BRANCH  16  19
ATOM     19  C   UNL     1       3.269  -7.527  -0.990  0.00  0.00    +0.049 A 
ATOM     20  C   UNL     1       4.632  -7.631  -0.742  0.00  0.00    +0.024 A 
ATOM     21  C   UNL     1       5.202  -8.871  -0.533  0.00  0.00    +0.002 A 
ATOM     22  C   UNL     1       4.417 -10.010  -0.570  0.00  0.00    +0.001 A 
ATOM     23  C   UNL     1       3.060  -9.910  -0.817  0.00  0.00    +0.017 A 
ATOM     24  C   UNL     1       2.483  -8.671  -1.021  0.00  0.00    +0.039 A 
ATOM     25 BR   UNL     1       0.626  -8.535  -1.351  0.00  0.00    -0.048 Br
ENDBRANCH  16  19
BRANCH   7  26
ATOM     26  C   UNL     1       5.118  -3.102  -0.938  0.00  0.00    -0.025 A 
ATOM     27  C   UNL     1       5.888  -3.369  -2.054  0.00  0.00    +0.008 A 
ATOM     28  C   UNL     1       7.219  -3.713  -1.911  0.00  0.00    +0.038 A 
ATOM     29  C   UNL     1       7.781  -3.790  -0.648  0.00  0.00    +0.123 A 
ATOM     30  C   UNL     1       7.009  -3.523   0.470  0.00  0.00    +0.038 A 
ATOM     31  C   UNL     1       5.680  -3.174   0.324  0.00  0.00    +0.008 A 
ATOM     32  F   UNL     1       9.082  -4.127  -0.507  0.00  0.00    -0.205 F 
ENDBRANCH   7  26
TORSDOF 2
