REMARK  Name = ZINC23551899
REMARK  8 active torsions:
REMARK  status: ('A' for Active; 'I' for Inactive)
REMARK    1  A    between atoms: C_1  and  C_2
REMARK    2  A    between atoms: C_2  and  N_3
REMARK    3  A    between atoms: C_7  and  C_9
REMARK    4  A    between atoms: C_9  and  C_11
REMARK    5  A    between atoms: C_9  and  S_12
REMARK    6  A    between atoms: S_12  and  C_13
REMARK    7  A    between atoms: N_23  and  C_24
REMARK    8  A    between atoms: C_29  and  C_30
REMARK                            x       y       z     vdW  Elec       q    Type
REMARK                         _______ _______ _______ _____ _____    ______ ____
ROOT
ATOM      1  C   UNL     1      -5.117   0.712  -0.707  0.00  0.00    +0.177 A 
ATOM      2  N   UNL     1      -4.888  -0.499  -0.260  0.00  0.00    -0.223 NA
ATOM      3  C   UNL     1      -5.860  -1.441  -0.240  0.00  0.00    +0.080 A 
ATOM      4  C   UNL     1      -5.619  -2.731   0.241  0.00  0.00    +0.048 A 
ATOM      5  C   UNL     1      -6.638  -3.658   0.238  0.00  0.00    +0.043 A 
ATOM      6  C   UNL     1      -7.902  -3.326  -0.236  0.00  0.00    +0.021 A 
ATOM      7  C   UNL     1      -8.162  -2.071  -0.712  0.00  0.00    +0.017 A 
ATOM      8  C   UNL     1      -7.149  -1.113  -0.721  0.00  0.00    +0.065 A 
ATOM      9  C   UNL     1      -7.376   0.250  -1.220  0.00  0.00    +0.267 A 
ATOM     10  O   UNL     1      -8.464   0.592  -1.647  0.00  0.00    -0.267 OA
ATOM     11  N   UNL     1      -6.333   1.111  -1.189  0.00  0.00    -0.255 N 
ATOM     12 CL   UNL     1      -6.340  -5.261   0.835  0.00  0.00    -0.083 Cl
ENDROOT
BRANCH  11  13
ATOM     13  C   UNL     1      -6.500   2.421  -1.654  0.00  0.00    +0.055 A 
ATOM     14  C   UNL     1      -6.254   2.723  -2.988  0.00  0.00    +0.026 A 
ATOM     15  C   UNL     1      -6.424   4.015  -3.445  0.00  0.00    +0.002 A 
ATOM     16  C   UNL     1      -6.827   5.010  -2.574  0.00  0.00    +0.000 A 
ATOM     17  C   UNL     1      -7.067   4.715  -1.245  0.00  0.00    +0.005 A 
ATOM     18  C   UNL     1      -6.904   3.423  -0.783  0.00  0.00    -0.026 A 
ATOM     19  C   UNL     1      -7.167   3.102   0.666  0.00  0.00    +0.046 C 
ENDBRANCH  11  13
BRANCH   1  20
ATOM     20  S   UNL     1      -3.795   1.877  -0.691  0.00  0.00    -0.075 S 
BRANCH  20  21
ATOM     21  C   UNL     1      -2.482   0.853   0.018  0.00  0.00    +0.137 C 
ATOM     22  C   UNL     1      -2.849   0.476   1.455  0.00  0.00    +0.029 C 
BRANCH  21  27
ATOM     23  N   UNL     1       2.323   0.998  -0.015  0.00  0.00    -0.299 N 
ATOM     24  C   UNL     1       1.147   1.655   0.000  0.00  0.00    +0.306 C 
ATOM     25  O   UNL     1       1.130   2.871   0.007  0.00  0.00    -0.252 OA
ATOM     26  N   UNL     1      -0.011   0.966   0.007  0.00  0.00    -0.239 N 
ATOM     27  C   UNL     1      -1.187   1.624   0.017  0.00  0.00    +0.233 C 
ATOM     28  O   UNL     1      -1.204   2.836   0.023  0.00  0.00    -0.274 OA
ATOM     29  H   UNL     1       2.338  -0.102  -0.021  0.00  0.00    +0.150 HD
ATOM     30  H   UNL     1       0.004  -0.134   0.006  0.00  0.00    +0.159 HD
BRANCH  23  32
ATOM     31  C   UNL     1       4.758   0.769  -0.039  0.00  0.00    +0.024 C 
ATOM     32  C   UNL     1       3.582   1.747  -0.023  0.00  0.00    +0.102 C 
ENDBRANCH  23  32
ENDBRANCH  21  27
ENDBRANCH  20  21
ENDBRANCH   1  20
TORSDOF 5
