REMARK  Name = ZINC19581076
REMARK  8 active torsions:
REMARK  status: ('A' for Active; 'I' for Inactive)
REMARK    1  A    between atoms: C_1  and  C_2
REMARK    2  A    between atoms: C_3  and  C_8
REMARK    3  A    between atoms: C_4  and  C_7
REMARK    4  A    between atoms: C_8  and  C_9
REMARK    5  A    between atoms: C_12  and  C_14
REMARK    6  A    between atoms: C_21  and  C_23
REMARK    7  A    between atoms: C_23  and  C_24
REMARK    8  A    between atoms: C_24  and  N_25
REMARK                            x       y       z     vdW  Elec       q    Type
REMARK                         _______ _______ _______ _____ _____    ______ ____
ROOT
ATOM      1  C   UNL     1       0.198  -1.303   1.989  0.00  0.00    +0.253 C 
ATOM      2  O   UNL     1       0.787  -1.440   3.045  0.00  0.00    -0.269 OA
ATOM      3  N   UNL     1       0.845  -0.809   0.916  0.00  0.00    -0.294 N 
ATOM      4  C   UNL     1       0.191  -0.766  -0.399  0.00  0.00    +0.108 C 
ATOM      5  C   UNL     1       0.264   0.665  -0.940  0.00  0.00    +0.019 C 
ATOM      6  C   UNL     1       1.722   1.129  -0.949  0.00  0.00    +0.003 C 
ATOM      7  C   UNL     1       2.269   1.125   0.481  0.00  0.00    +0.022 C 
ATOM      8  C   UNL     1       2.219  -0.301   1.038  0.00  0.00    +0.075 C 
ENDROOT
BRANCH   1  12
ATOM      9  C   UNL     1      -3.813  -1.978   1.355  0.00  0.00    -0.005 A 
ATOM     10  C   UNL     1      -3.242  -2.811   2.264  0.00  0.00    +0.012 A 
ATOM     11  C   UNL     1      -1.906  -2.679   2.549  0.00  0.00    +0.021 A 
ATOM     12  C   UNL     1      -1.216  -1.677   1.885  0.00  0.00    +0.074 A 
ATOM     13  S   UNL     1      -2.495  -0.964   0.866  0.00  0.00    -0.088 S 
BRANCH   9  14
ATOM     14  C   UNL     1      -5.245  -1.943   0.886  0.00  0.00    +0.083 C 
BRANCH  14  17
ATOM     15  C   UNL     1      -6.860  -2.689   3.600  0.00  0.00    +0.069 C 
ATOM     16  C   UNL     1      -6.746  -1.333   2.952  0.00  0.00    +0.084 A 
ATOM     17  C   UNL     1      -6.040  -1.016   1.769  0.00  0.00    +0.022 A 
ATOM     18  C   UNL     1      -6.248   0.313   1.610  0.00  0.00    +0.138 A 
ATOM     19  O   UNL     1      -7.013   0.704   2.638  0.00  0.00    -0.359 OA
ATOM     20  N   UNL     1      -7.277  -0.221   3.373  0.00  0.00    -0.083 NA
ATOM     21  C   UNL     1      -5.723   1.181   0.495  0.00  0.00    +0.089 C 
ENDBRANCH  14  17
ENDBRANCH   9  14
ENDBRANCH   1  12
BRANCH   8  22
ATOM     22  C   UNL     1       2.634  -0.295   2.510  0.00  0.00    +0.004 C 
BRANCH  22  23
ATOM     23  C   UNL     1       4.038   0.299   2.642  0.00  0.00    -0.077 C 
BRANCH  23  24
ATOM     24  N   UNL     1       4.437   0.306   4.055  0.00  0.00    +0.380 N 
ATOM     25  C   UNL     1       4.278  -1.042   4.660  0.00  0.00    -0.079 C 
ATOM     26  C   UNL     1       5.199  -0.983   5.904  0.00  0.00    -0.020 C 
ATOM     27  C   UNL     1       6.403  -0.152   5.404  0.00  0.00    -0.020 C 
ATOM     28  C   UNL     1       5.869   0.647   4.201  0.00  0.00    -0.079 C 
ATOM     29  H   UNL     1       3.793   1.052   4.544  0.00  0.00    -0.082 HD
ENDBRANCH  23  24
ENDBRANCH  22  23
ENDBRANCH   8  22
TORSDOF 6
