REMARK  Name = ZINC10961058
REMARK  6 active torsions:
REMARK  status: ('A' for Active; 'I' for Inactive)
REMARK    1  A    between atoms: C_1  and  C_2
REMARK    2  A    between atoms: C_2  and  C_4
REMARK    3  A    between atoms: C_2  and  O_14
REMARK    4  A    between atoms: O_14  and  C_15
REMARK    5  A    between atoms: C_15  and  C_17
REMARK    6  A    between atoms: C_22  and  N_23
REMARK                            x       y       z     vdW  Elec       q    Type
REMARK                         _______ _______ _______ _____ _____    ______ ____
ROOT
ATOM      1  O   UNL     1       4.749   5.502  -0.259  0.00  0.00    -0.449 OA
ENDROOT
BRANCH   1   3
ATOM      2  C   UNL     1       5.668   3.702  -1.617  0.00  0.00    +0.062 C 
ATOM      3  C   UNL     1       4.975   4.069  -0.303  0.00  0.00    +0.259 C 
BRANCH   3   4
ATOM      4  C   UNL     1       3.654   3.349  -0.215  0.00  0.00    +0.259 C 
ATOM      5  O   UNL     1       2.618   3.980  -0.214  0.00  0.00    -0.271 OA
ATOM      6  N   UNL     1       3.623   2.004  -0.135  0.00  0.00    -0.267 N 
ATOM      7  C   UNL     1       2.402   1.331  -0.163  0.00  0.00    +0.125 A 
ATOM      8  C   UNL     1       2.382  -0.059  -0.190  0.00  0.00    +0.045 A 
ATOM      9  C   UNL     1       1.164  -0.714  -0.216  0.00  0.00    +0.025 A 
ATOM     10  C   UNL     1       0.002   0.047  -0.215  0.00  0.00    +0.059 A 
ATOM     11  C   UNL     1       0.097   1.426  -0.188  0.00  0.00    +0.132 A 
ATOM     12  N   UNL     1       1.273   2.022  -0.163  0.00  0.00    -0.239 NA
ATOM     13 CL   UNL     1      -1.553  -0.724  -0.249  0.00  0.00    -0.082 Cl
ATOM     14  H   UNL     1       4.451   1.503  -0.059  0.00  0.00    +0.156 HD
ENDBRANCH   3   4
ENDBRANCH   1   3
BRANCH   1  15
ATOM     15  C   UNL     1       5.724   6.259   0.282  0.00  0.00    +0.342 C 
ATOM     16  O   UNL     1       6.736   5.735   0.705  0.00  0.00    -0.245 OA
BRANCH  15  17
ATOM     17  C   UNL     1       5.564   7.721   0.360  0.00  0.00    +0.082 A 
ATOM     18  C   UNL     1       4.355   8.317  -0.012  0.00  0.00    +0.037 A 
ATOM     19  C   UNL     1       4.211   9.686   0.064  0.00  0.00    +0.043 A 
ATOM     20  C   UNL     1       5.260  10.477   0.508  0.00  0.00    +0.042 A 
ATOM     21  C   UNL     1       6.460   9.903   0.878  0.00  0.00    +0.064 A 
ATOM     22  C   UNL     1       6.622   8.524   0.814  0.00  0.00    +0.057 A 
ATOM     23 CL   UNL     1       7.765  10.905   1.432  0.00  0.00    -0.082 Cl
ATOM     24 CL   UNL     1       2.709  10.423  -0.399  0.00  0.00    -0.083 Cl
BRANCH  22  25
ATOM     25  N   UNL     1       7.826   7.944   1.193  0.00  0.00    -0.356 N 
ATOM     26  H   UNL     1       7.911   6.978   1.222  0.00  0.00    +0.142 HD
ATOM     27  H   UNL     1       8.582   8.504   1.428  0.00  0.00    +0.142 HD
ENDBRANCH  22  25
ENDBRANCH  15  17
ENDBRANCH   1  15
TORSDOF 5
