REMARK  Name = ZINC05254753
REMARK  5 active torsions:
REMARK  status: ('A' for Active; 'I' for Inactive)
REMARK    1  A    between atoms: C_1  and  C_2
REMARK    2  A    between atoms: C_2  and  C_4
REMARK    3  A    between atoms: C_2  and  N_48
REMARK    4  A    between atoms: C_15  and  C_20
REMARK    5  A    between atoms: C_15  and  N_48
REMARK                            x       y       z     vdW  Elec       q    Type
REMARK                         _______ _______ _______ _____ _____    ______ ____
ROOT
ATOM      1  N   UNL     1      -2.260   1.137   1.117  0.00  0.00    +0.390 N 
ATOM      2  H   UNL     1      -2.454   0.975   0.122  0.00  0.00    -0.084 HD
ATOM      3  H   UNL     1      -2.960   1.782   1.502  0.00  0.00    -0.084 HD
ENDROOT
BRANCH   1   4
ATOM      4  C   UNL     1      -2.328  -0.145   1.841  0.00  0.00    -0.042 C 
ATOM      5  C   UNL     1      -3.780  -0.666   1.841  0.00  0.00    -0.008 C 
ATOM      6  C   UNL     1      -3.952  -1.311   3.239  0.00  0.00    -0.001 C 
ATOM      7  C   UNL     1      -3.158  -0.351   4.159  0.00  0.00    -0.001 C 
ATOM      8  C   UNL     1      -1.932   0.054   3.315  0.00  0.00    -0.008 C 
BRANCH   4   9
ATOM      9  C   UNL     1      -1.417  -1.157   1.195  0.00  0.00    -0.058 A 
ATOM     10  C   UNL     1      -0.867  -2.175   1.951  0.00  0.00    +0.002 A 
ATOM     11  C   UNL     1      -0.035  -3.105   1.357  0.00  0.00    +0.000 A 
ATOM     12  C   UNL     1       0.255  -3.012   0.008  0.00  0.00    +0.000 A 
ATOM     13  C   UNL     1      -0.291  -1.991  -0.747  0.00  0.00    +0.000 A 
ATOM     14  C   UNL     1      -1.126  -1.063  -0.153  0.00  0.00    +0.002 A 
ENDBRANCH   4   9
ENDBRANCH   1   4
BRANCH   1  16
ATOM     15  C   UNL     1      -0.375   2.090  -0.127  0.00  0.00    -0.010 C 
ATOM     16  C   UNL     1      -0.918   1.735   1.259  0.00  0.00    -0.029 C 
BRANCH  16  17
ATOM     17  C   UNL     1      -1.016   3.003   2.108  0.00  0.00    +0.197 C 
ATOM     18  C   UNL     1       0.388   3.576   2.347  0.00  0.00    +0.272 C 
ATOM     19  O   UNL     1       0.259   4.766   3.132  0.00  0.00    -0.485 OA
ATOM     20  C   UNL     1      -0.701   5.651   2.747  0.00  0.00    +0.162 A 
ATOM     21  C   UNL     1      -0.650   6.956   3.215  0.00  0.00    +0.049 A 
ATOM     22  C   UNL     1      -1.620   7.865   2.836  0.00  0.00    +0.004 A 
ATOM     23  C   UNL     1      -2.641   7.478   1.989  0.00  0.00    +0.004 A 
ATOM     24  C   UNL     1      -2.697   6.180   1.519  0.00  0.00    +0.049 A 
ATOM     25  C   UNL     1      -1.727   5.262   1.894  0.00  0.00    +0.162 A 
ATOM     26  O   UNL     1      -1.792   3.989   1.418  0.00  0.00    -0.483 OA
ENDBRANCH  16  17
ENDBRANCH   1  16
TORSDOF 4
