REMARK  Name = ZINC13688646
REMARK  9 active torsions:
REMARK  status: ('A' for Active; 'I' for Inactive)
REMARK    1  A    between atoms: C_1  and  C_2
REMARK    2  A    between atoms: C_2  and  C_3
REMARK    3  A    between atoms: C_3  and  C_5
REMARK    4  A    between atoms: C_3  and  C_6
REMARK    5  A    between atoms: C_9  and  N_12
REMARK    6  A    between atoms: C_16  and  C_17
REMARK    7  A    between atoms: N_21  and  C_22
REMARK    8  A    between atoms: C_22  and  C_23
REMARK    9  A    between atoms: C_27  and  C_29
REMARK                            x       y       z     vdW  Elec       q    Type
REMARK                         _______ _______ _______ _____ _____    ______ ____
ROOT
ATOM      1  N   UNL     1      -0.752  -4.096  -0.739  0.00  0.00    -0.190 N 
ATOM      2  C   UNL     1       0.007  -4.742  -1.647  0.00  0.00    +0.264 C 
ATOM      3  O   UNL     1       0.509  -4.145  -2.580  0.00  0.00    -0.269 OA
ATOM      4  C   UNL     1       0.212  -6.191  -1.479  0.00  0.00    +0.102 C 
ATOM      5  C   UNL     1       0.982  -6.924  -2.375  0.00  0.00    +0.044 C 
ATOM      6  C   UNL     1      -0.435  -6.830  -0.320  0.00  0.00    +0.257 C 
ATOM      7  O   UNL     1      -0.312  -8.023  -0.114  0.00  0.00    -0.270 OA
ATOM      8  N   UNL     1      -1.168  -6.057   0.508  0.00  0.00    -0.235 N 
ATOM      9  C   UNL     1      -1.308  -4.740   0.297  0.00  0.00    +0.320 C 
ATOM     10  O   UNL     1      -1.977  -4.099   1.083  0.00  0.00    -0.251 OA
ATOM     11  H   UNL     1      -1.601  -6.462   1.276  0.00  0.00    +0.159 HD
ENDROOT
BRANCH   1  15
ATOM     12  C   UNL     1      -1.372   0.005  -1.155  0.00  0.00    -0.044 A 
ATOM     13  C   UNL     1      -0.597  -0.473  -0.115  0.00  0.00    +0.006 A 
ATOM     14  C   UNL     1      -0.394  -1.832   0.029  0.00  0.00    +0.024 A 
ATOM     15  C   UNL     1      -0.961  -2.717  -0.878  0.00  0.00    +0.046 A 
ATOM     16  C   UNL     1      -1.735  -2.233  -1.925  0.00  0.00    +0.024 A 
ATOM     17  C   UNL     1      -1.939  -0.873  -2.060  0.00  0.00    +0.006 A 
BRANCH  12  18
ATOM     18  C   UNL     1      -1.595   1.488  -1.305  0.00  0.00    +0.016 C 
ATOM     19  C   UNL     1      -2.288   2.029  -0.053  0.00  0.00    +0.012 C 
BRANCH  18  21
ATOM     20  C   UNL     1      -0.482   3.677  -1.764  0.00  0.00    +0.004 C 
ATOM     21  C   UNL     1      -0.249   2.191  -1.487  0.00  0.00    +0.004 C 
ENDBRANCH  18  21
ENDBRANCH  12  18
ENDBRANCH   1  15
BRANCH   5  22
ATOM     22  C   UNL     1       1.695  -6.266  -3.390  0.00  0.00    +0.043 A 
ATOM     23  C   UNL     1       1.569  -6.480  -4.758  0.00  0.00    +0.027 A 
ATOM     24  C   UNL     1       2.462  -5.615  -5.388  0.00  0.00    +0.020 A 
ATOM     25  C   UNL     1       3.104  -4.903  -4.426  0.00  0.00    +0.086 A 
ATOM     26  N   UNL     1       2.646  -5.281  -3.215  0.00  0.00    -0.343 N 
BRANCH  26  27
ATOM     27  C   UNL     1       3.088  -4.740  -1.928  0.00  0.00    +0.157 C 
BRANCH  27  28
ATOM     28  C   UNL     1       4.169  -5.621  -1.356  0.00  0.00    -0.028 A 
ATOM     29  C   UNL     1       3.834  -6.685  -0.540  0.00  0.00    +0.005 A 
ATOM     30  C   UNL     1       4.825  -7.496  -0.020  0.00  0.00    +0.001 A 
ATOM     31  C   UNL     1       6.152  -7.236  -0.308  0.00  0.00    +0.003 A 
ATOM     32  C   UNL     1       6.487  -6.169  -1.120  0.00  0.00    -0.050 A 
ATOM     33  C   UNL     1       5.496  -5.361  -1.644  0.00  0.00    +0.008 A 
ATOM     34  C   UNL     1       7.934  -5.886  -1.433  0.00  0.00    +0.044 C 
ENDBRANCH  27  28
ENDBRANCH  26  27
ENDBRANCH   5  22
TORSDOF 6
