REMARK  Name = ZINC33315245
REMARK  5 active torsions:
REMARK  status: ('A' for Active; 'I' for Inactive)
REMARK    1  A    between atoms: C_1  and  C_2
REMARK    2  A    between atoms: C_5  and  C_30
REMARK    3  A    between atoms: C_16  and  C_19
REMARK    4  A    between atoms: N_21  and  C_22
REMARK    5  A    between atoms: C_22  and  C_23
REMARK                            x       y       z     vdW  Elec       q    Type
REMARK                         _______ _______ _______ _____ _____    ______ ____
ROOT
ATOM      1  C   UNL     1      -7.330   5.905   7.099  0.00  0.00    +0.064 C 
ATOM      2  C   UNL     1      -6.315   6.084   8.199  0.00  0.00    +0.023 A 
ATOM      3  C   UNL     1      -6.286   7.095   9.091  0.00  0.00    +0.023 A 
ATOM      4  C   UNL     1      -5.176   6.884   9.934  0.00  0.00    +0.023 A 
ATOM      5  C   UNL     1      -4.571   5.748   9.530  0.00  0.00    +0.023 A 
ATOM      6  N   UNL     1      -5.268   5.249   8.466  0.00  0.00    -0.296 N 
ATOM      7  C   UNL     1      -4.957   4.083   7.764  0.00  0.00    +0.202 A 
ATOM      8  N   UNL     1      -3.970   3.221   7.944  0.00  0.00    -0.121 NA
ATOM      9  N   UNL     1      -3.833   2.200   7.215  0.00  0.00    -0.124 NA
ATOM     10  C   UNL     1      -4.664   1.936   6.217  0.00  0.00    +0.186 A 
ATOM     11  S   UNL     1      -5.781   3.327   6.366  0.00  0.00    -0.013 S 
ATOM     12  N   UNL     1      -4.670   0.878   5.317  0.00  0.00    -0.307 N 
ATOM     13  C   UNL     1      -5.953   0.164   5.354  0.00  0.00    +0.107 C 
ATOM     14  C   UNL     1      -5.873  -1.076   4.461  0.00  0.00    +0.020 C 
ATOM     15  C   UNL     1      -5.546  -0.648   3.028  0.00  0.00    +0.016 C 
ATOM     16  C   UNL     1      -4.230   0.136   3.025  0.00  0.00    +0.092 C 
ATOM     17  C   UNL     1      -4.358   1.341   3.959  0.00  0.00    +0.119 C 
ATOM     18  C   UNL     1      -3.339   5.136  10.145  0.00  0.00    +0.064 C 
ENDROOT
BRANCH  16  19
ATOM     19  C   UNL     1      -3.932   0.612   1.627  0.00  0.00    +0.218 C 
ATOM     20  O   UNL     1      -4.695   0.352   0.721  0.00  0.00    -0.275 OA
ATOM     21  N   UNL     1      -2.816   1.328   1.383  0.00  0.00    -0.311 N 
ATOM     22  H   UNL     1      -2.123   1.564   2.204  0.00  0.00    +0.149 HD
BRANCH  21  23
ATOM     23  C   UNL     1      -2.525   1.791   0.024  0.00  0.00    +0.140 C 
BRANCH  23  24
ATOM     24  C   UNL     1      -1.230   2.562   0.022  0.00  0.00    -0.016 A 
ATOM     25  C   UNL     1      -1.249   3.944   0.034  0.00  0.00    +0.006 A 
ATOM     26  C   UNL     1      -0.061   4.652   0.026  0.00  0.00    +0.000 A 
ATOM     27  C   UNL     1       1.146   3.977   0.012  0.00  0.00    +0.001 A 
ATOM     28  C   UNL     1       1.165   2.595   0.005  0.00  0.00    +0.015 A 
ATOM     29  C   UNL     1      -0.024   1.887   0.012  0.00  0.00    +0.023 A 
ATOM     30 BR   UNL     1       0.002  -0.004   0.002  0.00  0.00    -0.050 Br
ENDBRANCH  23  24
ENDBRANCH  21  23
ENDBRANCH  16  19
TORSDOF 3
