REMARK  Name = ZINC38256163
REMARK  10 active torsions:
REMARK  status: ('A' for Active; 'I' for Inactive)
REMARK    1  A    between atoms: C_1  and  C_2
REMARK    2  A    between atoms: C_7  and  C_12
REMARK    3  A    between atoms: C_12  and  C_13
REMARK    4  A    between atoms: C_14  and  C_27
REMARK    5  A    between atoms: N_16  and  C_21
REMARK    6  A    between atoms: C_21  and  C_22
REMARK    7  A    between atoms: C_29  and  O_35
REMARK    8  A    between atoms: C_32  and  O_33
REMARK    9  A    between atoms: O_33  and  C_34
REMARK   10  A    between atoms: O_35  and  C_36
REMARK                            x       y       z     vdW  Elec       q    Type
REMARK                         _______ _______ _______ _____ _____    ______ ____
ROOT
ATOM      1  C   UNL     1       7.284  -1.036  -0.524  0.00  0.00    +0.076 C 
ATOM      2  C   UNL     1       7.441  -1.063   0.979  0.00  0.00    +0.149 C 
ATOM      3  N   UNL     1       8.833  -1.451   1.237  0.00  0.00    -0.276 N 
ATOM      4  C   UNL     1       9.438  -1.635   0.050  0.00  0.00    +0.288 C 
ATOM      5  O   UNL     1      10.599  -1.963  -0.098  0.00  0.00    -0.266 OA
ATOM      6  C   UNL     1       8.481  -1.385  -1.049  0.00  0.00    +0.249 C 
ATOM      7  O   UNL     1       8.759  -1.487  -2.369  0.00  0.00    -0.282 OA
ENDROOT
BRANCH   2   8
ATOM      8  C   UNL     1       6.501  -2.075   1.581  0.00  0.00    +0.023 A 
ATOM      9  C   UNL     1       6.036  -3.127   0.816  0.00  0.00    +0.055 A 
ATOM     10  C   UNL     1       5.171  -4.058   1.370  0.00  0.00    +0.121 A 
ATOM     11  C   UNL     1       4.773  -3.934   2.693  0.00  0.00    +0.049 A 
ATOM     12  C   UNL     1       5.237  -2.882   3.458  0.00  0.00    +0.049 A 
ATOM     13  C   UNL     1       6.107  -1.953   2.905  0.00  0.00    +0.126 A 
BRANCH  13  14
ATOM     14  O   UNL     1       6.569  -0.920   3.659  0.00  0.00    -0.495 OA
ATOM     15  C   UNL     1       6.201  -0.911   5.040  0.00  0.00    +0.277 C 
ENDBRANCH  13  14
BRANCH  10  16
ATOM     16  O   UNL     1       4.714  -5.094   0.616  0.00  0.00    -0.495 OA
ATOM     17  C   UNL     1       3.826  -6.016   1.252  0.00  0.00    +0.277 C 
ENDBRANCH  10  16
ENDBRANCH   2   8
BRANCH   1  18
ATOM     18  C   UNL     1       6.066  -0.703  -1.269  0.00  0.00    +0.195 C 
ATOM     19  O   UNL     1       5.501  -1.558  -1.926  0.00  0.00    -0.287 OA
BRANCH  18  25
ATOM     20  C   UNL     1       3.847   5.038  -3.586  0.00  0.00    +0.052 C 
ATOM     21  C   UNL     1       3.048   4.458  -2.418  0.00  0.00    +0.175 C 
ATOM     22  C   UNL     1       2.747   2.959  -2.651  0.00  0.00    +0.083 C 
ATOM     23  C   UNL     1       3.912   2.293  -1.944  0.00  0.00    -0.002 A 
ATOM     24  C   UNL     1       4.408   1.014  -1.993  0.00  0.00    +0.019 A 
ATOM     25  C   UNL     1       5.524   0.670  -1.223  0.00  0.00    +0.023 A 
ATOM     26  C   UNL     1       6.124   1.637  -0.410  0.00  0.00    +0.015 A 
ATOM     27  C   UNL     1       5.617   2.913  -0.366  0.00  0.00    +0.046 A 
ATOM     28  C   UNL     1       4.500   3.258  -1.131  0.00  0.00    +0.124 A 
ATOM     29  O   UNL     1       3.837   4.447  -1.216  0.00  0.00    -0.488 OA
ENDBRANCH  18  25
ENDBRANCH   1  18
BRANCH   3  30
ATOM     30  C   UNL     1       9.454  -1.609   2.555  0.00  0.00    +0.183 C 
BRANCH  30  31
ATOM     31  C   UNL     1       9.424  -3.063   2.952  0.00  0.00    +0.122 A 
ATOM     32  C   UNL     1      10.399  -3.961   2.724  0.00  0.00    +0.046 A 
ATOM     33  C   UNL     1       9.957  -5.191   3.260  0.00  0.00    +0.041 A 
ATOM     34  C   UNL     1       8.737  -4.972   3.784  0.00  0.00    +0.195 A 
ATOM     35  O   UNL     1       8.422  -3.680   3.599  0.00  0.00    -0.466 OA
ENDBRANCH  30  31
ENDBRANCH   3  30
TORSDOF 7
