REMARK  Name = ZINC39533655
REMARK  7 active torsions:
REMARK  status: ('A' for Active; 'I' for Inactive)
REMARK    1  A    between atoms: C_4  and  C_7
REMARK    2  A    between atoms: C_10  and  C_13
REMARK    3  A    between atoms: C_13  and  C_15
REMARK    4  A    between atoms: C_13  and  N_18
REMARK    5  A    between atoms: C_15  and  N_16
REMARK    6  A    between atoms: C_22  and  C_25
REMARK    7  A    between atoms: C_30  and  O_31
REMARK                            x       y       z     vdW  Elec       q    Type
REMARK                         _______ _______ _______ _____ _____    ______ ____
ROOT
ATOM      1  C   UNL     1       7.429  -2.778  -0.100  0.00  0.00    +0.101 C 
ENDROOT
BRANCH   1   2
ATOM      2  N   UNL     1       7.427  -3.989   0.731  0.00  0.00    -0.297 NA
ATOM      3  C   UNL     1       6.897  -3.707   2.072  0.00  0.00    +0.066 C 
ATOM      4  C   UNL     1       6.856  -5.003   2.884  0.00  0.00    -0.066 C 
ATOM      5  N   UNL     1       8.211  -5.562   2.982  0.00  0.00    +0.385 N 
ATOM      6  C   UNL     1       8.717  -5.862   1.636  0.00  0.00    -0.023 C 
ATOM      7  C   UNL     1       8.774  -4.573   0.814  0.00  0.00    +0.074 C 
ATOM      8  H   UNL     1       8.820  -4.893   3.429  0.00  0.00    -0.085 HD
ATOM      9  H   UNL     1       8.186  -6.411   3.528  0.00  0.00    -0.085 HD
BRANCH   6  10
ATOM     10  C   UNL     1      10.100  -6.453   1.740  0.00  0.00    -0.019 A 
ATOM     11  C   UNL     1      10.848  -6.266   2.886  0.00  0.00    +0.005 A 
ATOM     12  C   UNL     1      12.116  -6.807   2.982  0.00  0.00    +0.000 A 
ATOM     13  C   UNL     1      12.640  -7.537   1.930  0.00  0.00    +0.004 A 
ATOM     14  C   UNL     1      11.896  -7.726   0.782  0.00  0.00    +0.045 A 
ATOM     15  C   UNL     1      10.621  -7.189   0.686  0.00  0.00    +0.118 A 
BRANCH  15  16
ATOM     16  O   UNL     1       9.885  -7.379  -0.441  0.00  0.00    -0.507 OA
ATOM     17  H   UNL     1      10.013  -6.697  -1.114  0.00  0.00    +0.292 HD
ENDBRANCH  15  16
ENDBRANCH   6  10
ENDBRANCH   1   2
BRANCH   1  21
ATOM     18  C   UNL     1       3.434  -1.302  -0.478  0.00  0.00    -0.018 A 
ATOM     19  C   UNL     1       4.495  -0.414  -0.308  0.00  0.00    +0.009 A 
ATOM     20  C   UNL     1       5.782  -0.896  -0.186  0.00  0.00    +0.006 A 
ATOM     21  C   UNL     1       6.021  -2.258  -0.233  0.00  0.00    -0.029 A 
ATOM     22  C   UNL     1       4.972  -3.144  -0.403  0.00  0.00    +0.006 A 
ATOM     23  C   UNL     1       3.680  -2.673  -0.519  0.00  0.00    +0.009 A 
BRANCH  18  27
ATOM     24  C   UNL     1      -0.539   0.165  -0.855  0.00  0.00    +0.000 A 
ATOM     25  C   UNL     1       0.510   1.052  -0.691  0.00  0.00    +0.001 A 
ATOM     26  C   UNL     1       1.802   0.581  -0.568  0.00  0.00    +0.008 A 
ATOM     27  C   UNL     1       2.048  -0.790  -0.609  0.00  0.00    -0.018 A 
ATOM     28  C   UNL     1       0.987  -1.678  -0.774  0.00  0.00    +0.008 A 
ATOM     29  C   UNL     1      -0.301  -1.197  -0.896  0.00  0.00    +0.001 A 
ENDBRANCH  18  27
ENDBRANCH   1  21
BRANCH   1  30
ATOM     30  C   UNL     1       7.983  -3.111  -1.487  0.00  0.00    +0.117 C 
BRANCH  30  31
ATOM     31  N   UNL     1       8.062  -1.884  -2.291  0.00  0.00    -0.254 NA
ATOM     32 BR   UNL     1       8.576  -2.261  -4.027  0.00  0.00    +0.010 Br
ATOM     33  H   UNL     1       8.686  -1.214  -1.867  0.00  0.00    +0.135 HD
ENDBRANCH  30  31
ENDBRANCH   1  30
TORSDOF 7
