REMARK  Name = ZINC10053440
REMARK  10 active torsions:
REMARK  status: ('A' for Active; 'I' for Inactive)
REMARK    1  A    between atoms: C_1  and  C_2
REMARK    2  A    between atoms: C_8  and  C_9
REMARK    3  A    between atoms: C_8  and  N_53
REMARK    4  A    between atoms: N_11  and  C_12
REMARK    5  A    between atoms: C_12  and  C_14
REMARK    6  A    between atoms: C_12  and  C_22
REMARK    7  A    between atoms: C_17  and  O_20
REMARK    8  A    between atoms: O_20  and  C_21
REMARK    9  A    between atoms: C_22  and  C_23
REMARK   10  A    between atoms: C_22  and  C_24
REMARK                            x       y       z     vdW  Elec       q    Type
REMARK                         _______ _______ _______ _____ _____    ______ ____
ROOT
ATOM      1  C   UNL     1       3.376   3.561   1.198  0.00  0.00    +0.197 C 
ATOM      2  O   UNL     1       2.289   4.098   1.169  0.00  0.00    -0.278 OA
ATOM      3  N   UNL     1       4.498   4.307   1.178  0.00  0.00    -0.310 N 
ATOM      4  H   UNL     1       5.367   3.877   1.202  0.00  0.00    +0.149 HD
ENDROOT
BRANCH   1   5
ATOM      5  C   UNL     1       3.472   2.058   1.257  0.00  0.00    +0.019 C 
BRANCH   5  12
ATOM      6  C   UNL     1       2.045   1.249  -1.029  0.00  0.00    -0.013 C 
ATOM      7  C   UNL     1       1.309   1.749   0.216  0.00  0.00    -0.071 C 
ATOM      8  C   UNL     1      -0.030   1.018   0.344  0.00  0.00    -0.016 C 
ATOM      9  C   UNL     1      -0.754   1.507   1.601  0.00  0.00    -0.003 C 
ATOM     10  C   UNL     1       0.139   1.267   2.821  0.00  0.00    -0.019 C 
ATOM     11  C   UNL     1       1.473   1.990   2.621  0.00  0.00    -0.078 C 
ATOM     12  N   UNL     1       2.131   1.457   1.409  0.00  0.00    +0.387 N 
ATOM     13  H   UNL     1       2.230   0.439   1.504  0.00  0.00    -0.081 HD
ENDBRANCH   5  12
ENDBRANCH   1   5
BRANCH   3  14
ATOM     14  C   UNL     1       4.404   5.768   1.121  0.00  0.00    +0.106 C 
BRANCH  14  15
ATOM     15  C   UNL     1       5.652   6.375   1.708  0.00  0.00    -0.027 A 
ATOM     16  C   UNL     1       6.885   5.803   1.450  0.00  0.00    +0.009 A 
ATOM     17  C   UNL     1       8.031   6.361   1.983  0.00  0.00    +0.046 A 
ATOM     18  C   UNL     1       7.944   7.489   2.786  0.00  0.00    +0.120 A 
ATOM     19  C   UNL     1       6.705   8.057   3.047  0.00  0.00    +0.046 A 
ATOM     20  C   UNL     1       5.563   7.499   2.508  0.00  0.00    +0.009 A 
BRANCH  18  21
ATOM     21  O   UNL     1       9.069   8.036   3.315  0.00  0.00    -0.495 OA
ATOM     22  C   UNL     1      10.309   7.398   3.004  0.00  0.00    +0.277 C 
ENDBRANCH  18  21
ENDBRANCH  14  15
BRANCH  14  23
ATOM     23  C   UNL     1       4.258   6.213  -0.336  0.00  0.00    +0.008 C 
ATOM     24  C   UNL     1       2.990   5.597  -0.932  0.00  0.00    +0.009 C 
ATOM     25  C   UNL     1       4.160   7.739  -0.396  0.00  0.00    +0.009 C 
ENDBRANCH  14  23
ENDBRANCH   3  14
TORSDOF 6
