REMARK  Name = ZINC27118084
REMARK  7 active torsions:
REMARK  status: ('A' for Active; 'I' for Inactive)
REMARK    1  A    between atoms: C_1  and  C_2
REMARK    2  A    between atoms: C_5  and  C_18
REMARK    3  A    between atoms: C_9  and  C_11
REMARK    4  A    between atoms: C_16  and  O_17
REMARK    5  A    between atoms: N_20  and  C_21
REMARK    6  A    between atoms: C_21  and  C_22
REMARK    7  A    between atoms: C_22  and  C_23
REMARK                            x       y       z     vdW  Elec       q    Type
REMARK                         _______ _______ _______ _____ _____    ______ ____
ROOT
ATOM      1  C   UNL     1       7.923   4.968  -5.758  0.00  0.00    +0.109 C 
ATOM      2  C   UNL     1       7.378   4.954  -4.353  0.00  0.00    +0.214 C 
ATOM      3  O   UNL     1       7.674   4.053  -3.597  0.00  0.00    -0.276 OA
ATOM      4  N   UNL     1       6.564   5.944  -3.936  0.00  0.00    -0.273 N 
ATOM      5  C   UNL     1       6.012   5.974  -2.585  0.00  0.00    +0.173 C 
ATOM      6  C   UNL     1       5.815   7.440  -2.099  0.00  0.00    +0.103 C 
ATOM      7  S   UNL     1       5.236   8.177  -3.694  0.00  0.00    -0.131 S 
ATOM      8  C   UNL     1       6.176   7.061  -4.819  0.00  0.00    +0.169 C 
ENDROOT
BRANCH   8   9
ATOM      9  C   UNL     1       5.297   6.572  -5.941  0.00  0.00    +0.024 A 
ATOM     10  C   UNL     1       5.193   5.219  -6.199  0.00  0.00    +0.010 A 
ATOM     11  C   UNL     1       4.383   4.770  -7.225  0.00  0.00    +0.001 A 
ATOM     12  C   UNL     1       3.683   5.674  -8.003  0.00  0.00    +0.004 A 
ATOM     13  C   UNL     1       3.788   7.029  -7.753  0.00  0.00    +0.046 A 
ATOM     14  C   UNL     1       4.596   7.481  -6.720  0.00  0.00    +0.123 A 
BRANCH  14  15
ATOM     15  O   UNL     1       4.701   8.813  -6.472  0.00  0.00    -0.506 OA
ATOM     16  H   UNL     1       4.145   9.534  -7.090  0.00  0.00    +0.292 HD
ENDBRANCH  14  15
ENDBRANCH   8   9
BRANCH   5  17
ATOM     17  C   UNL     1       4.682   5.266  -2.576  0.00  0.00    +0.234 C 
ATOM     18  O   UNL     1       4.016   5.212  -3.589  0.00  0.00    -0.274 OA
ATOM     19  N   UNL     1       4.231   4.691  -1.443  0.00  0.00    -0.313 N 
ATOM     20  H   UNL     1       4.835   4.739  -0.524  0.00  0.00    +0.149 HD
BRANCH  19  21
ATOM     21  C   UNL     1       2.938   4.003  -1.435  0.00  0.00    +0.109 C 
BRANCH  21  22
ATOM     22  C   UNL     1       2.667   3.445  -0.036  0.00  0.00    +0.055 C 
BRANCH  22  23
ATOM     23  C   UNL     1       1.336   2.737  -0.028  0.00  0.00    -0.027 A 
ATOM     24  C   UNL     1       0.199   3.408   0.380  0.00  0.00    +0.006 A 
ATOM     25  C   UNL     1      -1.022   2.759   0.388  0.00  0.00    +0.020 A 
ATOM     26  C   UNL     1      -1.106   1.439  -0.017  0.00  0.00    +0.042 A 
ATOM     27  C   UNL     1       0.033   0.765  -0.418  0.00  0.00    +0.040 A 
ATOM     28  C   UNL     1       1.254   1.415  -0.426  0.00  0.00    +0.046 A 
ATOM     29 CL   UNL     1       2.683   0.572  -0.938  0.00  0.00    -0.083 Cl
ATOM     30 CL   UNL     1      -2.640   0.626  -0.013  0.00  0.00    -0.083 Cl
ENDBRANCH  22  23
ENDBRANCH  21  22
ENDBRANCH  19  21
ENDBRANCH   5  17
TORSDOF 6
