REMARK  Name = ZINC12543799
REMARK  5 active torsions:
REMARK  status: ('A' for Active; 'I' for Inactive)
REMARK    1  A    between atoms: N_9  and  C_24
REMARK    2  A    between atoms: C_10  and  C_13
REMARK    3  A    between atoms: C_16  and  O_19
REMARK    4  A    between atoms: O_19  and  C_20
REMARK    5  A    between atoms: C_20  and  C_21
REMARK                            x       y       z     vdW  Elec       q    Type
REMARK                         _______ _______ _______ _____ _____    ______ ____
ROOT
ATOM      1  C   UNL     1       4.809   1.434   0.092  0.00  0.00    +0.001 A 
ATOM      2  C   UNL     1       4.811   0.140  -0.406  0.00  0.00    +0.002 A 
ATOM      3  C   UNL     1       3.625  -0.488  -0.734  0.00  0.00    +0.024 A 
ATOM      4  C   UNL     1       2.425   0.181  -0.564  0.00  0.00    +0.041 A 
ATOM      5  C   UNL     1       2.418   1.490  -0.051  0.00  0.00    +0.058 A 
ATOM      6  C   UNL     1       3.622   2.114   0.271  0.00  0.00    +0.015 A 
ATOM      7  C   UNL     1       1.123   2.164   0.146  0.00  0.00    +0.254 C 
ATOM      8  O   UNL     1       1.083   3.346   0.428  0.00  0.00    -0.270 OA
ATOM      9  N   UNL     1      -0.018   1.459   0.010  0.00  0.00    -0.244 N 
ATOM     10  C   UNL     1       0.006   0.005  -0.153  0.00  0.00    +0.198 C 
ATOM     11  N   UNL     1       1.207  -0.405  -0.889  0.00  0.00    -0.321 N 
ATOM     12  H   UNL     1       1.153  -1.073  -1.591  0.00  0.00    +0.148 HD
ENDROOT
BRANCH   9  13
ATOM     13  C   UNL     1      -1.246   2.129   0.019  0.00  0.00    +0.039 A 
ATOM     14  C   UNL     1      -2.102   2.027  -1.069  0.00  0.00    +0.025 A 
ATOM     15  C   UNL     1      -3.316   2.687  -1.055  0.00  0.00    +0.022 A 
ATOM     16  C   UNL     1      -3.674   3.456   0.038  0.00  0.00    +0.041 A 
ATOM     17  C   UNL     1      -2.820   3.564   1.121  0.00  0.00    +0.022 A 
ATOM     18  C   UNL     1      -1.607   2.903   1.115  0.00  0.00    +0.025 A 
ATOM     19 CL   UNL     1      -5.197   4.289   0.049  0.00  0.00    -0.084 Cl
ENDBRANCH   9  13
BRANCH  10  20
ATOM     20  C   UNL     1       0.005  -0.649   1.204  0.00  0.00    -0.009 A 
ATOM     21  C   UNL     1      -0.607  -0.021   2.273  0.00  0.00    +0.010 A 
ATOM     22  C   UNL     1      -0.615  -0.622   3.517  0.00  0.00    +0.046 A 
ATOM     23  C   UNL     1       0.004  -1.851   3.696  0.00  0.00    +0.121 A 
ATOM     24  C   UNL     1       0.623  -2.476   2.624  0.00  0.00    +0.046 A 
ATOM     25  C   UNL     1       0.622  -1.874   1.380  0.00  0.00    +0.010 A 
BRANCH  23  26
ATOM     26  O   UNL     1       0.004  -2.440   4.921  0.00  0.00    -0.483 OA
BRANCH  26  27
ATOM     27  C   UNL     1      -0.652  -1.739   5.979  0.00  0.00    +0.324 C 
BRANCH  27  28
ATOM     28  C   UNL     1      -0.550  -2.540   7.251  0.00  0.00    +0.248 C 
ATOM     29  O   UNL     1       0.027  -3.606   7.252  0.00  0.00    -0.272 OA
ATOM     30  N   UNL     1      -1.101  -2.071   8.389  0.00  0.00    -0.327 N 
ATOM     31  H   UNL     1      -1.563  -1.218   8.388  0.00  0.00    +0.145 HD
ATOM     32  H   UNL     1      -1.036  -2.586   9.208  0.00  0.00    +0.145 HD
ENDBRANCH  27  28
ENDBRANCH  26  27
ENDBRANCH  23  26
ENDBRANCH  10  20
TORSDOF 5
