REMARK  Name = ZINC39937615
REMARK  6 active torsions:
REMARK  status: ('A' for Active; 'I' for Inactive)
REMARK    1  A    between atoms: C_1  and  C_2
REMARK    2  A    between atoms: C_6  and  S_14
REMARK    3  A    between atoms: N_7  and  C_8
REMARK    4  A    between atoms: S_14  and  C_15
REMARK    5  A    between atoms: C_15  and  C_16
REMARK    6  A    between atoms: C_21  and  C_26
REMARK                            x       y       z     vdW  Elec       q    Type
REMARK                         _______ _______ _______ _____ _____    ______ ____
ROOT
ATOM      1  C   UNL     1      -1.554  -2.899   3.808  0.00  0.00    +0.150 C 
ENDROOT
BRANCH   1   2
ATOM      2  C   UNL     1      -1.426  -3.655   5.106  0.00  0.00    +0.134 C 
ATOM      3  N   UNL     1      -0.275  -3.636   5.739  0.00  0.00    -0.160 NA
ATOM      4  C   UNL     1      -0.093  -4.283   6.893  0.00  0.00    +0.272 C 
ATOM      5  O   UNL     1       0.986  -4.250   7.465  0.00  0.00    -0.268 OA
ATOM      6  C   UNL     1      -1.236  -5.045   7.467  0.00  0.00    +0.078 C 
ATOM      7  C   UNL     1      -1.252  -5.777   8.646  0.00  0.00    +0.020 C 
ATOM      8  C   UNL     1      -2.555  -6.460   8.999  0.00  0.00    +0.115 C 
ATOM      9  S   UNL     1      -3.616  -5.964   7.583  0.00  0.00    -0.100 S 
ATOM     10  C   UNL     1      -2.427  -4.992   6.693  0.00  0.00    +0.112 C 
ATOM     11  N   UNL     1      -2.478  -4.309   5.567  0.00  0.00    -0.227 NA
BRANCH   7  12
ATOM     12  C   UNL     1      -0.122  -5.880   9.464  0.00  0.00    +0.132 A 
ATOM     13  C   UNL     1       0.002  -5.389  10.759  0.00  0.00    +0.049 A 
ATOM     14  C   UNL     1       1.290  -5.717  11.186  0.00  0.00    +0.042 A 
ATOM     15  C   UNL     1       1.897  -6.378  10.168  0.00  0.00    +0.195 A 
ATOM     16  O   UNL     1       1.046  -6.479   9.140  0.00  0.00    -0.463 OA
ENDBRANCH   7  12
ENDBRANCH   1   2
BRANCH   1  17
ATOM     17  S   UNL     1       0.027  -2.102   3.415  0.00  0.00    -0.081 S 
BRANCH  17  22
ATOM     18  C   UNL     1      -0.019   1.526   0.010  0.00  0.00    +0.051 C 
ATOM     19  C   UNL     1       0.002  -0.004   0.002  0.00  0.00    +0.174 C 
ATOM     20  N   UNL     1      -1.367  -0.540   0.094  0.00  0.00    -0.247 N 
ATOM     21  N   UNL     1      -1.415  -1.287   1.277  0.00  0.00    -0.163 NA
ATOM     22  C   UNL     1      -0.281  -1.270   1.893  0.00  0.00    +0.176 C 
ATOM     23  N   UNL     1       0.668  -0.518   1.210  0.00  0.00    -0.286 N 
ATOM     24  H   UNL     1      -2.090  -0.403  -0.538  0.00  0.00    +0.170 HD
BRANCH  23  25
ATOM     25  C   UNL     1       2.057  -0.283   1.612  0.00  0.00    +0.077 C 
ATOM     26  C   UNL     1       2.083   0.417   2.972  0.00  0.00    +0.022 C 
ATOM     27  C   UNL     1       3.533   0.664   3.392  0.00  0.00    +0.002 C 
ATOM     28  C   UNL     1       4.269  -0.674   3.493  0.00  0.00    +0.000 C 
ATOM     29  C   UNL     1       4.244  -1.374   2.133  0.00  0.00    +0.002 C 
ATOM     30  C   UNL     1       2.793  -1.620   1.713  0.00  0.00    +0.022 C 
ENDBRANCH  23  25
ENDBRANCH  17  22
ENDBRANCH   1  17
TORSDOF 5
