REMARK  Name = ZINC11910873
REMARK  14 active torsions:
REMARK  status: ('A' for Active; 'I' for Inactive)
REMARK    1  A    between atoms: C_1  and  C_2
REMARK    2  A    between atoms: C_5  and  C_8
REMARK    3  A    between atoms: C_8  and  C_9
REMARK    4  A    between atoms: C_9  and  C_10
REMARK    5  A    between atoms: N_12  and  C_13
REMARK    6  A    between atoms: C_16  and  C_30
REMARK    7  A    between atoms: C_19  and  C_20
REMARK    8  A    between atoms: C_19  and  N_66
REMARK    9  A    between atoms: C_22  and  C_29
REMARK   10  A    between atoms: C_23  and  O_27
REMARK   11  A    between atoms: C_25  and  C_26
REMARK   12  A    between atoms: O_27  and  C_28
REMARK   13  A    between atoms: C_30  and  O_32
REMARK   14  A    between atoms: O_32  and  C_33
REMARK                            x       y       z     vdW  Elec       q    Type
REMARK                         _______ _______ _______ _____ _____    ______ ____
ROOT
ATOM      1  C   UNL     1      -0.120   0.705  -4.939  0.00  0.00    +0.055 C 
ATOM      2  C   UNL     1      -0.892   0.654  -6.284  0.00  0.00    +0.016 C 
ATOM      3  C   UNL     1       0.170   1.098  -7.311  0.00  0.00    +0.045 C 
ATOM      4  C   UNL     1       0.803   1.930  -5.154  0.00  0.00    -0.055 C 
ATOM      5  N   UNL     1       1.201   1.845  -6.573  0.00  0.00    +0.392 N 
ATOM      6  H   UNL     1       2.097   1.348  -6.645  0.00  0.00    -0.080 HD
ENDROOT
BRANCH   1   9
ATOM      7  C   UNL     1      -0.695   0.517  -2.579  0.00  0.00    +0.213 C 
ATOM      8  O   UNL     1       0.369  -0.036  -2.394  0.00  0.00    -0.276 OA
ATOM      9  N   UNL     1      -1.035   0.927  -3.817  0.00  0.00    -0.314 N 
ATOM     10  H   UNL     1      -1.885   1.369  -3.964  0.00  0.00    +0.149 HD
BRANCH   7  11
ATOM     11  C   UNL     1      -1.635   0.745  -1.424  0.00  0.00    +0.100 C 
BRANCH  11  12
ATOM     12  C   UNL     1      -1.013   0.190  -0.141  0.00  0.00    +0.044 C 
BRANCH  12  17
ATOM     13  C   UNL     1      -4.622   1.067   4.286  0.00  0.00    +0.044 C 
ATOM     14  C   UNL     1      -3.680   0.838   3.132  0.00  0.00    -0.050 A 
ATOM     15  C   UNL     1      -3.764  -0.327   2.393  0.00  0.00    +0.003 A 
ATOM     16  C   UNL     1      -2.901  -0.537   1.333  0.00  0.00    +0.004 A 
ATOM     17  C   UNL     1      -1.954   0.418   1.014  0.00  0.00    -0.047 A 
ATOM     18  C   UNL     1      -1.867   1.581   1.756  0.00  0.00    +0.004 A 
ATOM     19  C   UNL     1      -2.733   1.792   2.813  0.00  0.00    +0.003 A 
ENDBRANCH  12  17
ENDBRANCH  11  12
ENDBRANCH   7  11
ENDBRANCH   1   9
BRANCH   3  20
ATOM     20  C   UNL     1      -0.467   1.971  -8.362  0.00  0.00    +0.293 C 
ATOM     21  O   UNL     1      -0.875   3.070  -8.068  0.00  0.00    -0.253 OA
BRANCH  20  22
ATOM     22  O   UNL     1      -0.580   1.529  -9.624  0.00  0.00    -0.469 OA
ATOM     23  C   UNL     1      -1.203   2.423 -10.583  0.00  0.00    +0.280 C 
ENDBRANCH  20  22
ENDBRANCH   3  20
BRANCH   5  24
ATOM     24  C   UNL     1       1.355   3.208  -7.144  0.00  0.00    -0.042 C 
BRANCH  24  25
ATOM     25  C   UNL     1       2.641   3.814  -6.645  0.00  0.00    -0.061 A 
ATOM     26  C   UNL     1       2.618   4.721  -5.602  0.00  0.00    +0.009 A 
ATOM     27  C   UNL     1       3.795   5.278  -5.142  0.00  0.00    -0.009 A 
ATOM     28  C   UNL     1       5.003   4.926  -5.728  0.00  0.00    +0.123 A 
ATOM     29  C   UNL     1       5.024   4.016  -6.775  0.00  0.00    +0.049 A 
ATOM     30  C   UNL     1       3.844   3.457  -7.227  0.00  0.00    -0.046 A 
ATOM     31  C   UNL     1       3.866   2.463  -8.360  0.00  0.00    +0.044 C 
ATOM     32  C   UNL     1       3.769   6.266  -4.005  0.00  0.00    +0.047 C 
BRANCH  28  33
ATOM     33  O   UNL     1       6.162   5.472  -5.278  0.00  0.00    -0.495 OA
ATOM     34  C   UNL     1       7.368   5.064  -5.929  0.00  0.00    +0.277 C 
ENDBRANCH  28  33
ENDBRANCH  24  25
ENDBRANCH   5  24
TORSDOF 9
