REMARK  Name = ZINC66955306
REMARK  7 active torsions:
REMARK  status: ('A' for Active; 'I' for Inactive)
REMARK    1  A    between atoms: C_1  and  C_2
REMARK    2  A    between atoms: C_2  and  C_4
REMARK    3  A    between atoms: C_2  and  S_7
REMARK    4  A    between atoms: C_4  and  C_5
REMARK    5  A    between atoms: S_7  and  C_8
REMARK    6  A    between atoms: C_13  and  N_14
REMARK    7  A    between atoms: N_17  and  C_18
REMARK                            x       y       z     vdW  Elec       q    Type
REMARK                         _______ _______ _______ _____ _____    ______ ____
ROOT
ATOM      1  N   UNL     1       2.701  -1.051  -3.599  0.00  0.00    -0.268 N 
ATOM      2  C   UNL     1       3.450  -1.233  -4.705  0.00  0.00    +0.304 C 
ATOM      3  O   UNL     1       4.629  -0.936  -4.697  0.00  0.00    -0.252 OA
ATOM      4  N   UNL     1       2.891  -1.743  -5.820  0.00  0.00    -0.292 N 
ATOM      5  H   UNL     1       1.783  -1.363  -3.578  0.00  0.00    +0.156 HD
ATOM      6  H   UNL     1       1.950  -1.980  -5.827  0.00  0.00    +0.151 HD
ENDROOT
BRANCH   4   7
ATOM      7  C   UNL     1       3.704  -1.940  -7.023  0.00  0.00    +0.105 C 
ATOM      8  C   UNL     1       2.808  -1.954  -8.279  0.00  0.00    +0.032 C 
ATOM      9  C   UNL     1       2.505  -3.457  -8.454  0.00  0.00    +0.037 C 
ATOM     10  C   UNL     1       3.675  -4.174  -7.816  0.00  0.00    -0.042 A 
ATOM     11  C   UNL     1       4.366  -3.301  -6.991  0.00  0.00    -0.021 A 
ATOM     12  C   UNL     1       5.481  -3.740  -6.298  0.00  0.00    +0.044 A 
ATOM     13  C   UNL     1       5.909  -5.050  -6.426  0.00  0.00    +0.124 A 
ATOM     14  C   UNL     1       5.220  -5.923  -7.249  0.00  0.00    +0.038 A 
ATOM     15  C   UNL     1       4.102  -5.485  -7.944  0.00  0.00    +0.007 A 
ATOM     16  F   UNL     1       6.998  -5.475  -5.749  0.00  0.00    -0.205 F 
ENDBRANCH   4   7
BRANCH   1  22
ATOM     17  C   UNL     1       2.726  -0.653  -1.208  0.00  0.00    +0.029 A 
ATOM     18  C   UNL     1       3.277  -0.021  -0.103  0.00  0.00    +0.016 A 
ATOM     19  C   UNL     1       4.340   0.849  -0.263  0.00  0.00    +0.001 A 
ATOM     20  C   UNL     1       4.856   1.092  -1.523  0.00  0.00    +0.002 A 
ATOM     21  C   UNL     1       4.312   0.467  -2.630  0.00  0.00    +0.024 A 
ATOM     22  C   UNL     1       3.250  -0.412  -2.478  0.00  0.00    +0.048 A 
BRANCH  17  23
ATOM     23  S   UNL     1       1.372  -1.762  -1.008  0.00  0.00    -0.119 S 
BRANCH  23  25
ATOM     24  C   UNL     1       0.328  -0.257   1.024  0.00  0.00    +0.020 C 
ATOM     25  C   UNL     1       0.951  -1.627   0.752  0.00  0.00    +0.062 C 
BRANCH  25  26
ATOM     26  C   UNL     1      -0.049  -2.724   1.123  0.00  0.00    +0.132 C 
BRANCH  26  27
ATOM     27  C   UNL     1       0.591  -4.042   0.975  0.00  0.00    +0.064 C 
ATOM     28  N   UNL     1       1.085  -5.059   0.861  0.00  0.00    -0.197 NA
ENDBRANCH  26  27
ENDBRANCH  25  26
ENDBRANCH  23  25
ENDBRANCH  17  23
ENDBRANCH   1  22
TORSDOF 6
