REMARK  Name = ZINC40744373
REMARK  12 active torsions:
REMARK  status: ('A' for Active; 'I' for Inactive)
REMARK    1  A    between atoms: C_1  and  C_2
REMARK    2  A    between atoms: C_5  and  C_8
REMARK    3  A    between atoms: C_8  and  O_9
REMARK    4  A    between atoms: O_9  and  C_10
REMARK    5  A    between atoms: C_11  and  O_30
REMARK    6  A    between atoms: C_13  and  C_17
REMARK    7  A    between atoms: C_17  and  N_18
REMARK    8  A    between atoms: N_18  and  C_19
REMARK    9  A    between atoms: C_19  and  C_20
REMARK   10  A    between atoms: C_20  and  N_21
REMARK   11  A    between atoms: C_22  and  C_24
REMARK   12  A    between atoms: O_30  and  C_31
REMARK                            x       y       z     vdW  Elec       q    Type
REMARK                         _______ _______ _______ _____ _____    ______ ____
ROOT
ATOM      1  C   UNL     1       1.608  -6.080  -0.040  0.00  0.00    +0.176 A 
ATOM      2  C   UNL     1       1.710  -6.778   1.160  0.00  0.00    +0.163 A 
ATOM      3  C   UNL     1       1.909  -8.149   1.146  0.00  0.00    +0.051 A 
ATOM      4  C   UNL     1       2.007  -8.821  -0.058  0.00  0.00    -0.060 A 
ATOM      5  C   UNL     1       1.907  -8.129  -1.250  0.00  0.00    +0.021 A 
ATOM      6  C   UNL     1       1.702  -6.761  -1.244  0.00  0.00    +0.063 A 
ATOM      7 BR   UNL     1       1.557  -5.819  -2.877  0.00  0.00    -0.046 Br
ENDROOT
BRANCH   2   8
ATOM      8  O   UNL     1       1.614  -6.115   2.344  0.00  0.00    -0.491 OA
ATOM      9  C   UNL     1       1.727  -6.895   3.535  0.00  0.00    +0.277 C 
ENDBRANCH   2   8
BRANCH   1  10
ATOM     10  O   UNL     1       1.413  -4.734  -0.032  0.00  0.00    -0.483 OA
BRANCH  10  11
ATOM     11  C   UNL     1       0.059  -4.275  -0.021  0.00  0.00    +0.264 C 
BRANCH  11  16
ATOM     12  C   UNL     1      -0.018   1.503   0.010  0.00  0.00    +0.044 C 
ATOM     13  C   UNL     1       0.002  -0.004   0.002  0.00  0.00    -0.050 A 
ATOM     14  C   UNL     1       0.006  -0.689  -1.199  0.00  0.00    +0.004 A 
ATOM     15  C   UNL     1       0.025  -2.071  -1.206  0.00  0.00    +0.007 A 
ATOM     16  C   UNL     1       0.040  -2.768  -0.013  0.00  0.00    -0.010 A 
ATOM     17  C   UNL     1       0.037  -2.084   1.188  0.00  0.00    +0.007 A 
ATOM     18  C   UNL     1       0.023  -0.702   1.195  0.00  0.00    +0.004 A 
ENDBRANCH  11  16
ENDBRANCH  10  11
ENDBRANCH   1  10
BRANCH   4  19
ATOM     19  C   UNL     1       2.224 -10.313  -0.070  0.00  0.00    -0.047 C 
BRANCH  19  20
ATOM     20  N   UNL     1       0.923 -10.996  -0.074  0.00  0.00    +0.383 N 
ATOM     21  H   UNL     1       0.405 -10.739   0.752  0.00  0.00    -0.085 HD
ATOM     22  H   UNL     1       0.403 -10.725  -0.895  0.00  0.00    -0.085 HD
BRANCH  20  23
ATOM     23  C   UNL     1       1.135 -12.450  -0.086  0.00  0.00    -0.063 C 
BRANCH  23  24
ATOM     24  C   UNL     1      -0.220 -13.162  -0.091  0.00  0.00    +0.085 C 
BRANCH  24  25
ATOM     25  N   UNL     1      -0.009 -14.612  -0.103  0.00  0.00    -0.312 N 
ATOM     26  C   UNL     1      -1.067 -15.447  -0.109  0.00  0.00    +0.269 C 
ATOM     27  O   UNL     1      -2.196 -14.997  -0.104  0.00  0.00    -0.268 OA
ATOM     28  H   UNL     1       0.892 -14.971  -0.107  0.00  0.00    +0.149 HD
BRANCH  26  29
ATOM     29  C   UNL     1      -0.854 -16.913  -0.121  0.00  0.00    +0.209 A 
ATOM     30  C   UNL     1      -1.907 -17.934  -0.134  0.00  0.00    +0.192 A 
ATOM     31  N   UNL     1      -1.338 -19.109  -0.142  0.00  0.00    -0.033 NA
ATOM     32  O   UNL     1       0.065 -18.914  -0.135  0.00  0.00    -0.240 OA
ATOM     33  N   UNL     1       0.305 -17.518  -0.128  0.00  0.00    -0.042 NA
ATOM     34  N   UNL     1      -3.274 -17.693  -0.137  0.00  0.00    -0.339 N 
ATOM     35  H   UNL     1      -3.605 -16.781  -0.130  0.00  0.00    +0.144 HD
ATOM     36  H   UNL     1      -3.897 -18.436  -0.146  0.00  0.00    +0.144 HD
ENDBRANCH  26  29
ENDBRANCH  24  25
ENDBRANCH  23  24
ENDBRANCH  20  23
ENDBRANCH  19  20
ENDBRANCH   4  19
TORSDOF 10
