REMARK  Name = ZINC24880728
REMARK  9 active torsions:
REMARK  status: ('A' for Active; 'I' for Inactive)
REMARK    1  A    between atoms: C_1  and  C_2
REMARK    2  A    between atoms: C_2  and  C_4
REMARK    3  A    between atoms: C_2  and  N_16
REMARK    4  A    between atoms: N_6  and  C_7
REMARK    5  A    between atoms: N_19  and  C_22
REMARK    6  A    between atoms: C_22  and  C_24
REMARK    7  A    between atoms: C_22  and  C_31
REMARK    8  A    between atoms: C_31  and  O_33
REMARK    9  A    between atoms: O_33  and  C_34
REMARK                            x       y       z     vdW  Elec       q    Type
REMARK                         _______ _______ _______ _____ _____    ______ ____
ROOT
ATOM      1  N   UNL     1       1.557  -3.347  -1.304  0.00  0.00    +0.389 N 
ATOM      2  C   UNL     1       0.847  -3.773  -0.089  0.00  0.00    -0.062 C 
ATOM      3  C   UNL     1       1.317  -5.173   0.309  0.00  0.00    +0.067 C 
ATOM      4  N   UNL     1       2.770  -5.155   0.531  0.00  0.00    -0.290 NA
ATOM      5  C   UNL     1       3.480  -4.729  -0.683  0.00  0.00    +0.067 C 
ATOM      6  C   UNL     1       3.009  -3.328  -1.082  0.00  0.00    -0.062 C 
ATOM      7  H   UNL     1       1.343  -4.080  -2.096  0.00  0.00    -0.081 HD
ENDROOT
BRANCH   1   9
ATOM      8  C   UNL     1       1.627  -0.943  -0.843  0.00  0.00    -0.004 C 
ATOM      9  C   UNL     1       1.077  -2.036  -1.762  0.00  0.00    +0.017 C 
BRANCH   9  10
ATOM     10  C   UNL     1       1.550  -1.793  -3.172  0.00  0.00    +0.203 C 
ATOM     11  O   UNL     1       2.406  -2.503  -3.655  0.00  0.00    -0.277 OA
ATOM     12  N   UNL     1       1.021  -0.786  -3.895  0.00  0.00    -0.284 N 
ATOM     13  H   UNL     1       0.292  -0.103  -3.436  0.00  0.00    +0.155 HD
BRANCH  12  14
ATOM     14  C   UNL     1       1.401  -0.610  -5.233  0.00  0.00    +0.072 A 
ATOM     15  C   UNL     1       2.652  -1.033  -5.662  0.00  0.00    +0.029 A 
ATOM     16  C   UNL     1       3.028  -0.854  -6.979  0.00  0.00    +0.043 A 
ATOM     17  C   UNL     1       2.155  -0.263  -7.876  0.00  0.00    +0.161 A 
ATOM     18  C   UNL     1       0.904   0.161  -7.453  0.00  0.00    +0.195 A 
ATOM     19  C   UNL     1       0.526  -0.012  -6.132  0.00  0.00    +0.182 A 
ATOM     20  F   UNL     1      -0.692   0.400  -5.718  0.00  0.00    -0.200 F 
ATOM     21  F   UNL     1       0.056   0.743  -8.328  0.00  0.00    -0.199 F 
ATOM     22  F   UNL     1       2.524  -0.094  -9.165  0.00  0.00    -0.202 F 
ENDBRANCH  12  14
ENDBRANCH   9  10
ENDBRANCH   1   9
BRANCH   4  23
ATOM     23  C   UNL     1       3.249  -6.466   0.989  0.00  0.00    +0.198 C 
BRANCH  23  24
ATOM     24  C   UNL     1       4.710  -6.369   1.345  0.00  0.00    -0.001 A 
ATOM     25  C   UNL     1       5.244  -5.162   1.756  0.00  0.00    +0.007 A 
ATOM     26  C   UNL     1       6.583  -5.075   2.088  0.00  0.00    +0.000 A 
ATOM     27  C   UNL     1       7.392  -6.192   1.999  0.00  0.00    +0.001 A 
ATOM     28  C   UNL     1       6.861  -7.399   1.583  0.00  0.00    +0.020 A 
ATOM     29  C   UNL     1       5.519  -7.488   1.256  0.00  0.00    +0.046 A 
ATOM     30 CL   UNL     1       4.852  -9.003   0.733  0.00  0.00    -0.083 Cl
ENDBRANCH  23  24
BRANCH  23  31
ATOM     31  C   UNL     1       2.463  -6.893   2.201  0.00  0.00    +0.329 C 
ATOM     32  O   UNL     1       2.003  -6.060   2.947  0.00  0.00    -0.249 OA
BRANCH  31  33
ATOM     33  O   UNL     1       2.274  -8.197   2.453  0.00  0.00    -0.467 OA
ATOM     34  C   UNL     1       1.507  -8.535   3.639  0.00  0.00    +0.280 C 
ENDBRANCH  31  33
ENDBRANCH  23  31
ENDBRANCH   4  23
TORSDOF 7
