REMARK  Name = ZINC15787289
REMARK  6 active torsions:
REMARK  status: ('A' for Active; 'I' for Inactive)
REMARK    1  A    between atoms: C_4  and  C_7
REMARK    2  A    between atoms: C_7  and  C_8
REMARK    3  A    between atoms: C_13  and  C_14
REMARK    4  A    between atoms: C_13  and  N_60
REMARK    5  A    between atoms: C_14  and  N_15
REMARK    6  A    between atoms: N_18  and  C_19
REMARK                            x       y       z     vdW  Elec       q    Type
REMARK                         _______ _______ _______ _____ _____    ______ ____
ROOT
ATOM      1  C   UNL     1       2.422   1.186  -0.015  0.00  0.00    +0.087 C 
ENDROOT
BRANCH   1   2
ATOM      2  N   UNL     1       1.143   1.901   0.001  0.00  0.00    -0.301 N 
ATOM      3  C   UNL     1      -0.014   1.212   0.009  0.00  0.00    +0.300 C 
ATOM      4  O   UNL     1       0.002  -0.004   0.002  0.00  0.00    -0.253 OA
ATOM      5  N   UNL     1      -1.191   1.870   0.018  0.00  0.00    -0.293 N 
ATOM      6  H   UNL     1       1.130   2.871   0.007  0.00  0.00    +0.150 HD
ATOM      7  H   UNL     1      -1.204   2.840   0.023  0.00  0.00    +0.151 HD
BRANCH   5   8
ATOM      8  C   UNL     1      -2.449   1.120   0.020  0.00  0.00    +0.116 C 
ATOM      9  C   UNL     1      -3.570   1.992  -0.553  0.00  0.00    +0.064 C 
ATOM     10  C   UNL     1      -4.905   1.345  -0.282  0.00  0.00    -0.004 A 
ATOM     11  C   UNL     1      -6.005   1.756  -1.016  0.00  0.00    +0.007 A 
ATOM     12  C   UNL     1      -7.245   1.191  -0.789  0.00  0.00    +0.000 A 
ATOM     13  C   UNL     1      -7.391   0.209   0.174  0.00  0.00    +0.004 A 
ATOM     14  C   UNL     1      -6.298  -0.205   0.907  0.00  0.00    +0.046 A 
ATOM     15  C   UNL     1      -5.047   0.361   0.680  0.00  0.00    +0.124 A 
ATOM     16  O   UNL     1      -3.994  -0.076   1.419  0.00  0.00    -0.490 OA
ATOM     17  C   UNL     1      -2.822   0.739   1.458  0.00  0.00    +0.251 C 
ENDBRANCH   5   8
ENDBRANCH   1   2
BRANCH   1  18
ATOM     18  C   UNL     1       3.571   2.196  -0.020  0.00  0.00    -0.060 C 
BRANCH  18  24
ATOM     19  C   UNL     1       7.327   0.499  -1.157  0.00  0.00    -0.010 C 
ATOM     20  C   UNL     1       7.295   1.648  -0.146  0.00  0.00    -0.015 C 
ATOM     21  C   UNL     1       5.969   2.402  -0.280  0.00  0.00    -0.078 C 
ATOM     22  C   UNL     1       4.836   0.393  -1.025  0.00  0.00    -0.078 C 
ATOM     23  C   UNL     1       6.128  -0.420  -0.913  0.00  0.00    -0.015 C 
ATOM     24  N   UNL     1       4.856   1.467  -0.009  0.00  0.00    +0.381 N 
ATOM     25  H   UNL     1       4.993   1.046   0.918  0.00  0.00    -0.082 HD
BRANCH  19  26
ATOM     26  C   UNL     1       8.624  -0.295  -0.987  0.00  0.00    +0.038 C 
BRANCH  26  30
ATOM     27  C   UNL     1       8.876  -3.281  -4.031  0.00  0.00    +0.000 A 
ATOM     28  C   UNL     1       9.403  -2.022  -4.252  0.00  0.00    +0.000 A 
ATOM     29  C   UNL     1       9.322  -1.056  -3.267  0.00  0.00    +0.003 A 
ATOM     30  C   UNL     1       8.713  -1.349  -2.061  0.00  0.00    -0.047 A 
ATOM     31  C   UNL     1       8.189  -2.608  -1.839  0.00  0.00    +0.003 A 
ATOM     32  C   UNL     1       8.267  -3.573  -2.825  0.00  0.00    +0.000 A 
ENDBRANCH  26  30
ENDBRANCH  19  26
ENDBRANCH  18  24
ENDBRANCH   1  18
TORSDOF 6
