REMARK  Name = ZINC08926111
REMARK  17 active torsions:
REMARK  status: ('A' for Active; 'I' for Inactive)
REMARK    1  A    between atoms: C_1  and  C_2
REMARK    2  A    between atoms: C_2  and  C_3
REMARK    3  A    between atoms: C_2  and  C_4
REMARK    4  A    between atoms: C_2  and  N_5
REMARK    5  A    between atoms: N_5  and  C_6
REMARK    6  A    between atoms: N_5  and  C_16
REMARK    7  A    between atoms: C_6  and  C_7
REMARK    8  A    between atoms: C_10  and  N_13
REMARK    9  A    between atoms: C_16  and  C_17
REMARK   10  A    between atoms: C_17  and  C_19
REMARK   11  A    between atoms: C_17  and  O_36
REMARK   12  A    between atoms: C_19  and  O_20
REMARK   13  A    between atoms: O_20  and  C_21
REMARK   14  A    between atoms: C_27  and  C_31
REMARK   15  A    between atoms: C_31  and  C_32
REMARK   16  A    between atoms: C_32  and  O_34
REMARK   17  A    between atoms: O_34  and  C_35
REMARK                            x       y       z     vdW  Elec       q    Type
REMARK                         _______ _______ _______ _____ _____    ______ ____
ROOT
ATOM      1  C   UNL     1      -1.495  -1.335  -2.566  0.00  0.00    +0.135 C 
ENDROOT
BRANCH   1   2
ATOM      2  O   UNL     1      -2.327  -0.386  -1.895  0.00  0.00    -0.390 OA
ATOM      3  H   UNL     1      -2.237   0.518  -2.225  0.00  0.00    +0.210 HD
ENDBRANCH   1   2
BRANCH   1   4
ATOM      4  C   UNL     1      -0.025  -0.991  -2.317  0.00  0.00    -0.043 C 
BRANCH   4   5
ATOM      5  N   UNL     1       0.468  -1.753  -1.162  0.00  0.00    +0.387 N 
ATOM      6  H   UNL     1       0.432  -2.740  -1.371  0.00  0.00    -0.080 HD
BRANCH   5   8
ATOM      7  C   UNL     1      -0.731   0.018   0.031  0.00  0.00    -0.010 C 
ATOM      8  C   UNL     1      -0.375  -1.470   0.007  0.00  0.00    -0.074 C 
ATOM      9  C   UNL     1       0.386  -1.832   1.284  0.00  0.00    -0.010 C 
ATOM     10  C   UNL     1      -1.657  -2.300  -0.075  0.00  0.00    -0.010 C 
ENDBRANCH   5   8
BRANCH   5  11
ATOM     11  C   UNL     1       1.854  -1.363  -0.873  0.00  0.00    -0.042 C 
BRANCH  11  12
ATOM     12  C   UNL     1       2.492  -2.397   0.018  0.00  0.00    -0.064 A 
ATOM     13  C   UNL     1       2.617  -2.159   1.374  0.00  0.00    +0.004 A 
ATOM     14  C   UNL     1       3.202  -3.108   2.191  0.00  0.00    +0.033 A 
ATOM     15  C   UNL     1       3.662  -4.295   1.652  0.00  0.00    +0.126 A 
ATOM     16  C   UNL     1       3.536  -4.534   0.296  0.00  0.00    +0.033 A 
ATOM     17  C   UNL     1       2.947  -3.587  -0.520  0.00  0.00    +0.004 A 
BRANCH  15  18
ATOM     18  N   UNL     1       4.290  -5.311   2.527  0.00  0.00    +0.056 N 
ATOM     19  O   UNL     1       4.400  -5.103   3.712  0.00  0.00    -0.126 OA
ATOM     20  O   UNL     1       4.691  -6.350   2.055  0.00  0.00    -0.126 OA
ENDBRANCH  15  18
ENDBRANCH  11  12
ENDBRANCH   5  11
ENDBRANCH   4   5
ENDBRANCH   1   4
BRANCH   1  21
ATOM     21  C   UNL     1      -1.782  -1.292  -4.068  0.00  0.00    +0.258 C 
BRANCH  21  22
ATOM     22  O   UNL     1      -3.122  -1.726  -4.310  0.00  0.00    -0.489 OA
BRANCH  22  23
ATOM     23  C   UNL     1      -3.539  -1.747  -5.603  0.00  0.00    +0.130 A 
ATOM     24  C   UNL     1      -2.682  -1.366  -6.617  0.00  0.00    +0.046 A 
ATOM     25  C   UNL     1      -3.106  -1.387  -7.938  0.00  0.00    +0.006 A 
ATOM     26  C   UNL     1      -4.385  -1.787  -8.260  0.00  0.00    +0.026 A 
ATOM     27  C   UNL     1      -5.267  -2.175  -7.256  0.00  0.00    +0.050 A 
ATOM     28  C   UNL     1      -4.840  -2.161  -5.917  0.00  0.00    +0.045 A 
ATOM     29  C   UNL     1      -5.980  -2.623  -5.122  0.00  0.00    -0.008 A 
ATOM     30  C   UNL     1      -6.978  -2.883  -5.981  0.00  0.00    +0.088 A 
ATOM     31  N   UNL     1      -6.572  -2.613  -7.261  0.00  0.00    -0.360 N 
ATOM     32  H   UNL     1      -7.120  -2.724  -8.054  0.00  0.00    +0.165 HD
BRANCH  29  33
ATOM     33  C   UNL     1      -6.024  -2.779  -3.623  0.00  0.00    +0.157 C 
BRANCH  33  34
ATOM     34  C   UNL     1      -6.375  -1.457  -2.991  0.00  0.00    +0.311 C 
ATOM     35  O   UNL     1      -6.570  -0.488  -3.686  0.00  0.00    -0.250 OA
BRANCH  34  36
ATOM     36  O   UNL     1      -6.472  -1.356  -1.656  0.00  0.00    -0.468 OA
ATOM     37  C   UNL     1      -6.809  -0.072  -1.125  0.00  0.00    +0.280 C 
ENDBRANCH  34  36
ENDBRANCH  33  34
ENDBRANCH  29  33
ENDBRANCH  22  23
ENDBRANCH  21  22
ENDBRANCH   1  21
TORSDOF 13
