REMARK  Name = ZINC12833916
REMARK  9 active torsions:
REMARK  status: ('A' for Active; 'I' for Inactive)
REMARK    1  A    between atoms: C_1  and  C_2
REMARK    2  A    between atoms: C_4  and  C_17
REMARK    3  A    between atoms: C_6  and  C_12
REMARK    4  A    between atoms: N_9  and  C_11
REMARK    5  A    between atoms: C_17  and  O_19
REMARK    6  A    between atoms: O_19  and  C_20
REMARK    7  A    between atoms: C_20  and  C_21
REMARK    8  A    between atoms: N_23  and  C_24
REMARK    9  A    between atoms: C_24  and  C_30
REMARK                            x       y       z     vdW  Elec       q    Type
REMARK                         _______ _______ _______ _____ _____    ______ ____
ROOT
ATOM      1  C   UNL     1       8.370   1.764   0.887  0.00  0.00    +0.068 C 
ATOM      2  C   UNL     1       8.681   1.363   2.306  0.00  0.00    +0.070 A 
ATOM      3  C   UNL     1       7.827   1.533   3.415  0.00  0.00    +0.055 A 
ATOM      4  C   UNL     1       6.529   2.075   3.577  0.00  0.00    +0.073 A 
ATOM      5  C   UNL     1       5.977   2.075   4.851  0.00  0.00    +0.044 A 
ATOM      6  C   UNL     1       6.718   1.550   5.919  0.00  0.00    +0.081 A 
ATOM      7  N   UNL     1       7.933   1.054   5.737  0.00  0.00    -0.227 NA
ATOM      8  C   UNL     1       8.507   1.029   4.543  0.00  0.00    +0.160 A 
ATOM      9  N   UNL     1       9.723   0.583   4.094  0.00  0.00    -0.249 N 
ATOM     10  N   UNL     1       9.784   0.801   2.712  0.00  0.00    -0.174 NA
ATOM     11  C   UNL     1      10.770  -0.029   4.915  0.00  0.00    +0.174 C 
ENDROOT
BRANCH   6  12
ATOM     12  C   UNL     1       6.133   1.550   7.274  0.00  0.00    +0.038 A 
ATOM     13  C   UNL     1       6.671   1.088   8.447  0.00  0.00    +0.017 A 
ATOM     14  C   UNL     1       5.931   1.198   9.602  0.00  0.00    +0.008 A 
ATOM     15  C   UNL     1       4.691   1.749   9.544  0.00  0.00    +0.046 A 
ATOM     16  S   UNL     1       4.537   2.144   7.810  0.00  0.00    -0.095 S 
ENDBRANCH   6  12
BRANCH   4  17
ATOM     17  C   UNL     1       5.782   2.618   2.423  0.00  0.00    +0.340 C 
ATOM     18  O   UNL     1       6.367   3.244   1.562  0.00  0.00    -0.245 OA
BRANCH  17  19
ATOM     19  O   UNL     1       4.454   2.418   2.327  0.00  0.00    -0.452 OA
BRANCH  19  20
ATOM     20  C   UNL     1       3.785   2.981   1.167  0.00  0.00    +0.328 C 
BRANCH  20  21
ATOM     21  C   UNL     1       2.314   2.659   1.230  0.00  0.00    +0.252 C 
ATOM     22  O   UNL     1       1.873   2.018   2.161  0.00  0.00    -0.272 OA
ATOM     23  N   UNL     1       1.489   3.082   0.252  0.00  0.00    -0.295 N 
ATOM     24  H   UNL     1       1.842   3.594  -0.492  0.00  0.00    +0.150 HD
BRANCH  23  25
ATOM     25  C   UNL     1       0.059   2.769   0.313  0.00  0.00    +0.121 C 
ATOM     26  C   UNL     1      -0.540   3.368   1.587  0.00  0.00    +0.041 C 
ATOM     27  C   UNL     1      -2.033   3.041   1.652  0.00  0.00    +0.003 C 
ATOM     28  C   UNL     1      -2.738   3.634   0.429  0.00  0.00    +0.000 C 
ATOM     29  C   UNL     1      -2.139   3.035  -0.845  0.00  0.00    +0.003 C 
ATOM     30  C   UNL     1      -0.645   3.361  -0.909  0.00  0.00    +0.041 C 
BRANCH  25  31
ATOM     31  C   UNL     1      -0.123   1.309   0.325  0.00  0.00    +0.088 C 
ATOM     32  N   UNL     1      -0.264   0.181   0.334  0.00  0.00    -0.194 NA
ENDBRANCH  25  31
ENDBRANCH  23  25
ENDBRANCH  20  21
ENDBRANCH  19  20
ENDBRANCH  17  19
ENDBRANCH   4  17
TORSDOF 7
