REMARK  Name = ZINC42952080
REMARK  6 active torsions:
REMARK  status: ('A' for Active; 'I' for Inactive)
REMARK    1  A    between atoms: C_1  and  C_2
REMARK    2  A    between atoms: C_2  and  C_3
REMARK    3  A    between atoms: C_3  and  C_5
REMARK    4  A    between atoms: C_3  and  N_21
REMARK    5  A    between atoms: C_5  and  C_7
REMARK    6  A    between atoms: C_5  and  N_14
REMARK                            x       y       z     vdW  Elec       q    Type
REMARK                         _______ _______ _______ _____ _____    ______ ____
ROOT
ATOM      1  C   UNL     1       0.872  -2.034   1.171  0.00  0.00    +0.073 C 
ENDROOT
BRANCH   1   2
ATOM      2  N   UNL     1       1.707  -2.196  -0.027  0.00  0.00    -0.287 NA
ATOM      3  C   UNL     1       1.696  -3.592  -0.493  0.00  0.00    +0.104 C 
ATOM      4  C   UNL     1       2.312  -3.647  -1.892  0.00  0.00    +0.119 C 
ATOM      5  N   UNL     1       3.595  -2.949  -1.902  0.00  0.00    -0.313 N 
ATOM      6  C   UNL     1       3.954  -2.076  -0.955  0.00  0.00    +0.227 C 
ATOM      7  O   UNL     1       5.026  -1.517  -1.056  0.00  0.00    -0.274 OA
ATOM      8  C   UNL     1       3.086  -1.758   0.230  0.00  0.00    +0.181 C 
ATOM      9  H   UNL     1       4.214  -3.127  -2.627  0.00  0.00    +0.149 HD
ENDBRANCH   1   2
BRANCH   1  10
ATOM     10  C   UNL     1       1.461  -2.831   2.306  0.00  0.00    -0.032 A 
ATOM     11  C   UNL     1       2.573  -2.359   2.978  0.00  0.00    +0.006 A 
ATOM     12  C   UNL     1       3.114  -3.089   4.019  0.00  0.00    +0.015 A 
ATOM     13  C   UNL     1       2.542  -4.293   4.389  0.00  0.00    +0.018 A 
ATOM     14  C   UNL     1       1.430  -4.766   3.716  0.00  0.00    +0.015 A 
ATOM     15  C   UNL     1       0.886  -4.032   2.679  0.00  0.00    +0.006 A 
ATOM     16 BR   UNL     1       3.282  -5.294   5.813  0.00  0.00    -0.050 Br
ENDBRANCH   1  10
BRANCH   1  17
ATOM     17  C   UNL     1       0.819  -0.555   1.560  0.00  0.00    -0.053 C 
BRANCH  17  18
ATOM     18  N   UNL     1      -0.016  -0.393   2.757  0.00  0.00    +0.381 N 
ATOM     19  H   UNL     1      -0.950  -0.723   2.564  0.00  0.00    -0.090 HD
ATOM     20  H   UNL     1       0.379  -0.927   3.517  0.00  0.00    -0.090 HD
ATOM     21  H   UNL     1      -0.051   0.582   3.014  0.00  0.00    -0.090 HD
ENDBRANCH  17  18
BRANCH  17  23
ATOM     22  C   UNL     1       0.282   1.745   0.746  0.00  0.00    +0.002 C 
ATOM     23  C   UNL     1       0.221   0.254   0.408  0.00  0.00    -0.018 C 
ENDBRANCH  17  23
ENDBRANCH   1  17
TORSDOF 5
