REMARK  Name = ZINC66739650
REMARK  2 active torsions:
REMARK  status: ('A' for Active; 'I' for Inactive)
REMARK    1  A    between atoms: C_2  and  C_3
REMARK    2  A    between atoms: C_3  and  N_4
REMARK                            x       y       z     vdW  Elec       q    Type
REMARK                         _______ _______ _______ _____ _____    ______ ____
ROOT
ATOM      1  N   UNL     1       1.357   1.975  -0.000  0.00  0.00    -0.256 N 
ATOM      2  C   UNL     1       2.095   2.231   1.141  0.00  0.00    +0.045 A 
ATOM      3  C   UNL     1       1.734   2.082   2.482  0.00  0.00    +0.025 A 
ATOM      4  C   UNL     1       2.682   2.419   3.435  0.00  0.00    +0.017 A 
ATOM      5  C   UNL     1       3.935   2.884   3.087  0.00  0.00    +0.018 A 
ATOM      6  C   UNL     1       4.307   3.037   1.755  0.00  0.00    +0.025 A 
ATOM      7  C   UNL     1       3.369   2.703   0.802  0.00  0.00    +0.025 A 
ATOM      8  C   UNL     1       3.418   2.741  -0.694  0.00  0.00    +0.207 C 
ATOM      9  C   UNL     1       2.053   2.241  -1.124  0.00  0.00    +0.267 C 
ATOM     10  O   UNL     1       1.661   2.108  -2.264  0.00  0.00    -0.271 OA
ATOM     11  N   UNL     1       4.451   1.836  -1.203  0.00  0.00    -0.297 N 
ATOM     12  C   UNL     1       5.770   2.261  -1.201  0.00  0.00    +0.133 A 
ATOM     13  C   UNL     1       6.015   3.643  -1.316  0.00  0.00    +0.076 A 
ATOM     14  C   UNL     1       7.330   4.105  -1.309  0.00  0.00    +0.018 A 
ATOM     15  C   UNL     1       8.346   3.168  -1.193  0.00  0.00    +0.021 A 
ATOM     16  C   UNL     1       8.028   1.826  -1.088  0.00  0.00    +0.113 A 
ATOM     17  N   UNL     1       6.774   1.412  -1.095  0.00  0.00    -0.240 NA
ATOM     18  C   UNL     1       4.870   4.560  -1.444  0.00  0.00    +0.250 C 
ATOM     19  O   UNL     1       5.040   5.714  -1.788  0.00  0.00    -0.270 OA
ATOM     20  N   UNL     1       3.628   4.103  -1.177  0.00  0.00    -0.279 N 
ATOM     21 BR   UNL     1       5.172   3.322   4.449  0.00  0.00    -0.050 Br
ATOM     22  H   UNL     1       4.216   0.955  -1.535  0.00  0.00    +0.150 HD
ATOM     23  H   UNL     1       2.865   4.687  -1.306  0.00  0.00    +0.152 HD
ENDROOT
BRANCH   1  24
ATOM     24  C   UNL     1      -0.018   1.468   0.010  0.00  0.00    +0.202 C 
BRANCH  24  26
ATOM     25  C   UNL     1       0.018  -1.178  -0.004  0.00  0.00    +0.005 C 
ATOM     26  C   UNL     1       0.002  -0.004   0.002  0.00  0.00    -0.086 C 
ENDBRANCH  24  26
ENDBRANCH   1  24
TORSDOF 2
