REMARK  Name = ZINC41585368
REMARK  10 active torsions:
REMARK  status: ('A' for Active; 'I' for Inactive)
REMARK    1  A    between atoms: C_1  and  C_2
REMARK    2  A    between atoms: C_2  and  O_3
REMARK    3  A    between atoms: O_3  and  C_4
REMARK    4  A    between atoms: C_9  and  O_10
REMARK    5  A    between atoms: O_10  and  C_11
REMARK    6  A    between atoms: C_12  and  C_37
REMARK    7  A    between atoms: C_20  and  O_36
REMARK    8  A    between atoms: C_21  and  C_22
REMARK    9  A    between atoms: C_22  and  N_23
REMARK   10  A    between atoms: N_26  and  C_29
REMARK                            x       y       z     vdW  Elec       q    Type
REMARK                         _______ _______ _______ _____ _____    ______ ____
ROOT
ATOM      1  C   UNL     1      -5.143  -2.079   0.087  0.00  0.00    +0.213 A 
ATOM      2  C   UNL     1      -5.338  -3.409   0.171  0.00  0.00    +0.148 A 
ATOM      3  O   UNL     1      -6.557  -3.962   0.221  0.00  0.00    -0.456 OA
ATOM      4  C   UNL     1      -7.686  -3.225   0.191  0.00  0.00    +0.147 A 
ATOM      5  C   UNL     1      -7.603  -1.823   0.103  0.00  0.00    +0.068 A 
ATOM      6  C   UNL     1      -6.267  -1.205   0.053  0.00  0.00    +0.235 A 
ATOM      7  O   UNL     1      -6.129   0.005  -0.018  0.00  0.00    -0.283 OA
ATOM      8  C   UNL     1      -8.764  -1.050   0.072  0.00  0.00    +0.019 A 
ATOM      9  C   UNL     1      -9.985  -1.659   0.126  0.00  0.00    +0.046 A 
ATOM     10  C   UNL     1     -10.077  -3.047   0.212  0.00  0.00    +0.125 A 
ATOM     11  C   UNL     1      -8.934  -3.828   0.244  0.00  0.00    +0.051 A 
ATOM     12  C   UNL     1      -4.133  -4.314   0.211  0.00  0.00    +0.090 C 
ENDROOT
BRANCH  10  13
ATOM     13  O   UNL     1     -11.298  -3.638   0.266  0.00  0.00    -0.506 OA
ATOM     14  H   UNL     1     -11.664  -3.864  -0.601  0.00  0.00    +0.292 HD
ENDBRANCH  10  13
BRANCH   1  15
ATOM     15  O   UNL     1      -3.880  -1.573   0.040  0.00  0.00    -0.445 OA
BRANCH  15  21
ATOM     16  C   UNL     1      -2.243  -0.325  -1.163  0.00  0.00    +0.163 A 
ATOM     17  C   UNL     1      -1.836   0.288  -2.337  0.00  0.00    +0.049 A 
ATOM     18  C   UNL     1      -2.659   0.269  -3.448  0.00  0.00    +0.004 A 
ATOM     19  C   UNL     1      -3.888  -0.361  -3.392  0.00  0.00    +0.004 A 
ATOM     20  C   UNL     1      -4.300  -0.975  -2.224  0.00  0.00    +0.050 A 
ATOM     21  C   UNL     1      -3.478  -0.965  -1.108  0.00  0.00    +0.170 A 
BRANCH  16  22
ATOM     22  O   UNL     1      -1.435  -0.308  -0.069  0.00  0.00    -0.489 OA
BRANCH  22  24
ATOM     23  C   UNL     1       0.582   0.281   1.123  0.00  0.00    +0.048 C 
ATOM     24  C   UNL     1      -0.182   0.367  -0.199  0.00  0.00    +0.226 C 
ENDBRANCH  22  24
ENDBRANCH  16  22
ENDBRANCH  15  21
ENDBRANCH   1  15
BRANCH  11  25
ATOM     25  C   UNL     1      -9.046  -5.328   0.338  0.00  0.00    +0.127 C 
BRANCH  25  26
ATOM     26  N   UNL     1      -9.063  -5.731   1.750  0.00  0.00    -0.295 NA
ATOM     27  C   UNL     1     -10.274  -5.241   2.422  0.00  0.00    +0.103 C 
ATOM     28  C   UNL     1     -10.169  -5.523   3.925  0.00  0.00    +0.120 C 
ATOM     29  N   UNL     1      -9.890  -6.954   4.114  0.00  0.00    -0.327 N 
ATOM     30  C   UNL     1      -8.773  -7.550   3.365  0.00  0.00    +0.120 C 
ATOM     31  C   UNL     1      -8.932  -7.188   1.884  0.00  0.00    +0.103 C 
BRANCH  29  32
ATOM     32  C   UNL     1     -10.664  -7.728   4.982  0.00  0.00    +0.031 A 
ATOM     33  C   UNL     1     -10.458  -9.100   5.063  0.00  0.00    +0.023 A 
ATOM     34  C   UNL     1     -11.225  -9.862   5.922  0.00  0.00    +0.003 A 
ATOM     35  C   UNL     1     -12.197  -9.262   6.702  0.00  0.00    +0.020 A 
ATOM     36  C   UNL     1     -12.404  -7.896   6.624  0.00  0.00    +0.043 A 
ATOM     37  C   UNL     1     -11.636  -7.127   5.770  0.00  0.00    +0.043 A 
ATOM     38 CL   UNL     1     -13.626  -7.147   7.604  0.00  0.00    -0.083 Cl
ENDBRANCH  29  32
ENDBRANCH  25  26
ENDBRANCH  11  25
TORSDOF 8
