REMARK  Name = ZINC06881428
REMARK  11 active torsions:
REMARK  status: ('A' for Active; 'I' for Inactive)
REMARK    1  A    between atoms: C_1  and  C_2
REMARK    2  A    between atoms: C_5  and  S_23
REMARK    3  A    between atoms: C_7  and  N_8
REMARK    4  A    between atoms: C_9  and  C_11
REMARK    5  A    between atoms: C_11  and  N_50
REMARK    6  A    between atoms: C_12  and  C_14
REMARK    7  A    between atoms: C_12  and  C_15
REMARK    8  A    between atoms: C_12  and  N_50
REMARK    9  A    between atoms: S_23  and  N_26
REMARK   10  A    between atoms: N_26  and  C_27
REMARK   11  A    between atoms: N_26  and  C_28
REMARK                            x       y       z     vdW  Elec       q    Type
REMARK                         _______ _______ _______ _____ _____    ______ ____
ROOT
ATOM      1  N   UNL     1       2.356   3.889  -0.001  0.00  0.00    -0.287 N 
ATOM      2  C   UNL     1       2.336   5.233  -0.095  0.00  0.00    +0.200 C 
ATOM      3  O   UNL     1       1.279   5.827  -0.082  0.00  0.00    -0.278 OA
ATOM      4  H   UNL     1       3.202   3.420   0.070  0.00  0.00    +0.155 HD
ENDROOT
BRANCH   1  11
ATOM      5  C   UNL     1       2.322   1.325   1.234  0.00  0.00    +0.045 C 
ATOM      6  C   UNL     1       1.095   1.915   0.588  0.00  0.00    -0.029 A 
ATOM      7  C   UNL     1      -0.092   1.207   0.583  0.00  0.00    +0.007 A 
ATOM      8  C   UNL     1      -1.217   1.745  -0.015  0.00  0.00    +0.029 A 
ATOM      9  C   UNL     1      -1.161   2.997  -0.600  0.00  0.00    +0.107 A 
ATOM     10  C   UNL     1       0.022   3.709  -0.598  0.00  0.00    +0.052 A 
ATOM     11  C   UNL     1       1.155   3.170  -0.003  0.00  0.00    +0.038 A 
BRANCH   9  12
ATOM     12  S   UNL     1      -2.599   3.681  -1.354  0.00  0.00    +0.060 S 
ATOM     13  O   UNL     1      -3.716   3.051  -0.743  0.00  0.00    -0.153 OA
ATOM     14  O   UNL     1      -2.425   5.091  -1.355  0.00  0.00    -0.153 OA
BRANCH  12  15
ATOM     15  N   UNL     1      -2.594   3.203  -2.939  0.00  0.00    -0.183 NA
ATOM     16  C   UNL     1      -3.250   1.952  -3.329  0.00  0.00    +0.131 C 
ATOM     17  C   UNL     1      -1.935   4.030  -3.952  0.00  0.00    +0.131 C 
ENDBRANCH  12  15
ENDBRANCH   9  12
ENDBRANCH   1  11
BRANCH   2  18
ATOM     18  C   UNL     1       3.628   5.998  -0.217  0.00  0.00    +0.016 C 
BRANCH  18  19
ATOM     19  N   UNL     1       3.330   7.440  -0.305  0.00  0.00    +0.389 N 
ATOM     20  H   UNL     1       2.829   7.734   0.542  0.00  0.00    -0.084 HD
ATOM     21  H   UNL     1       2.742   7.615  -1.128  0.00  0.00    -0.084 HD
BRANCH  19  22
ATOM     22  C   UNL     1       4.579   8.216  -0.425  0.00  0.00    -0.043 C 
ATOM     23  C   UNL     1       5.001   8.278  -1.895  0.00  0.00    -0.009 C 
BRANCH  22  24
ATOM     24  C   UNL     1       4.346   9.613   0.090  0.00  0.00    -0.059 A 
ATOM     25  C   UNL     1       3.160  10.264  -0.193  0.00  0.00    +0.005 A 
ATOM     26  C   UNL     1       2.942  11.543   0.282  0.00  0.00    +0.041 A 
ATOM     27  C   UNL     1       3.915  12.177   1.035  0.00  0.00    +0.158 A 
ATOM     28  C   UNL     1       5.107  11.526   1.314  0.00  0.00    +0.159 A 
ATOM     29  C   UNL     1       5.320  10.243   0.841  0.00  0.00    +0.043 A 
ATOM     30  F   UNL     1       6.059  12.143   2.048  0.00  0.00    -0.202 F 
ATOM     31  F   UNL     1       3.705  13.430   1.495  0.00  0.00    -0.202 F 
ENDBRANCH  22  24
ENDBRANCH  19  22
ENDBRANCH  18  19
ENDBRANCH   2  18
TORSDOF 7
