REMARK  Name = ZINC20348096
REMARK  7 active torsions:
REMARK  status: ('A' for Active; 'I' for Inactive)
REMARK    1  A    between atoms: C_1  and  C_2
REMARK    2  A    between atoms: C_3  and  N_9
REMARK    3  A    between atoms: C_10  and  C_12
REMARK    4  A    between atoms: C_12  and  S_13
REMARK    5  A    between atoms: S_13  and  C_14
REMARK    6  A    between atoms: C_15  and  C_33
REMARK    7  A    between atoms: C_16  and  C_26
REMARK                            x       y       z     vdW  Elec       q    Type
REMARK                         _______ _______ _______ _____ _____    ______ ____
ROOT
ATOM      1  C   UNL     1       0.425  -0.023  -7.682  0.00  0.00    +0.112 C 
ATOM      2  C   UNL     1       0.530  -0.613  -8.930  0.00  0.00    +0.073 C 
ATOM      3  C   UNL     1       0.617   0.312 -10.131  0.00  0.00    +0.097 C 
ATOM      4  C   UNL     1       0.577   1.797  -9.826  0.00  0.00    +0.029 C 
ATOM      5  C   UNL     1       0.644   2.690 -10.827  0.00  0.00    +0.162 C 
ATOM      6  C   UNL     1       0.608   4.171 -10.559  0.00  0.00    +0.080 C 
ATOM      7  C   UNL     1      -0.203   4.435  -9.287  0.00  0.00    +0.014 C 
ATOM      8  C   UNL     1       0.426   3.658  -8.128  0.00  0.00    +0.056 C 
ATOM      9  C   UNL     1       0.467   2.189  -8.479  0.00  0.00    +0.050 C 
ATOM     10  N   UNL     1       0.394   1.301  -7.519  0.00  0.00    -0.244 NA
ATOM     11  O   UNL     1       0.746   2.251 -12.097  0.00  0.00    -0.292 OA
ENDROOT
BRANCH   3  12
ATOM     12  C   UNL     1      -0.531  -0.006 -11.054  0.00  0.00    -0.035 A 
ATOM     13  C   UNL     1      -1.833   0.124 -10.607  0.00  0.00    +0.006 A 
ATOM     14  C   UNL     1      -2.886  -0.168 -11.453  0.00  0.00    +0.020 A 
ATOM     15  C   UNL     1      -2.638  -0.590 -12.747  0.00  0.00    +0.041 A 
ATOM     16  C   UNL     1      -1.334  -0.720 -13.193  0.00  0.00    +0.020 A 
ATOM     17  C   UNL     1      -0.282  -0.422 -12.348  0.00  0.00    +0.006 A 
ATOM     18 CL   UNL     1      -3.960  -0.957 -13.810  0.00  0.00    -0.084 Cl
ENDBRANCH   3  12
BRANCH   2  19
ATOM     19  C   UNL     1       0.557  -2.036  -9.082  0.00  0.00    +0.098 C 
ATOM     20  N   UNL     1       0.578  -3.166  -9.202  0.00  0.00    -0.191 NA
ENDBRANCH   2  19
BRANCH   1  21
ATOM     21  S   UNL     1       0.322  -1.057  -6.259  0.00  0.00    -0.096 S 
BRANCH  21  22
ATOM     22  C   UNL     1       0.192   0.111  -4.876  0.00  0.00    +0.172 C 
BRANCH  22  24
ATOM     23  N   UNL     1      -0.010   0.011  -2.413  0.00  0.00    -0.285 N 
ATOM     24  C   UNL     1       0.095  -0.653  -3.581  0.00  0.00    +0.227 C 
ATOM     25  O   UNL     1       0.112  -1.866  -3.590  0.00  0.00    -0.275 OA
ATOM     26  H   UNL     1      -0.104   0.977  -2.411  0.00  0.00    +0.155 HD
BRANCH  23  29
ATOM     27  C   UNL     1      -1.263   1.190  -0.146  0.00  0.00    +0.047 C 
ATOM     28  C   UNL     1      -0.583  -0.153  -0.073  0.00  0.00    -0.011 A 
ATOM     29  C   UNL     1       0.017  -0.692  -1.204  0.00  0.00    +0.038 A 
ATOM     30  C   UNL     1       0.642  -1.929  -1.132  0.00  0.00    +0.023 A 
ATOM     31  C   UNL     1       0.667  -2.621   0.064  0.00  0.00    +0.003 A 
ATOM     32  C   UNL     1       0.069  -2.084   1.188  0.00  0.00    +0.020 A 
ATOM     33  C   UNL     1      -0.550  -0.848   1.122  0.00  0.00    +0.046 A 
ATOM     34 CL   UNL     1      -1.293  -0.173   2.538  0.00  0.00    -0.083 Cl
ENDBRANCH  23  29
ENDBRANCH  22  24
ENDBRANCH  21  22
ENDBRANCH   1  21
TORSDOF 6
