REMARK  Name = ZINC39676600
REMARK  10 active torsions:
REMARK  status: ('A' for Active; 'I' for Inactive)
REMARK    1  A    between atoms: C_1  and  N_2
REMARK    2  A    between atoms: C_6  and  C_7
REMARK    3  A    between atoms: C_11  and  C_20
REMARK    4  A    between atoms: N_22  and  C_23
REMARK    5  A    between atoms: C_23  and  C_24
REMARK    6  A    between atoms: C_23  and  C_32
REMARK    7  A    between atoms: C_27  and  O_30
REMARK    8  A    between atoms: O_30  and  C_31
REMARK    9  A    between atoms: C_35  and  O_38
REMARK   10  A    between atoms: O_38  and  C_39
REMARK                            x       y       z     vdW  Elec       q    Type
REMARK                         _______ _______ _______ _____ _____    ______ ____
ROOT
ATOM      1  C   UNL     1      -1.431   4.327   2.360  0.00  0.00    +0.219 C 
ATOM      2  O   UNL     1      -0.290   4.731   2.294  0.00  0.00    -0.275 OA
ATOM      3  N   UNL     1      -2.460   5.188   2.222  0.00  0.00    -0.304 N 
ATOM      4  H   UNL     1      -3.373   4.864   2.274  0.00  0.00    +0.150 HD
ENDROOT
BRANCH   1   9
ATOM      5  C   UNL     1      -0.185  -0.425   2.524  0.00  0.00    +0.265 C 
ATOM      6  O   UNL     1      -0.132  -1.259   3.408  0.00  0.00    -0.268 OA
ATOM      7  N   UNL     1      -0.390   0.871   2.832  0.00  0.00    -0.295 N 
ATOM      8  C   UNL     1      -0.624   2.000   1.900  0.00  0.00    +0.121 C 
ATOM      9  C   UNL     1      -1.701   2.863   2.595  0.00  0.00    +0.100 C 
ATOM     10  C   UNL     1      -1.569   2.526   4.090  0.00  0.00    -0.004 C 
ATOM     11  C   UNL     1      -0.440   1.489   4.178  0.00  0.00    +0.115 C 
ATOM     12  C   UNL     1      -1.204   3.776   4.884  0.00  0.00    -0.010 C 
ATOM     13  C   UNL     1      -1.136   3.427   6.373  0.00  0.00    -0.082 C 
ATOM     14  N   UNL     1      -2.435   2.905   6.815  0.00  0.00    +0.379 N 
ATOM     15  C   UNL     1      -2.736   1.652   6.113  0.00  0.00    -0.082 C 
ATOM     16  C   UNL     1      -2.871   1.926   4.612  0.00  0.00    -0.010 C 
ATOM     17  H   UNL     1      -2.406   2.734   7.809  0.00  0.00    -0.086 HD
ATOM     18  H   UNL     1      -3.155   3.583   6.614  0.00  0.00    -0.086 HD
BRANCH   5  24
ATOM     19  C   UNL     1      -0.035  -3.354   1.424  0.00  0.00    +0.150 C 
ATOM     20  N   UNL     1       0.043  -2.121   0.636  0.00  0.00    -0.330 N 
ATOM     21  C   UNL     1       0.186  -2.033  -0.698  0.00  0.00    +0.199 A 
ATOM     22  N   UNL     1       0.214  -0.771  -1.045  0.00  0.00    -0.243 NA
ATOM     23  C   UNL     1       0.092  -0.005   0.039  0.00  0.00    +0.143 A 
ATOM     24  C   UNL     1      -0.024  -0.830   1.123  0.00  0.00    +0.124 A 
ENDBRANCH   5  24
ENDBRANCH   1   9
BRANCH   3  25
ATOM     25  C   UNL     1      -2.198   6.611   1.993  0.00  0.00    +0.134 C 
BRANCH  25  26
ATOM     26  C   UNL     1      -3.375   7.231   1.285  0.00  0.00    -0.023 A 
ATOM     27  C   UNL     1      -4.662   6.875   1.645  0.00  0.00    +0.009 A 
ATOM     28  C   UNL     1      -5.743   7.441   0.998  0.00  0.00    +0.046 A 
ATOM     29  C   UNL     1      -5.537   8.368  -0.014  0.00  0.00    +0.120 A 
ATOM     30  C   UNL     1      -4.245   8.724  -0.372  0.00  0.00    +0.046 A 
ATOM     31  C   UNL     1      -3.167   8.158   0.282  0.00  0.00    +0.009 A 
BRANCH  29  32
ATOM     32  O   UNL     1      -6.599   8.926  -0.652  0.00  0.00    -0.495 OA
ATOM     33  C   UNL     1      -6.311   9.873  -1.683  0.00  0.00    +0.277 C 
ENDBRANCH  29  32
ENDBRANCH  25  26
BRANCH  25  34
ATOM     34  C   UNL     1      -1.986   7.301   3.315  0.00  0.00    -0.023 A 
ATOM     35  C   UNL     1      -2.768   6.963   4.404  0.00  0.00    +0.009 A 
ATOM     36  C   UNL     1      -2.576   7.595   5.617  0.00  0.00    +0.046 A 
ATOM     37  C   UNL     1      -1.597   8.570   5.743  0.00  0.00    +0.120 A 
ATOM     38  C   UNL     1      -0.813   8.908   4.649  0.00  0.00    +0.046 A 
ATOM     39  C   UNL     1      -1.006   8.269   3.439  0.00  0.00    +0.009 A 
BRANCH  37  40
ATOM     40  O   UNL     1      -1.407   9.193   6.935  0.00  0.00    -0.495 OA
ATOM     41  C   UNL     1      -0.381  10.187   6.991  0.00  0.00    +0.277 C 
ENDBRANCH  37  40
ENDBRANCH  25  34
ENDBRANCH   3  25
TORSDOF 7
