REMARK  Name = ZINC60377219
REMARK  12 active torsions:
REMARK  status: ('A' for Active; 'I' for Inactive)
REMARK    1  A    between atoms: C_1  and  C_2
REMARK    2  A    between atoms: C_2  and  C_4
REMARK    3  A    between atoms: C_2  and  N_14
REMARK    4  A    between atoms: C_8  and  S_10
REMARK    5  A    between atoms: S_10  and  N_13
REMARK    6  A    between atoms: N_14  and  C_15
REMARK    7  A    between atoms: N_14  and  C_16
REMARK    8  A    between atoms: C_16  and  C_17
REMARK    9  A    between atoms: N_19  and  C_20
REMARK   10  A    between atoms: C_25  and  C_26
REMARK   11  A    between atoms: N_28  and  C_29
REMARK   12  A    between atoms: C_29  and  C_30
REMARK                            x       y       z     vdW  Elec       q    Type
REMARK                         _______ _______ _______ _____ _____    ______ ____
ROOT
ATOM      1  C   UNL     1       0.749  -0.374  -3.634  0.00  0.00    +0.201 C 
ATOM      2  O   UNL     1       1.782  -1.003  -3.535  0.00  0.00    -0.278 OA
ATOM      3  N   UNL     1       0.286  -0.027  -4.851  0.00  0.00    -0.286 N 
ATOM      4  H   UNL     1      -0.578   0.405  -4.936  0.00  0.00    +0.155 HD
ENDROOT
BRANCH   3   5
ATOM      5  C   UNL     1       1.049  -0.288  -5.987  0.00  0.00    +0.045 A 
ATOM      6  C   UNL     1       2.429  -0.401  -5.889  0.00  0.00    +0.024 A 
ATOM      7  C   UNL     1       3.184  -0.659  -7.016  0.00  0.00    +0.002 A 
ATOM      8  C   UNL     1       2.572  -0.807  -8.251  0.00  0.00    +0.001 A 
ATOM      9  C   UNL     1       1.203  -0.698  -8.367  0.00  0.00    +0.015 A 
ATOM     10  C   UNL     1       0.426  -0.443  -7.234  0.00  0.00    +0.058 A 
BRANCH  10  11
ATOM     11  C   UNL     1      -1.040  -0.331  -7.350  0.00  0.00    +0.246 C 
ATOM     12  O   UNL     1      -1.704  -0.015  -6.382  0.00  0.00    -0.270 OA
ATOM     13  N   UNL     1      -1.644  -0.579  -8.529  0.00  0.00    -0.304 N 
ATOM     14  H   UNL     1      -1.114  -0.831  -9.302  0.00  0.00    +0.149 HD
BRANCH  13  15
ATOM     15  C   UNL     1      -3.100  -0.468  -8.645  0.00  0.00    +0.179 C 
BRANCH  15  16
ATOM     16  C   UNL     1      -3.519  -0.794 -10.055  0.00  0.00    +0.122 A 
ATOM     17  C   UNL     1      -3.844  -2.015 -10.517  0.00  0.00    +0.046 A 
ATOM     18  C   UNL     1      -4.170  -1.862 -11.884  0.00  0.00    +0.041 A 
ATOM     19  C   UNL     1      -4.025  -0.557 -12.176  0.00  0.00    +0.195 A 
ATOM     20  O   UNL     1      -3.636   0.086 -11.063  0.00  0.00    -0.466 OA
ENDBRANCH  15  16
ENDBRANCH  13  15
ENDBRANCH  10  11
ENDBRANCH   3   5
BRANCH   1  21
ATOM     21  C   UNL     1      -0.016   0.018  -2.397  0.00  0.00    +0.019 C 
BRANCH  21  22
ATOM     22  N   UNL     1       0.691  -0.475  -1.207  0.00  0.00    +0.388 N 
ATOM     23  C   UNL     1       0.694  -1.944  -1.212  0.00  0.00    -0.095 C 
ATOM     24  H   UNL     1       1.641  -0.137  -1.216  0.00  0.00    -0.081 HD
BRANCH  22  26
ATOM     25  C   UNL     1       0.008   1.539   0.008  0.00  0.00    -0.008 C 
ATOM     26  C   UNL     1       0.011   0.009   0.002  0.00  0.00    -0.040 C 
BRANCH  26  27
ATOM     27  C   UNL     1       0.736  -0.496   1.223  0.00  0.00    -0.059 A 
ATOM     28  C   UNL     1       2.118  -0.523   1.244  0.00  0.00    +0.002 A 
ATOM     29  C   UNL     1       2.783  -0.987   2.364  0.00  0.00    +0.002 A 
ATOM     30  C   UNL     1       2.066  -1.424   3.462  0.00  0.00    +0.028 A 
ATOM     31  C   UNL     1       0.684  -1.396   3.441  0.00  0.00    +0.105 A 
ATOM     32  C   UNL     1       0.019  -0.928   2.323  0.00  0.00    +0.030 A 
BRANCH  31  33
ATOM     33  S   UNL     1      -0.229  -1.953   4.841  0.00  0.00    +0.056 S 
ATOM     34  O   UNL     1      -1.512  -2.336   4.363  0.00  0.00    -0.153 OA
ATOM     35  O   UNL     1       0.618  -2.848   5.549  0.00  0.00    -0.153 OA
BRANCH  33  36
ATOM     36  N   UNL     1      -0.463  -0.643   5.826  0.00  0.00    -0.204 NA
ATOM     37  H   UNL     1      -1.254  -0.592   6.386  0.00  0.00    +0.144 HD
ATOM     38  H   UNL     1       0.191   0.073   5.844  0.00  0.00    +0.144 HD
ENDBRANCH  33  36
ENDBRANCH  31  33
ENDBRANCH  26  27
ENDBRANCH  22  26
ENDBRANCH  21  22
ENDBRANCH   1  21
TORSDOF 10
