REMARK  Name = ZINC64870953
REMARK  7 active torsions:
REMARK  status: ('A' for Active; 'I' for Inactive)
REMARK    1  A    between atoms: C_1  and  C_2
REMARK    2  A    between atoms: C_5  and  C_8
REMARK    3  A    between atoms: C_8  and  N_9
REMARK    4  A    between atoms: C_15  and  C_22
REMARK    5  A    between atoms: C_25  and  C_29
REMARK    6  A    between atoms: C_32  and  O_35
REMARK    7  A    between atoms: O_35  and  C_36
REMARK                            x       y       z     vdW  Elec       q    Type
REMARK                         _______ _______ _______ _____ _____    ______ ____
ROOT
ATOM      1  N   UNL     1       1.488  -4.624  -0.037  0.00  0.00    -0.256 N 
ATOM      2  C   UNL     1       2.070  -4.945  -1.213  0.00  0.00    +0.265 A 
ATOM      3  O   UNL     1       1.459  -4.842  -2.260  0.00  0.00    -0.267 OA
ATOM      4  C   UNL     1       3.465  -5.422  -1.196  0.00  0.00    +0.063 A 
ATOM      5  C   UNL     1       4.134  -5.771  -2.366  0.00  0.00    +0.016 A 
ATOM      6  C   UNL     1       5.439  -6.212  -2.296  0.00  0.00    +0.008 A 
ATOM      7  C   UNL     1       6.083  -6.307  -1.072  0.00  0.00    -0.000 A 
ATOM      8  C   UNL     1       5.431  -5.964   0.096  0.00  0.00    +0.034 A 
ATOM      9  C   UNL     1       4.119  -5.519   0.045  0.00  0.00    +0.056 A 
ATOM     10  N   UNL     1       3.427  -5.163   1.194  0.00  0.00    -0.307 N 
ATOM     11  H   UNL     1       3.865  -5.225   2.057  0.00  0.00    +0.170 HD
ATOM     12  C   UNL     1       2.157  -4.729   1.122  0.00  0.00    +0.330 A 
ATOM     13  O   UNL     1       1.587  -4.423   2.152  0.00  0.00    -0.246 OA
ENDROOT
BRANCH   7  14
ATOM     14  C   UNL     1       7.509  -6.791  -1.015  0.00  0.00    +0.242 C 
ATOM     15  N   UNL     1       7.617  -7.928  -0.073  0.00  0.00    -0.265 NA
ATOM     16  C   UNL     1       8.929  -7.718   0.598  0.00  0.00    +0.180 C 
ATOM     17  N   UNL     1       8.987  -6.237   0.720  0.00  0.00    -0.177 NA
ATOM     18  O   UNL     1       8.361  -5.745  -0.524  0.00  0.00    -0.274 OA
ATOM     19  H   UNL     1       6.863  -7.916   0.597  0.00  0.00    +0.127 HD
ATOM     20  H   UNL     1       8.477  -5.920   1.532  0.00  0.00    +0.156 HD
BRANCH  16  21
ATOM     21  C   UNL     1       8.948  -8.373   1.955  0.00  0.00    -0.014 A 
ATOM     22  C   UNL     1       8.196  -9.510   2.183  0.00  0.00    +0.010 A 
ATOM     23  C   UNL     1       8.212 -10.113   3.426  0.00  0.00    +0.046 A 
ATOM     24  C   UNL     1       8.984  -9.576   4.446  0.00  0.00    +0.130 A 
ATOM     25  C   UNL     1       9.739  -8.435   4.214  0.00  0.00    +0.046 A 
ATOM     26  C   UNL     1       9.724  -7.840   2.968  0.00  0.00    +0.010 A 
BRANCH  24  27
ATOM     27  O   UNL     1       9.002 -10.167   5.670  0.00  0.00    -0.406 OA
BRANCH  27  28
ATOM     28  C   UNL     1       9.820  -9.559   6.671  0.00  0.00    +0.575 C 
ATOM     29  F   UNL     1       9.389  -8.247   6.893  0.00  0.00    -0.133 F 
ATOM     30  F   UNL     1       9.721 -10.290   7.860  0.00  0.00    -0.133 F 
ATOM     31  F   UNL     1      11.151  -9.547   6.242  0.00  0.00    -0.133 F 
ENDBRANCH  27  28
ENDBRANCH  24  27
ENDBRANCH  16  21
ENDBRANCH   7  14
BRANCH   1  32
ATOM     32  C   UNL     1       0.103  -4.147  -0.027  0.00  0.00    +0.165 C 
BRANCH  32  37
ATOM     33  C   UNL     1       0.040   1.606  -0.566  0.00  0.00    +0.044 C 
ATOM     34  C   UNL     1       0.056   0.105  -0.425  0.00  0.00    -0.050 A 
ATOM     35  C   UNL     1       0.018  -0.695  -1.552  0.00  0.00    +0.004 A 
ATOM     36  C   UNL     1       0.033  -2.071  -1.423  0.00  0.00    +0.005 A 
ATOM     37  C   UNL     1       0.087  -2.647  -0.168  0.00  0.00    -0.027 A 
ATOM     38  C   UNL     1       0.127  -1.847   0.959  0.00  0.00    +0.005 A 
ATOM     39  C   UNL     1       0.116  -0.471   0.830  0.00  0.00    +0.004 A 
ENDBRANCH  32  37
ENDBRANCH   1  32
TORSDOF 6
