REMARK  Name = ZINC03267738
REMARK  6 active torsions:
REMARK  status: ('A' for Active; 'I' for Inactive)
REMARK    1  A    between atoms: C_7  and  N_11
REMARK    2  A    between atoms: C_8  and  C_9
REMARK    3  A    between atoms: C_12  and  C_14
REMARK    4  A    between atoms: C_14  and  C_15
REMARK    5  A    between atoms: N_17  and  C_18
REMARK    6  A    between atoms: C_19  and  C_28
REMARK                            x       y       z     vdW  Elec       q    Type
REMARK                         _______ _______ _______ _____ _____    ______ ____
ROOT
ATOM      1  C   UNL     1      -0.013   1.086   0.008  0.00  0.00    +0.192 C 
ENDROOT
BRANCH   1   3
ATOM      2  N   UNL     1      -0.288   1.272  -2.443  0.00  0.00    -0.279 N 
ATOM      3  C   UNL     1      -0.742   1.585  -1.213  0.00  0.00    +0.226 C 
ATOM      4  O   UNL     1      -1.736   2.268  -1.088  0.00  0.00    -0.275 OA
ATOM      5  H   UNL     1       0.507   0.726  -2.543  0.00  0.00    +0.155 HD
BRANCH   2  12
ATOM      6  C   UNL     1      -3.350   2.834  -8.523  0.00  0.00    +0.001 C 
ATOM      7  C   UNL     1      -1.894   3.118  -8.158  0.00  0.00    +0.005 C 
ATOM      8  C   UNL     1      -1.296   1.939  -7.398  0.00  0.00    +0.037 C 
ATOM      9  C   UNL     1      -1.525   2.115  -5.902  0.00  0.00    -0.018 A 
ATOM     10  C   UNL     1      -2.558   2.830  -5.404  0.00  0.00    -0.004 A 
ATOM     11  S   UNL     1      -2.386   2.712  -3.644  0.00  0.00    -0.077 S 
ATOM     12  C   UNL     1      -0.960   1.732  -3.568  0.00  0.00    +0.090 A 
ATOM     13  C   UNL     1      -0.649   1.524  -4.901  0.00  0.00    +0.084 A 
ATOM     14  C   UNL     1      -3.609   3.573  -6.168  0.00  0.00    +0.043 C 
ATOM     15  C   UNL     1      -4.184   2.659  -7.258  0.00  0.00    +0.005 C 
BRANCH  13  16
ATOM     16  C   UNL     1       0.494   0.750  -5.282  0.00  0.00    +0.102 C 
ATOM     17  N   UNL     1       1.401   0.136  -5.585  0.00  0.00    -0.191 NA
ENDBRANCH  13  16
ENDBRANCH   2  12
ENDBRANCH   1   3
BRANCH   1  18
ATOM     18  C   UNL     1      -0.718   1.572   1.248  0.00  0.00    +0.226 C 
ATOM     19  O   UNL     1      -1.715   2.256   1.150  0.00  0.00    -0.275 OA
ATOM     20  N   UNL     1      -0.242   1.246   2.466  0.00  0.00    -0.279 N 
ATOM     21  H   UNL     1       0.555   0.699   2.544  0.00  0.00    +0.155 HD
BRANCH  20  22
ATOM     22  C   UNL     1      -0.891   1.694   3.608  0.00  0.00    +0.090 A 
ATOM     23  C   UNL     1      -0.561   1.462   4.933  0.00  0.00    +0.084 A 
ATOM     24  C   UNL     1      -1.409   2.055   5.957  0.00  0.00    -0.018 A 
ATOM     25  C   UNL     1      -2.456   2.768   5.486  0.00  0.00    -0.004 A 
ATOM     26  S   UNL     1      -2.316   2.672   3.722  0.00  0.00    -0.077 S 
ATOM     27  C   UNL     1      -3.513   3.473   6.278  0.00  0.00    +0.043 C 
ATOM     28  C   UNL     1      -2.847   4.325   7.367  0.00  0.00    +0.005 C 
ATOM     29  C   UNL     1      -2.687   3.468   8.619  0.00  0.00    +0.001 C 
ATOM     30  C   UNL     1      -2.437   2.012   8.231  0.00  0.00    +0.005 C 
ATOM     31  C   UNL     1      -1.136   1.886   7.446  0.00  0.00    +0.037 C 
BRANCH  23  32
ATOM     32  C   UNL     1       0.578   0.668   5.284  0.00  0.00    +0.102 C 
ATOM     33  N   UNL     1       1.481   0.038   5.562  0.00  0.00    -0.191 NA
ENDBRANCH  23  32
ENDBRANCH  20  22
ENDBRANCH   1  18
TORSDOF 6
