REMARK  Name = ZINC53103283
REMARK  5 active torsions:
REMARK  status: ('A' for Active; 'I' for Inactive)
REMARK    1  A    between atoms: C_1  and  C_2
REMARK    2  A    between atoms: C_5  and  C_8
REMARK    3  A    between atoms: C_5  and  N_10
REMARK    4  A    between atoms: C_8  and  O_9
REMARK    5  A    between atoms: C_11  and  C_13
REMARK                            x       y       z     vdW  Elec       q    Type
REMARK                         _______ _______ _______ _____ _____    ______ ____
ROOT
ATOM      1  N   UNL     1      -1.275  -2.237   2.551  0.00  0.00    -0.302 N 
ATOM      2  C   UNL     1      -2.475  -2.744   2.897  0.00  0.00    +0.261 C 
ATOM      3  O   UNL     1      -3.026  -3.549   2.173  0.00  0.00    -0.269 OA
ATOM      4  H   UNL     1      -0.800  -1.654   3.163  0.00  0.00    +0.150 HD
ENDROOT
BRANCH   2   5
ATOM      5  C   UNL     1      -3.123  -2.318   4.161  0.00  0.00    +0.111 A 
ATOM      6  C   UNL     1      -2.515  -1.414   4.973  0.00  0.00    +0.101 A 
ATOM      7  C   UNL     1      -3.194  -1.022   6.214  0.00  0.00    +0.255 A 
ATOM      8  O   UNL     1      -2.685  -0.215   6.969  0.00  0.00    -0.268 OA
ATOM      9  N   UNL     1      -4.391  -1.572   6.502  0.00  0.00    -0.275 N 
ATOM     10  H   UNL     1      -4.852  -1.323   7.318  0.00  0.00    +0.173 HD
ATOM     11  C   UNL     1      -4.951  -2.463   5.665  0.00  0.00    +0.327 A 
ATOM     12  O   UNL     1      -6.031  -2.943   5.947  0.00  0.00    -0.247 OA
ATOM     13  N   UNL     1      -4.351  -2.832   4.521  0.00  0.00    -0.303 N 
ATOM     14  H   UNL     1      -4.787  -3.474   3.939  0.00  0.00    +0.171 HD
ENDBRANCH   2   5
BRANCH   1  19
ATOM     15  C   UNL     1      -0.733   1.619   0.163  0.00  0.00    +0.007 C 
ATOM     16  C   UNL     1      -0.513   0.108   0.073  0.00  0.00    -0.014 C 
ATOM     17  C   UNL     1      -1.854  -0.613   0.225  0.00  0.00    +0.005 C 
ATOM     18  C   UNL     1      -1.635  -2.124   0.135  0.00  0.00    +0.028 C 
ATOM     19  C   UNL     1      -0.687  -2.569   1.251  0.00  0.00    +0.058 C 
ATOM     20  C   UNL     1       0.654  -1.849   1.099  0.00  0.00    +0.028 C 
ATOM     21  C   UNL     1       0.434  -0.337   1.189  0.00  0.00    +0.005 C 
BRANCH  19  22
ATOM     22  C   UNL     1      -0.468  -4.080   1.161  0.00  0.00    +0.181 C 
BRANCH  22  23
ATOM     23  O   UNL     1       0.314  -4.515   2.275  0.00  0.00    -0.393 OA
ATOM     24  H   UNL     1       0.493  -5.465   2.283  0.00  0.00    +0.209 HD
ENDBRANCH  22  23
ENDBRANCH  19  22
ENDBRANCH   1  19
TORSDOF 4
