REMARK  Name = ZINC02946032
REMARK  9 active torsions:
REMARK  status: ('A' for Active; 'I' for Inactive)
REMARK    1  A    between atoms: C_1  and  O_2
REMARK    2  A    between atoms: O_2  and  C_3
REMARK    3  A    between atoms: C_5  and  C_19
REMARK    4  A    between atoms: C_8  and  O_9
REMARK    5  A    between atoms: O_9  and  C_10
REMARK    6  A    between atoms: C_10  and  C_11
REMARK    7  A    between atoms: N_20  and  N_21
REMARK    8  A    between atoms: C_22  and  C_24
REMARK    9  A    between atoms: C_27  and  N_30
REMARK                            x       y       z     vdW  Elec       q    Type
REMARK                         _______ _______ _______ _____ _____    ______ ____
ROOT
ATOM      1  C   UNL     1      -5.518   1.752  -1.169  0.00  0.00    +0.163 A 
ATOM      2  C   UNL     1      -6.786   1.201  -1.168  0.00  0.00    +0.059 A 
ATOM      3  C   UNL     1      -7.421   0.920   0.045  0.00  0.00    -0.001 A 
ATOM      4  C   UNL     1      -6.769   1.191   1.250  0.00  0.00    +0.028 A 
ATOM      5  C   UNL     1      -5.502   1.735   1.242  0.00  0.00    +0.064 A 
ATOM      6  C   UNL     1      -4.871   2.014   0.037  0.00  0.00    +0.176 A 
ATOM      7 BR   UNL     1      -4.620   2.101   2.874  0.00  0.00    -0.046 Br
ENDROOT
BRANCH   1   9
ATOM      8  C   UNL     1      -5.621   1.737  -3.545  0.00  0.00    +0.277 C 
ATOM      9  O   UNL     1      -4.899   2.032  -2.347  0.00  0.00    -0.491 OA
ENDBRANCH   1   9
BRANCH   3  10
ATOM     10  C   UNL     1      -8.776   0.339   0.051  0.00  0.00    +0.138 C 
ATOM     11  N   UNL     1      -9.365   0.079   1.179  0.00  0.00    -0.187 NA
BRANCH  11  12
ATOM     12  N   UNL     1     -10.652  -0.474   1.185  0.00  0.00    -0.203 N 
ATOM     13  C   UNL     1     -11.264  -0.744   2.356  0.00  0.00    +0.263 C 
ATOM     14  O   UNL     1     -10.698  -0.508   3.406  0.00  0.00    -0.268 OA
ATOM     15  H   UNL     1     -11.164  -0.686   0.235  0.00  0.00    +0.178 HD
BRANCH  13  16
ATOM     16  C   UNL     1     -12.619  -1.325   2.362  0.00  0.00    +0.038 A 
ATOM     17  C   UNL     1     -13.274  -1.591   1.156  0.00  0.00    +0.015 A 
ATOM     18  C   UNL     1     -14.537  -2.137   1.165  0.00  0.00    +0.023 A 
ATOM     19  C   UNL     1     -15.167  -2.416   2.375  0.00  0.00    +0.025 A 
ATOM     20  C   UNL     1     -14.520  -2.148   3.578  0.00  0.00    +0.023 A 
ATOM     21  C   UNL     1     -13.255  -1.606   3.575  0.00  0.00    +0.015 A 
BRANCH  19  22
ATOM     22  N   UNL     1     -16.445  -2.964   2.382  0.00  0.00    -0.358 N 
ATOM     23  H   UNL     1     -16.944  -3.184   3.337  0.00  0.00    +0.142 HD
ATOM     24  H   UNL     1     -16.957  -3.176   1.431  0.00  0.00    +0.142 HD
ENDBRANCH  19  22
ENDBRANCH  13  16
ENDBRANCH  11  12
ENDBRANCH   3  10
BRANCH   6  25
ATOM     25  O   UNL     1      -3.622   2.551   0.033  0.00  0.00    -0.483 OA
BRANCH  25  26
ATOM     26  C   UNL     1      -2.524   1.637   0.023  0.00  0.00    +0.266 C 
BRANCH  26  27
ATOM     27  C   UNL     1      -1.228   2.407   0.021  0.00  0.00    +0.008 A 
ATOM     28  C   UNL     1      -1.247   3.789   0.033  0.00  0.00    +0.008 A 
ATOM     29  C   UNL     1      -0.059   4.497   0.025  0.00  0.00    +0.000 A 
ATOM     30  C   UNL     1       1.148   3.822   0.011  0.00  0.00    +0.001 A 
ATOM     31  C   UNL     1       1.167   2.440   0.004  0.00  0.00    +0.020 A 
ATOM     32  C   UNL     1      -0.021   1.732   0.012  0.00  0.00    +0.047 A 
ATOM     33 CL   UNL     1       0.002  -0.004   0.002  0.00  0.00    -0.083 Cl
ENDBRANCH  26  27
ENDBRANCH  25  26
ENDBRANCH   6  25
TORSDOF 8
