REMARK  Name = ZINC38920053
REMARK  8 active torsions:
REMARK  status: ('A' for Active; 'I' for Inactive)
REMARK    1  A    between atoms: C_1  and  C_2
REMARK    2  A    between atoms: C_7  and  N_8
REMARK    3  A    between atoms: C_10  and  C_15
REMARK    4  A    between atoms: C_17  and  C_20
REMARK    5  A    between atoms: C_23  and  O_26
REMARK    6  A    between atoms: O_26  and  C_27
REMARK    7  A    between atoms: C_27  and  C_28
REMARK    8  A    between atoms: C_27  and  C_29
REMARK                            x       y       z     vdW  Elec       q    Type
REMARK                         _______ _______ _______ _____ _____    ______ ____
ROOT
ATOM      1  C   UNL     1      -1.866  -0.930   4.881  0.00  0.00    +0.233 A 
ATOM      2  N   UNL     1      -2.449  -0.972   6.045  0.00  0.00    -0.191 NA
ATOM      3  C   UNL     1      -2.123  -2.110   6.683  0.00  0.00    +0.202 A 
ATOM      4  N   UNL     1      -1.320  -2.805   5.915  0.00  0.00    -0.056 NA
ATOM      5  O   UNL     1      -1.144  -2.047   4.727  0.00  0.00    -0.337 OA
ENDROOT
BRANCH   1   8
ATOM      6  N   UNL     1      -1.429  -0.684   1.712  0.00  0.00    -0.270 N 
ATOM      7  C   UNL     1      -2.583  -0.330   2.547  0.00  0.00    +0.127 C 
ATOM      8  C   UNL     1      -1.987   0.186   3.876  0.00  0.00    +0.104 C 
ATOM      9  C   UNL     1      -0.593   0.680   3.425  0.00  0.00    +0.111 C 
ATOM     10  C   UNL     1      -0.298  -0.130   2.182  0.00  0.00    +0.221 C 
ATOM     11  O   UNL     1       0.799  -0.259   1.680  0.00  0.00    -0.275 OA
BRANCH   6  18
ATOM     12  C   UNL     1      -1.895   0.559  -0.805  0.00  0.00    +0.046 C 
ATOM     13  C   UNL     1      -1.722  -0.932  -0.673  0.00  0.00    -0.026 A 
ATOM     14  C   UNL     1      -1.783  -1.736  -1.795  0.00  0.00    +0.043 A 
ATOM     15  C   UNL     1      -1.625  -3.106  -1.675  0.00  0.00    +0.124 A 
ATOM     16  C   UNL     1      -1.406  -3.674  -0.430  0.00  0.00    +0.040 A 
ATOM     17  C   UNL     1      -1.345  -2.873   0.694  0.00  0.00    +0.026 A 
ATOM     18  C   UNL     1      -1.497  -1.498   0.574  0.00  0.00    +0.039 A 
ATOM     19  F   UNL     1      -1.684  -3.891  -2.772  0.00  0.00    -0.205 F 
ENDBRANCH   6  18
ENDBRANCH   1   8
BRANCH   3  20
ATOM     20  C   UNL     1      -2.594  -2.513   8.031  0.00  0.00    +0.023 A 
ATOM     21  C   UNL     1      -3.455  -1.682   8.746  0.00  0.00    +0.015 A 
ATOM     22  C   UNL     1      -3.891  -2.058   9.999  0.00  0.00    +0.046 A 
ATOM     23  C   UNL     1      -3.473  -3.263  10.548  0.00  0.00    +0.121 A 
ATOM     24  C   UNL     1      -2.615  -4.092   9.838  0.00  0.00    +0.046 A 
ATOM     25  C   UNL     1      -2.180  -3.724   8.583  0.00  0.00    +0.015 A 
BRANCH  23  26
ATOM     26  O   UNL     1      -3.904  -3.631  11.783  0.00  0.00    -0.489 OA
BRANCH  26  27
ATOM     27  C   UNL     1      -4.688  -2.681  12.506  0.00  0.00    +0.167 C 
ATOM     28  C   UNL     1      -6.154  -2.802  12.084  0.00  0.00    +0.051 C 
ATOM     29  C   UNL     1      -4.565  -2.955  14.007  0.00  0.00    +0.051 C 
ENDBRANCH  26  27
ENDBRANCH  23  26
ENDBRANCH   3  20
TORSDOF 5
