REMARK  Name = ZINC65525714
REMARK  9 active torsions:
REMARK  status: ('A' for Active; 'I' for Inactive)
REMARK    1  A    between atoms: C_1  and  C_2
REMARK    2  A    between atoms: C_2  and  N_3
REMARK    3  A    between atoms: C_4  and  C_28
REMARK    4  A    between atoms: C_5  and  C_9
REMARK    5  A    between atoms: C_6  and  C_8
REMARK    6  A    between atoms: C_9  and  C_11
REMARK    7  A    between atoms: C_9  and  N_12
REMARK    8  A    between atoms: C_17  and  C_19
REMARK    9  A    between atoms: C_25  and  C_27
REMARK                            x       y       z     vdW  Elec       q    Type
REMARK                         _______ _______ _______ _____ _____    ______ ____
ROOT
ATOM      1  N   UNL     1      -5.699  -3.157   1.367  0.00  0.00    -0.322 N 
ATOM      2  C   UNL     1      -6.555  -4.088   1.932  0.00  0.00    +0.126 A 
ATOM      3  C   UNL     1      -6.995  -5.192   1.181  0.00  0.00    +0.013 A 
ATOM      4  C   UNL     1      -7.856  -6.072   1.781  0.00  0.00    +0.025 A 
ATOM      5  N   UNL     1      -8.203  -5.875   3.053  0.00  0.00    -0.347 N 
ATOM      6  C   UNL     1      -7.769  -4.836   3.731  0.00  0.00    +0.106 A 
ATOM      7  N   UNL     1      -6.960  -3.949   3.187  0.00  0.00    -0.219 NA
ATOM      8  C   UNL     1      -8.199  -4.659   5.164  0.00  0.00    +0.086 C 
ATOM      9  C   UNL     1      -8.478  -7.234   1.059  0.00  0.00    +0.072 C 
ATOM     10  C   UNL     1      -7.416  -8.068   0.338  0.00  0.00    +0.114 C 
ATOM     11  N   UNL     1      -7.252  -7.483  -0.994  0.00  0.00    -0.301 N 
ATOM     12  C   UNL     1      -7.446  -6.031  -1.148  0.00  0.00    +0.112 C 
ATOM     13  C   UNL     1      -6.458  -5.326  -0.219  0.00  0.00    +0.059 C 
ATOM     14  C   UNL     1      -6.932  -8.253  -2.052  0.00  0.00    +0.212 C 
ATOM     15  O   UNL     1      -6.895  -7.771  -3.164  0.00  0.00    -0.276 OA
ATOM     16  C   UNL     1      -6.622  -9.715  -1.854  0.00  0.00    +0.109 C 
ATOM     17  H   UNL     1      -5.404  -3.262   0.449  0.00  0.00    +0.148 HD
ATOM     18  H   UNL     1      -8.789  -6.514   3.488  0.00  0.00    +0.167 HD
ENDROOT
BRANCH   1  19
ATOM     19  C   UNL     1      -5.239  -2.012   2.157  0.00  0.00    +0.102 C 
ATOM     20  C   UNL     1      -6.235  -0.860   2.014  0.00  0.00    +0.033 C 
BRANCH  19  23
ATOM     21  N   UNL     1      -2.241  -0.997   0.345  0.00  0.00    -0.268 N 
ATOM     22  C   UNL     1      -3.531  -1.395   0.367  0.00  0.00    +0.041 A 
ATOM     23  C   UNL     1      -3.885  -1.571   1.661  0.00  0.00    +0.016 A 
ATOM     24  C   UNL     1      -2.775  -1.270   2.457  0.00  0.00    +0.065 A 
ATOM     25  N   UNL     1      -1.787  -0.932   1.668  0.00  0.00    -0.176 NA
ATOM     26  C   UNL     1      -2.724  -1.333   3.962  0.00  0.00    +0.068 C 
ATOM     27  C   UNL     1      -4.417  -1.605  -0.834  0.00  0.00    +0.065 C 
BRANCH  21  29
ATOM     28  C   UNL     1      -0.762  -1.965  -1.345  0.00  0.00    +0.029 C 
ATOM     29  C   UNL     1      -1.454  -0.693  -0.852  0.00  0.00    +0.140 C 
ENDBRANCH  21  29
ENDBRANCH  19  23
ENDBRANCH   1  19
TORSDOF 3
