REMARK  Name = ZINC46569206
REMARK  13 active torsions:
REMARK  status: ('A' for Active; 'I' for Inactive)
REMARK    1  A    between atoms: C_1  and  N_2
REMARK    2  A    between atoms: C_3  and  C_5
REMARK    3  A    between atoms: C_8  and  C_11
REMARK    4  A    between atoms: C_11  and  N_12
REMARK    5  A    between atoms: N_12  and  C_13
REMARK    6  A    between atoms: N_12  and  C_19
REMARK    7  A    between atoms: C_13  and  C_14
REMARK    8  A    between atoms: C_19  and  C_20
REMARK    9  A    between atoms: N_22  and  C_23
REMARK   10  A    between atoms: C_23  and  C_24
REMARK   11  A    between atoms: C_24  and  C_25
REMARK   12  A    between atoms: C_28  and  O_31
REMARK   13  A    between atoms: O_31  and  C_32
REMARK                            x       y       z     vdW  Elec       q    Type
REMARK                         _______ _______ _______ _____ _____    ______ ____
ROOT
ATOM      1  N   UNL     1       1.681  -6.569   0.291  0.00  0.00    +0.393 N 
ATOM      2  H   UNL     1       1.766  -5.986  -0.528  0.00  0.00    -0.080 HD
ENDROOT
BRANCH   1   3
ATOM      3  C   UNL     1       0.390  -6.311   0.944  0.00  0.00    -0.042 C 
BRANCH   3   7
ATOM      4  C   UNL     1       0.024  -2.134   1.780  0.00  0.00    +0.037 A 
ATOM      5  C   UNL     1      -0.428  -2.647   0.564  0.00  0.00    +0.013 A 
ATOM      6  C   UNL     1      -0.306  -3.996   0.300  0.00  0.00    +0.002 A 
ATOM      7  C   UNL     1       0.261  -4.839   1.238  0.00  0.00    -0.064 A 
ATOM      8  C   UNL     1       0.711  -4.337   2.447  0.00  0.00    +0.002 A 
ATOM      9  C   UNL     1       0.601  -2.989   2.720  0.00  0.00    +0.013 A 
BRANCH   4  12
ATOM     10  C   UNL     1      -0.785   1.565   1.446  0.00  0.00    +0.128 C 
ATOM     11  N   UNL     1      -0.660   0.134   1.159  0.00  0.00    -0.314 N 
ATOM     12  C   UNL     1      -0.102  -0.689   2.069  0.00  0.00    +0.244 C 
ATOM     13  O   UNL     1       0.297  -0.244   3.128  0.00  0.00    -0.270 OA
ATOM     14  H   UNL     1      -0.978  -0.221   0.315  0.00  0.00    +0.149 HD
ENDBRANCH   4  12
ENDBRANCH   3   7
ENDBRANCH   1   3
BRANCH   1  15
ATOM     15  C   UNL     1       2.772  -6.263   1.226  0.00  0.00    -0.002 C 
BRANCH  15  16
ATOM     16  C   UNL     1       4.095  -6.404   0.518  0.00  0.00    +0.089 A 
ATOM     17  C   UNL     1       4.691  -5.459  -0.232  0.00  0.00    +0.042 A 
ATOM     18  C   UNL     1       5.904  -6.013  -0.701  0.00  0.00    +0.041 A 
ATOM     19  C   UNL     1       5.977  -7.264  -0.209  0.00  0.00    +0.195 A 
ATOM     20  O   UNL     1       4.881  -7.493   0.532  0.00  0.00    -0.470 OA
ENDBRANCH  15  16
ENDBRANCH   1  15
BRANCH   1  21
ATOM     21  C   UNL     1       1.756  -7.982  -0.104  0.00  0.00    +0.020 C 
BRANCH  21  22
ATOM     22  C   UNL     1       0.747  -8.255  -1.189  0.00  0.00    +0.196 C 
ATOM     23  O   UNL     1       0.109  -7.341  -1.667  0.00  0.00    -0.278 OA
ATOM     24  N   UNL     1       0.552  -9.514  -1.627  0.00  0.00    -0.317 N 
ATOM     25  H   UNL     1       1.062 -10.245  -1.244  0.00  0.00    +0.149 HD
BRANCH  24  26
ATOM     26  C   UNL     1      -0.429  -9.780  -2.681  0.00  0.00    +0.109 C 
BRANCH  26  27
ATOM     27  C   UNL     1      -0.454 -11.278  -2.990  0.00  0.00    +0.054 C 
BRANCH  27  28
ATOM     28  C   UNL     1      -1.463 -11.551  -4.075  0.00  0.00    -0.046 A 
ATOM     29  C   UNL     1      -2.776 -11.828  -3.742  0.00  0.00    +0.007 A 
ATOM     30  C   UNL     1      -3.704 -12.079  -4.734  0.00  0.00    +0.046 A 
ATOM     31  C   UNL     1      -3.317 -12.053  -6.066  0.00  0.00    +0.127 A 
ATOM     32  C   UNL     1      -1.999 -11.774  -6.398  0.00  0.00    +0.046 A 
ATOM     33  C   UNL     1      -1.077 -11.519  -5.402  0.00  0.00    +0.007 A 
BRANCH  31  34
ATOM     34  O   UNL     1      -4.228 -12.300  -7.045  0.00  0.00    -0.434 OA
BRANCH  34  35
ATOM     35  C   UNL     1      -3.758 -12.256  -8.394  0.00  0.00    +0.541 C 
ATOM     36  F   UNL     1      -3.248 -10.983  -8.668  0.00  0.00    -0.166 F 
ATOM     37  F   UNL     1      -2.751 -13.210  -8.568  0.00  0.00    -0.166 F 
ENDBRANCH  34  35
ENDBRANCH  31  34
ENDBRANCH  27  28
ENDBRANCH  26  27
ENDBRANCH  24  26
ENDBRANCH  21  22
ENDBRANCH   1  21
TORSDOF 12
