REMARK  Name = ZINC32869775
REMARK  6 active torsions:
REMARK  status: ('A' for Active; 'I' for Inactive)
REMARK    1  A    between atoms: C_1  and  O_2
REMARK    2  A    between atoms: O_2  and  C_3
REMARK    3  A    between atoms: C_5  and  C_17
REMARK    4  A    between atoms: C_8  and  O_9
REMARK    5  A    between atoms: O_9  and  C_10
REMARK    6  A    between atoms: C_10  and  C_12
REMARK                            x       y       z     vdW  Elec       q    Type
REMARK                         _______ _______ _______ _____ _____    ______ ____
ROOT
ATOM      1  C   UNL     1      -8.604  -0.484   0.065  0.00  0.00    +0.218 C 
ATOM      2  N   UNL     1      -8.525  -1.724  -0.727  0.00  0.00    -0.337 N 
ATOM      3  C   UNL     1      -8.018  -2.864  -0.163  0.00  0.00    +0.159 C 
ATOM      4  N   UNL     1      -8.126  -3.098   1.134  0.00  0.00    -0.259 N 
ATOM      5  C   UNL     1      -8.689  -2.149   1.916  0.00  0.00    +0.205 A 
ATOM      6  N   UNL     1      -8.955  -0.877   1.435  0.00  0.00    -0.287 N 
ATOM      7  C   UNL     1      -9.545  -0.174   2.441  0.00  0.00    +0.072 A 
ATOM      8  C   UNL     1     -10.031   1.125   2.530  0.00  0.00    +0.028 A 
ATOM      9  C   UNL     1     -10.577   1.515   3.742  0.00  0.00    +0.002 A 
ATOM     10  C   UNL     1     -10.642   0.658   4.827  0.00  0.00    +0.002 A 
ATOM     11  C   UNL     1     -10.166  -0.639   4.766  0.00  0.00    +0.030 A 
ATOM     12  C   UNL     1      -9.611  -1.056   3.551  0.00  0.00    +0.091 A 
ATOM     13  N   UNL     1      -9.076  -2.232   3.167  0.00  0.00    -0.214 NA
ATOM     14  N   UNL     1      -7.386  -3.781  -0.958  0.00  0.00    -0.332 N 
ATOM     15  H   UNL     1      -6.975  -4.701  -0.517  0.00  0.00    +0.145 HD
ATOM     16  H   UNL     1      -7.763  -4.048   1.554  0.00  0.00    +0.158 HD
ATOM     17  H   UNL     1      -7.290  -3.598  -2.038  0.00  0.00    +0.145 HD
ATOM     18  H   UNL     1      -8.872  -1.734  -1.770  0.00  0.00    +0.164 HD
ENDROOT
BRANCH   1  21
ATOM     19  C   UNL     1      -5.997   2.249  -0.005  0.00  0.00    +0.163 A 
ATOM     20  C   UNL     1      -7.221   1.601   0.003  0.00  0.00    +0.057 A 
ATOM     21  C   UNL     1      -7.272   0.220   0.056  0.00  0.00    -0.001 A 
ATOM     22  C   UNL     1      -6.103  -0.516   0.099  0.00  0.00    +0.011 A 
ATOM     23  C   UNL     1      -4.878   0.124   0.086  0.00  0.00    +0.050 A 
ATOM     24  C   UNL     1      -4.820   1.508   0.039  0.00  0.00    +0.173 A 
BRANCH  19  26
ATOM     25  C   UNL     1      -7.193   4.302  -0.100  0.00  0.00    +0.277 C 
ATOM     26  O   UNL     1      -5.946   3.607  -0.057  0.00  0.00    -0.491 OA
ENDBRANCH  19  26
BRANCH  24  27
ATOM     27  O   UNL     1      -3.616   2.140   0.030  0.00  0.00    -0.418 OA
BRANCH  27  28
ATOM     28  C   UNL     1      -3.128   2.544   1.221  0.00  0.00    +0.351 C 
ATOM     29  O   UNL     1      -3.801   2.422   2.227  0.00  0.00    -0.244 OA
BRANCH  28  30
ATOM     30  C   UNL     1      -1.789   3.131   1.302  0.00  0.00    +0.097 A 
ATOM     31  C   UNL     1      -1.109   3.605   2.414  0.00  0.00    +0.022 A 
ATOM     32  C   UNL     1       0.153   4.104   2.208  0.00  0.00    +0.008 A 
ATOM     33  C   UNL     1       0.664   4.116   0.949  0.00  0.00    +0.046 A 
ATOM     34  S   UNL     1      -0.609   3.424  -0.003  0.00  0.00    -0.090 S 
ENDBRANCH  28  30
ENDBRANCH  27  28
ENDBRANCH  24  27
ENDBRANCH   1  21
TORSDOF 5
