REMARK  Name = ZINC14534362
REMARK  9 active torsions:
REMARK  status: ('A' for Active; 'I' for Inactive)
REMARK    1  A    between atoms: C_1  and  C_2
REMARK    2  A    between atoms: C_2  and  O_3
REMARK    3  A    between atoms: O_3  and  C_4
REMARK    4  A    between atoms: C_4  and  C_6
REMARK    5  A    between atoms: N_9  and  C_11
REMARK    6  A    between atoms: C_11  and  C_12
REMARK    7  A    between atoms: C_22  and  C_24
REMARK    8  A    between atoms: C_24  and  N_25
REMARK    9  A    between atoms: C_27  and  C_32
REMARK                            x       y       z     vdW  Elec       q    Type
REMARK                         _______ _______ _______ _____ _____    ______ ____
ROOT
ATOM      1  C   UNL     1      -1.364  11.210  -2.350  0.00  0.00    +0.174 A 
ATOM      2  C   UNL     1      -1.864   9.900  -2.438  0.00  0.00    +0.025 A 
ATOM      3  C   UNL     1      -3.210  10.002  -2.312  0.00  0.00    +0.047 A 
ATOM      4  N   UNL     1      -3.494  11.308  -2.161  0.00  0.00    -0.263 N 
ATOM      5  N   UNL     1      -2.410  12.002  -2.184  0.00  0.00    -0.164 NA
ATOM      6  C   UNL     1      -4.157   8.831  -2.341  0.00  0.00    +0.074 C 
ATOM      7  C   UNL     1      -3.437   7.631  -2.970  0.00  0.00    +0.114 C 
ATOM      8  N   UNL     1      -2.090   7.513  -2.392  0.00  0.00    -0.295 N 
ATOM      9  C   UNL     1      -1.128   8.606  -2.632  0.00  0.00    +0.147 C 
ATOM     10  C   UNL     1      -1.745   6.437  -1.658  0.00  0.00    +0.233 C 
ATOM     11  O   UNL     1      -0.630   6.356  -1.188  0.00  0.00    -0.274 OA
ENDROOT
BRANCH   1  12
ATOM     12  C   UNL     1       0.051  11.620  -2.427  0.00  0.00    +0.360 C 
ATOM     13  O   UNL     1       0.919  10.784  -2.583  0.00  0.00    -0.243 OA
BRANCH  12  14
ATOM     14  O   UNL     1       0.381  12.923  -2.326  0.00  0.00    -0.460 OA
BRANCH  14  16
ATOM     15  C   UNL     1       1.970  14.767  -2.276  0.00  0.00    +0.048 C 
ATOM     16  C   UNL     1       1.792  13.254  -2.411  0.00  0.00    +0.229 C 
ENDBRANCH  14  16
ENDBRANCH  12  14
ENDBRANCH   1  12
BRANCH   4  17
ATOM     17  C   UNL     1      -4.841  11.860  -1.997  0.00  0.00    +0.179 C 
BRANCH  17  18
ATOM     18  C   UNL     1      -5.187  11.912  -0.531  0.00  0.00    -0.026 A 
ATOM     19  C   UNL     1      -5.812  10.836   0.071  0.00  0.00    +0.005 A 
ATOM     20  C   UNL     1      -6.125  10.882   1.416  0.00  0.00    +0.000 A 
ATOM     21  C   UNL     1      -5.823  12.009   2.158  0.00  0.00    +0.000 A 
ATOM     22  C   UNL     1      -5.203  13.087   1.555  0.00  0.00    +0.000 A 
ATOM     23  C   UNL     1      -4.886  13.039   0.210  0.00  0.00    +0.005 A 
ENDBRANCH  17  18
ENDBRANCH   4  17
BRANCH  10  24
ATOM     24  C   UNL     1      -2.745   5.335  -1.420  0.00  0.00    +0.203 C 
BRANCH  24  25
ATOM     25  N   UNL     1      -2.132   4.288  -0.600  0.00  0.00    -0.292 N 
ATOM     26  C   UNL     1      -1.404   3.133  -1.139  0.00  0.00    +0.117 C 
ATOM     27  C   UNL     1      -1.332   2.114   0.020  0.00  0.00    +0.045 C 
ATOM     28  C   UNL     1      -1.441   3.035   1.257  0.00  0.00    +0.105 C 
ATOM     29  C   UNL     1      -2.163   4.261   0.744  0.00  0.00    +0.217 C 
ATOM     30  O   UNL     1      -2.692   5.099   1.443  0.00  0.00    -0.276 OA
BRANCH  27  31
ATOM     31  C   UNL     1      -0.017   1.378   0.010  0.00  0.00    -0.042 A 
ATOM     32  C   UNL     1       1.171   2.086   0.002  0.00  0.00    +0.004 A 
ATOM     33  C   UNL     1       2.377   1.411  -0.015  0.00  0.00    +0.000 A 
ATOM     34  C   UNL     1       2.396   0.029  -0.021  0.00  0.00    +0.000 A 
ATOM     35  C   UNL     1       1.208  -0.679  -0.013  0.00  0.00    +0.000 A 
ATOM     36  C   UNL     1       0.002  -0.004   0.002  0.00  0.00    +0.004 A 
ENDBRANCH  27  31
ENDBRANCH  24  25
ENDBRANCH  10  24
TORSDOF 8
