REMARK  Name = ZINC02316484
REMARK  11 active torsions:
REMARK  status: ('A' for Active; 'I' for Inactive)
REMARK    1  A    between atoms: C_1  and  C_2
REMARK    2  A    between atoms: C_9  and  N_14
REMARK    3  A    between atoms: C_10  and  C_11
REMARK    4  A    between atoms: N_14  and  C_15
REMARK    5  A    between atoms: C_15  and  N_17
REMARK    6  A    between atoms: C_18  and  C_20
REMARK    7  A    between atoms: C_21  and  C_22
REMARK    8  A    between atoms: C_25  and  O_30
REMARK    9  A    between atoms: C_26  and  O_28
REMARK   10  A    between atoms: O_28  and  C_29
REMARK   11  A    between atoms: O_30  and  C_31
REMARK                            x       y       z     vdW  Elec       q    Type
REMARK                         _______ _______ _______ _____ _____    ______ ____
ROOT
ATOM      1  C   UNL     1       2.320   1.245  -0.013  0.00  0.00    +0.141 C 
ATOM      2  S   UNL     1       2.343  -0.467  -0.023  0.00  0.00    -0.018 S 
ENDROOT
BRANCH   1   3
ATOM      3  N   UNL     1       1.143   1.903   0.001  0.00  0.00    -0.264 N 
ATOM      4  C   UNL     1      -0.014   1.213   0.009  0.00  0.00    +0.242 C 
ATOM      5  O   UNL     1       0.002  -0.004   0.002  0.00  0.00    -0.270 OA
ATOM      6  H   UNL     1       1.130   2.872   0.007  0.00  0.00    +0.157 HD
BRANCH   4   7
ATOM      7  C   UNL     1      -1.290   1.926   0.019  0.00  0.00    +0.068 C 
ATOM      8  C   UNL     1      -2.450   1.235   0.020  0.00  0.00    +0.013 C 
BRANCH   8   9
ATOM      9  C   UNL     1      -3.733   1.952   0.030  0.00  0.00    -0.021 A 
ATOM     10  C   UNL     1      -3.754   3.352   0.038  0.00  0.00    +0.012 A 
ATOM     11  C   UNL     1      -4.958   4.022   0.047  0.00  0.00    +0.050 A 
ATOM     12  C   UNL     1      -6.151   3.312   0.048  0.00  0.00    +0.162 A 
ATOM     13  C   UNL     1      -6.138   1.918   0.040  0.00  0.00    +0.162 A 
ATOM     14  C   UNL     1      -4.937   1.238   0.026  0.00  0.00    +0.057 A 
BRANCH  13  15
ATOM     15  O   UNL     1      -7.310   1.227   0.041  0.00  0.00    -0.491 OA
ATOM     16  C   UNL     1      -7.222  -0.199   0.033  0.00  0.00    +0.277 C 
ENDBRANCH  13  15
BRANCH  12  17
ATOM     17  O   UNL     1      -7.335   3.979   0.056  0.00  0.00    -0.491 OA
ATOM     18  C   UNL     1      -7.276   5.406   0.063  0.00  0.00    +0.277 C 
ENDBRANCH  12  17
ENDBRANCH   8   9
ENDBRANCH   4   7
ENDBRANCH   1   3
BRANCH   1  19
ATOM     19  N   UNL     1       3.478   1.934  -0.021  0.00  0.00    -0.291 N 
ATOM     20  H   UNL     1       3.464   2.904  -0.015  0.00  0.00    +0.154 HD
BRANCH  19  28
ATOM     21  C   UNL     1      10.082  -2.256  -0.011  0.00  0.00    +0.008 C 
ATOM     22  C   UNL     1       9.066  -1.152   0.290  0.00  0.00    -0.009 C 
ATOM     23  C   UNL     1       9.395   0.089  -0.543  0.00  0.00    +0.008 C 
ATOM     24  C   UNL     1       8.546   1.272  -0.074  0.00  0.00    +0.037 C 
ATOM     25  C   UNL     1       7.082   0.850  -0.061  0.00  0.00    -0.023 A 
ATOM     26  C   UNL     1       6.734  -0.456  -0.065  0.00  0.00    -0.004 A 
ATOM     27  S   UNL     1       4.964  -0.452  -0.048  0.00  0.00    -0.077 S 
ATOM     28  C   UNL     1       4.687   1.258  -0.036  0.00  0.00    +0.084 A 
ATOM     29  C   UNL     1       5.970   1.786  -0.051  0.00  0.00    +0.068 A 
ATOM     30  C   UNL     1       7.656  -1.636  -0.079  0.00  0.00    +0.046 C 
BRANCH  29  31
ATOM     31  C   UNL     1       6.197   3.234  -0.052  0.00  0.00    +0.244 C 
ATOM     32  O   UNL     1       6.304   3.834   1.001  0.00  0.00    -0.270 OA
ATOM     33  N   UNL     1       6.286   3.901  -1.220  0.00  0.00    -0.325 N 
ATOM     34  H   UNL     1       6.200   3.423  -2.059  0.00  0.00    +0.145 HD
ATOM     35  H   UNL     1       6.436   4.860  -1.220  0.00  0.00    +0.145 HD
ENDBRANCH  29  31
ENDBRANCH  19  28
ENDBRANCH   1  19
TORSDOF 8
