REMARK  Name = ZINC39653072
REMARK  12 active torsions:
REMARK  status: ('A' for Active; 'I' for Inactive)
REMARK    1  A    between atoms: C_1  and  C_2
REMARK    2  A    between atoms: C_2  and  O_3
REMARK    3  A    between atoms: O_3  and  C_4
REMARK    4  A    between atoms: C_9  and  C_10
REMARK    5  A    between atoms: C_14  and  C_23
REMARK    6  A    between atoms: N_25  and  C_26
REMARK    7  A    between atoms: C_26  and  C_27
REMARK    8  A    between atoms: C_27  and  C_28
REMARK    9  A    between atoms: C_30  and  O_36
REMARK   10  A    between atoms: C_32  and  O_34
REMARK   11  A    between atoms: O_34  and  C_35
REMARK   12  A    between atoms: O_36  and  C_37
REMARK                            x       y       z     vdW  Elec       q    Type
REMARK                         _______ _______ _______ _____ _____    ______ ____
ROOT
ATOM      1  C   UNL     1      -3.847  -1.687   0.105  0.00  0.00    +0.250 C 
ATOM      2  O   UNL     1      -3.669  -0.485   0.135  0.00  0.00    -0.270 OA
ATOM      3  N   UNL     1      -5.092  -2.181  -0.038  0.00  0.00    -0.296 N 
ATOM      4  C   UNL     1      -5.518  -3.600   0.010  0.00  0.00    +0.121 C 
ATOM      5  C   UNL     1      -6.862  -3.579   0.772  0.00  0.00    +0.100 C 
ATOM      6  C   UNL     1      -7.401  -2.152   0.576  0.00  0.00    -0.004 C 
ATOM      7  C   UNL     1      -6.347  -1.428  -0.274  0.00  0.00    +0.115 C 
ATOM      8  C   UNL     1      -7.553  -1.454   1.925  0.00  0.00    -0.010 C 
ATOM      9  C   UNL     1      -8.144  -0.059   1.708  0.00  0.00    -0.082 C 
ATOM     10  N   UNL     1      -9.449  -0.175   1.046  0.00  0.00    +0.379 N 
ATOM     11  C   UNL     1      -9.282  -0.763  -0.289  0.00  0.00    -0.082 C 
ATOM     12  C   UNL     1      -8.739  -2.188  -0.157  0.00  0.00    -0.010 C 
ATOM     13  H   UNL     1     -10.053  -0.764   1.598  0.00  0.00    -0.086 HD
ATOM     14  H   UNL     1      -9.864   0.741   0.960  0.00  0.00    -0.086 HD
ENDROOT
BRANCH   1  20
ATOM     15  C   UNL     1      -1.604  -2.263   1.032  0.00  0.00    +0.133 A 
ATOM     16  C   UNL     1      -0.532  -3.136   1.143  0.00  0.00    +0.046 A 
ATOM     17  C   UNL     1      -0.542  -4.335   0.458  0.00  0.00    +0.004 A 
ATOM     18  C   UNL     1      -1.619  -4.674  -0.344  0.00  0.00    +0.001 A 
ATOM     19  C   UNL     1      -2.693  -3.819  -0.466  0.00  0.00    +0.017 A 
ATOM     20  C   UNL     1      -2.698  -2.605   0.227  0.00  0.00    +0.078 A 
BRANCH  15  21
ATOM     21  O   UNL     1      -1.595  -1.085   1.705  0.00  0.00    -0.491 OA
BRANCH  21  23
ATOM     22  C   UNL     1      -0.617   0.558   3.182  0.00  0.00    +0.048 C 
ATOM     23  C   UNL     1      -0.446  -0.803   2.506  0.00  0.00    +0.226 C 
ENDBRANCH  21  23
ENDBRANCH  15  21
ENDBRANCH   1  20
BRANCH   5  24
ATOM     24  C   UNL     1      -7.814  -4.588   0.184  0.00  0.00    +0.218 C 
ATOM     25  O   UNL     1      -7.758  -4.858  -0.997  0.00  0.00    -0.275 OA
ATOM     26  N   UNL     1      -8.729  -5.189   0.971  0.00  0.00    -0.315 N 
ATOM     27  H   UNL     1      -8.774  -4.973   1.915  0.00  0.00    +0.149 HD
BRANCH  26  28
ATOM     28  C   UNL     1      -9.655  -6.170   0.399  0.00  0.00    +0.109 C 
BRANCH  28  29
ATOM     29  C   UNL     1     -10.581  -6.697   1.497  0.00  0.00    +0.054 C 
BRANCH  29  30
ATOM     30  C   UNL     1     -11.534  -7.706   0.909  0.00  0.00    -0.039 A 
ATOM     31  C   UNL     1     -12.748  -7.291   0.396  0.00  0.00    +0.049 A 
ATOM     32  C   UNL     1     -13.627  -8.218  -0.146  0.00  0.00    +0.124 A 
ATOM     33  C   UNL     1     -13.286  -9.562  -0.173  0.00  0.00    +0.091 A 
ATOM     34  C   UNL     1     -12.067  -9.975   0.342  0.00  0.00    +0.124 A 
ATOM     35  C   UNL     1     -11.189  -9.044   0.878  0.00  0.00    +0.049 A 
BRANCH  34  36
ATOM     36  O   UNL     1     -11.730 -11.292   0.317  0.00  0.00    -0.495 OA
ATOM     37  C   UNL     1     -12.679 -12.194  -0.254  0.00  0.00    +0.277 C 
ENDBRANCH  34  36
BRANCH  32  38
ATOM     38  O   UNL     1     -14.821  -7.810  -0.649  0.00  0.00    -0.495 OA
ATOM     39  C   UNL     1     -15.676  -8.819  -1.191  0.00  0.00    +0.277 C 
ENDBRANCH  32  38
ENDBRANCH  29  30
ENDBRANCH  28  29
ENDBRANCH  26  28
ENDBRANCH   5  24
TORSDOF 9
