REMARK  Name = ZINC21316347
REMARK  11 active torsions:
REMARK  status: ('A' for Active; 'I' for Inactive)
REMARK    1  A    between atoms: C_1  and  C_2
REMARK    2  A    between atoms: C_2  and  C_3
REMARK    3  A    between atoms: C_3  and  C_5
REMARK    4  A    between atoms: C_3  and  C_6
REMARK    5  A    between atoms: C_9  and  N_12
REMARK    6  A    between atoms: C_13  and  C_15
REMARK    7  A    between atoms: C_15  and  S_16
REMARK    8  A    between atoms: S_16  and  C_17
REMARK    9  A    between atoms: N_21  and  N_22
REMARK   10  A    between atoms: N_23  and  N_24
REMARK   11  A    between atoms: C_25  and  C_26
REMARK                            x       y       z     vdW  Elec       q    Type
REMARK                         _______ _______ _______ _____ _____    ______ ____
ROOT
ATOM      1  C   UNL     1      -4.473   9.337   0.105  0.00  0.00    +0.210 A 
ATOM      2  N   UNL     1      -3.162   9.351   0.102  0.00  0.00    -0.119 NA
ATOM      3  N   UNL     1      -2.715   8.023   0.103  0.00  0.00    -0.109 NA
ATOM      4  C   UNL     1      -3.767   7.242   0.098  0.00  0.00    +0.254 A 
ATOM      5  N   UNL     1      -4.882   8.034   0.102  0.00  0.00    -0.211 N 
ATOM      6  N   UNL     1      -3.753   5.854   0.094  0.00  0.00    -0.204 N 
ATOM      7  H   UNL     1      -4.699   5.294   0.095  0.00  0.00    +0.177 HD
ENDROOT
BRANCH   5   8
ATOM      8  N   UNL     1      -6.176   7.598   0.104  0.00  0.00    -0.294 N 
ATOM      9  H   UNL     1      -6.394   6.519   0.101  0.00  0.00    +0.163 HD
ATOM     10  H   UNL     1      -7.002   8.325   0.107  0.00  0.00    +0.163 HD
ENDBRANCH   5   8
BRANCH   6  11
ATOM     11  N   UNL     1      -2.532   5.167   0.089  0.00  0.00    -0.187 NA
ATOM     12  C   UNL     1      -2.518   3.868   0.086  0.00  0.00    +0.139 C 
BRANCH  12  13
ATOM     13  C   UNL     1      -1.234   3.144   0.081  0.00  0.00    +0.014 A 
ATOM     14  C   UNL     1      -1.216   1.747   0.071  0.00  0.00    +0.011 A 
ATOM     15  C   UNL     1      -0.011   1.076   0.072  0.00  0.00    +0.002 A 
ATOM     16  C   UNL     1       1.179   1.782   0.071  0.00  0.00    +0.021 A 
ATOM     17  C   UNL     1       1.171   3.167   0.075  0.00  0.00    +0.060 A 
ATOM     18  C   UNL     1      -0.029   3.853   0.080  0.00  0.00    +0.068 A 
ATOM     19 CL   UNL     1      -0.039   5.588   0.085  0.00  0.00    -0.081 Cl
ATOM     20 CL   UNL     1       2.670   4.043   0.074  0.00  0.00    -0.082 Cl
ENDBRANCH  12  13
ENDBRANCH   6  11
BRANCH   1  21
ATOM     21  S   UNL     1      -5.524  10.751   0.110  0.00  0.00    -0.075 S 
BRANCH  21  22
ATOM     22  C   UNL     1      -4.373  12.153   0.112  0.00  0.00    +0.173 C 
BRANCH  22  24
ATOM     23  N   UNL     1      -4.502  14.624   0.118  0.00  0.00    -0.285 N 
ATOM     24  C   UNL     1      -5.152  13.443   0.116  0.00  0.00    +0.227 C 
ATOM     25  O   UNL     1      -6.365  13.419   0.118  0.00  0.00    -0.275 OA
ATOM     26  H   UNL     1      -3.404  14.647   0.193  0.00  0.00    +0.155 HD
BRANCH  23  30
ATOM     27  C   UNL     1      -6.646  18.184  -0.161  0.00  0.00    -0.044 A 
ATOM     28  C   UNL     1      -7.176  17.112   0.533  0.00  0.00    +0.006 A 
ATOM     29  C   UNL     1      -6.468  15.930   0.627  0.00  0.00    +0.023 A 
ATOM     30  C   UNL     1      -5.222  15.820   0.024  0.00  0.00    +0.033 A 
ATOM     31  C   UNL     1      -4.690  16.900  -0.666  0.00  0.00    +0.023 A 
ATOM     32  C   UNL     1      -5.406  18.077  -0.762  0.00  0.00    +0.006 A 
BRANCH  27  33
ATOM     33  C   UNL     1      -7.422  19.473  -0.261  0.00  0.00    +0.016 C 
ATOM     34  C   UNL     1      -6.608  20.608   0.363  0.00  0.00    +0.012 C 
BRANCH  33  36
ATOM     35  C   UNL     1      -8.588  21.029  -1.831  0.00  0.00    +0.004 C 
ATOM     36  C   UNL     1      -7.695  19.790  -1.733  0.00  0.00    +0.004 C 
ENDBRANCH  33  36
ENDBRANCH  27  33
ENDBRANCH  23  30
ENDBRANCH  22  24
ENDBRANCH  21  22
ENDBRANCH   1  21
TORSDOF 9
