REMARK  Name = ZINC66115484
REMARK  8 active torsions:
REMARK  status: ('A' for Active; 'I' for Inactive)
REMARK    1  A    between atoms: C_9  and  O_25
REMARK    2  A    between atoms: C_10  and  C_11
REMARK    3  A    between atoms: C_11  and  N_12
REMARK    4  A    between atoms: C_18  and  C_20
REMARK    5  A    between atoms: C_20  and  C_21
REMARK    6  A    between atoms: N_23  and  N_24
REMARK    7  A    between atoms: O_25  and  C_26
REMARK    8  A    between atoms: C_26  and  C_27
REMARK                            x       y       z     vdW  Elec       q    Type
REMARK                         _______ _______ _______ _____ _____    ______ ____
ROOT
ATOM      1  C   UNL     1       4.985   0.550   0.097  0.00  0.00    -0.038 C 
ENDROOT
BRANCH   1  11
ATOM      2  C   UNL     1       0.227   2.381   0.537  0.00  0.00    +0.001 A 
ATOM      3  C   UNL     1       1.503   2.917   0.700  0.00  0.00    +0.001 A 
ATOM      4  C   UNL     1       2.613   2.155   0.505  0.00  0.00    +0.009 A 
ATOM      5  C   UNL     1       2.474   0.806   0.136  0.00  0.00    -0.013 A 
ATOM      6  C   UNL     1       1.176   0.260  -0.029  0.00  0.00    -0.017 A 
ATOM      7  C   UNL     1       0.054   1.080   0.180  0.00  0.00    +0.008 A 
ATOM      8  C   UNL     1       1.035  -1.088  -0.399  0.00  0.00    +0.012 A 
ATOM      9  C   UNL     1       2.143  -1.854  -0.593  0.00  0.00    +0.046 A 
ATOM     10  C   UNL     1       3.424  -1.318  -0.431  0.00  0.00    +0.123 A 
ATOM     11  C   UNL     1       3.597  -0.011  -0.073  0.00  0.00    -0.015 A 
BRANCH  10  12
ATOM     12  O   UNL     1       4.511  -2.108  -0.632  0.00  0.00    -0.489 OA
BRANCH  12  13
ATOM     13  C   UNL     1       4.266  -3.466  -1.004  0.00  0.00    +0.260 C 
BRANCH  13  14
ATOM     14  C   UNL     1       5.600  -4.194  -1.185  0.00  0.00    +0.156 C 
ATOM     15  C   UNL     1       5.350  -5.626  -1.704  0.00  0.00    +0.037 C 
ATOM     16  C   UNL     1       6.405  -6.451  -0.918  0.00  0.00    +0.031 C 
ATOM     17  C   UNL     1       6.433  -5.685   0.429  0.00  0.00    +0.160 C 
ATOM     18  O   UNL     1       6.271  -4.300   0.077  0.00  0.00    -0.373 OA
ENDBRANCH  13  14
ENDBRANCH  12  13
ENDBRANCH  10  12
ENDBRANCH   1  11
BRANCH   1  19
ATOM     19  N   UNL     1       5.420   0.369   1.488  0.00  0.00    +0.391 N 
ATOM     20  C   UNL     1       4.566   1.170   2.379  0.00  0.00    -0.058 C 
ATOM     21  C   UNL     1       4.863   0.780   3.829  0.00  0.00    +0.085 C 
ATOM     22  N   UNL     1       6.302   0.830   4.072  0.00  0.00    -0.318 N 
ATOM     23  C   UNL     1       7.202   0.835   3.082  0.00  0.00    +0.200 C 
ATOM     24  O   UNL     1       8.380   0.854   3.366  0.00  0.00    -0.278 OA
ATOM     25  C   UNL     1       6.810   0.818   1.631  0.00  0.00    +0.028 C 
ATOM     26  H   UNL     1       6.619   0.861   4.989  0.00  0.00    +0.149 HD
ATOM     27  H   UNL     1       5.352  -0.606   1.739  0.00  0.00    -0.080 HD
BRANCH  25  28
ATOM     28  C   UNL     1       7.732  -0.136   0.869  0.00  0.00    +0.091 C 
BRANCH  28  29
ATOM     29  C   UNL     1       9.135   0.415   0.866  0.00  0.00    +0.225 C 
ATOM     30  O   UNL     1       9.348   1.532   1.289  0.00  0.00    -0.275 OA
ATOM     31  N   UNL     1      10.152  -0.332   0.394  0.00  0.00    -0.254 N 
ATOM     32  H   UNL     1       9.981  -1.225   0.056  0.00  0.00    +0.169 HD
BRANCH  31  33
ATOM     33  N   UNL     1      11.423   0.168   0.392  0.00  0.00    -0.254 NA
ATOM     34  H   UNL     1      11.700   0.455   1.319  0.00  0.00    +0.140 HD
ATOM     35  H   UNL     1      12.074  -0.502   0.011  0.00  0.00    +0.140 HD
ENDBRANCH  31  33
ENDBRANCH  28  29
ENDBRANCH  25  28
ENDBRANCH   1  19
TORSDOF 8
