REMARK  Name = ZINC40370052
REMARK  5 active torsions:
REMARK  status: ('A' for Active; 'I' for Inactive)
REMARK    1  A    between atoms: C_1  and  C_2
REMARK    2  A    between atoms: C_2  and  C_4
REMARK    3  A    between atoms: C_2  and  N_8
REMARK    4  A    between atoms: N_5  and  O_6
REMARK    5  A    between atoms: C_9  and  C_11
REMARK                            x       y       z     vdW  Elec       q    Type
REMARK                         _______ _______ _______ _____ _____    ______ ____
ROOT
ATOM      1  N   UNL     1       0.688  -0.476  -1.203  0.00  0.00    -0.305 N 
ATOM      2  C   UNL     1       0.006  -0.608  -2.358  0.00  0.00    +0.220 C 
ATOM      3  O   UNL     1      -1.175  -0.336  -2.400  0.00  0.00    -0.275 OA
ATOM      4  H   UNL     1       1.632  -0.695  -1.170  0.00  0.00    +0.149 HD
ENDROOT
BRANCH   2   5
ATOM      5  C   UNL     1       0.712  -1.094  -3.598  0.00  0.00    +0.048 C 
ATOM      6  C   UNL     1       1.284  -2.490  -3.346  0.00  0.00    +0.019 C 
ATOM      7  C   UNL     1       2.000  -2.984  -4.604  0.00  0.00    -0.009 C 
ATOM      8  C   UNL     1       1.006  -3.042  -5.766  0.00  0.00    +0.007 C 
ATOM      9  C   UNL     1       0.434  -1.646  -6.019  0.00  0.00    -0.009 C 
ATOM     10  C   UNL     1      -0.282  -1.153  -4.761  0.00  0.00    +0.019 C 
ATOM     11  C   UNL     1       1.572  -0.685  -6.369  0.00  0.00    +0.007 C 
ATOM     12  C   UNL     1       2.565  -0.626  -5.207  0.00  0.00    -0.009 C 
ATOM     13  C   UNL     1       3.137  -2.022  -4.954  0.00  0.00    +0.007 C 
ATOM     14  C   UNL     1       1.849  -0.133  -3.948  0.00  0.00    +0.019 C 
ENDBRANCH   2   5
BRANCH   1  16
ATOM     15  C   UNL     1      -0.019   1.526   0.010  0.00  0.00    +0.036 C 
ATOM     16  C   UNL     1       0.002  -0.004   0.002  0.00  0.00    +0.136 C 
BRANCH  16  17
ATOM     17  C   UNL     1       0.731  -0.503   1.223  0.00  0.00    +0.152 C 
ATOM     18  N   UNL     1       0.099  -0.641   2.341  0.00  0.00    -0.075 NA
ATOM     19  N   UNL     1       2.071  -0.812   1.147  0.00  0.00    -0.342 N 
ATOM     20  H   UNL     1       2.546  -0.709   0.307  0.00  0.00    +0.144 HD
ATOM     21  H   UNL     1       2.540  -1.134   1.933  0.00  0.00    +0.144 HD
BRANCH  18  22
ATOM     22  O   UNL     1       0.784  -1.111   3.488  0.00  0.00    -0.408 OA
ATOM     23  H   UNL     1       0.228  -1.181   4.277  0.00  0.00    +0.328 HD
ENDBRANCH  18  22
ENDBRANCH  16  17
ENDBRANCH   1  16
TORSDOF 4
