REMARK  Name = ZINC43740312
REMARK  6 active torsions:
REMARK  status: ('A' for Active; 'I' for Inactive)
REMARK    1  A    between atoms: C_1  and  C_2
REMARK    2  A    between atoms: C_5  and  O_36
REMARK    3  A    between atoms: C_18  and  C_35
REMARK    4  A    between atoms: C_23  and  N_25
REMARK    5  A    between atoms: C_26  and  C_28
REMARK    6  A    between atoms: C_28  and  N_29
REMARK                            x       y       z     vdW  Elec       q    Type
REMARK                         _______ _______ _______ _____ _____    ______ ____
ROOT
ATOM      1  C   UNL     1       0.042   1.454  -0.168  0.00  0.00    +0.012 C 
ATOM      2  C   UNL     1       0.032  -0.084  -0.161  0.00  0.00    -0.026 C 
ATOM      3  C   UNL     1       0.710  -0.572  -1.446  0.00  0.00    +0.010 C 
ATOM      4  C   UNL     1       2.165  -0.108  -1.491  0.00  0.00    +0.032 C 
ATOM      5  C   UNL     1       2.924  -0.638  -0.274  0.00  0.00    +0.115 C 
ATOM      6  C   UNL     1       2.256  -0.147   1.011  0.00  0.00    +0.035 C 
ATOM      7  C   UNL     1       0.801  -0.603   1.048  0.00  0.00    -0.002 C 
ATOM      8  C   UNL     1       0.125  -0.114   2.330  0.00  0.00    +0.004 C 
ATOM      9  C   UNL     1      -1.281  -0.703   2.389  0.00  0.00    +0.004 C 
ATOM     10  C   UNL     1      -2.128  -0.267   1.189  0.00  0.00    -0.004 C 
ATOM     11  C   UNL     1      -1.418  -0.535  -0.132  0.00  0.00    -0.001 C 
ATOM     12  C   UNL     1      -1.615  -1.986  -0.557  0.00  0.00    +0.005 C 
ATOM     13  C   UNL     1      -3.070  -2.184  -1.023  0.00  0.00    +0.009 C 
ATOM     14  C   UNL     1      -3.992  -1.338  -0.176  0.00  0.00    -0.011 C 
ATOM     15  C   UNL     1      -3.395  -1.106   1.224  0.00  0.00    +0.000 C 
ATOM     16  C   UNL     1      -4.572  -0.496   1.993  0.00  0.00    +0.006 C 
ATOM     17  C   UNL     1      -5.823  -1.189   1.392  0.00  0.00    +0.023 C 
ATOM     18  C   UNL     1      -5.311  -2.054   0.210  0.00  0.00    +0.079 C 
ATOM     19  C   UNL     1      -4.365  -0.033  -0.883  0.00  0.00    +0.013 C 
ENDROOT
BRANCH  18  20
ATOM     20  N   UNL     1      -6.252  -2.014  -0.912  0.00  0.00    -0.311 N 
ATOM     21  C   UNL     1      -7.213  -2.953  -1.019  0.00  0.00    +0.227 C 
ATOM     22  O   UNL     1      -7.299  -3.831  -0.186  0.00  0.00    -0.274 OA
ATOM     23  H   UNL     1      -6.183  -1.312  -1.578  0.00  0.00    +0.149 HD
BRANCH  21  24
ATOM     24  C   UNL     1      -8.181  -2.912  -2.174  0.00  0.00    +0.180 C 
BRANCH  24  25
ATOM     25  N   UNL     1      -9.122  -4.035  -2.063  0.00  0.00    -0.290 NA
ATOM     26  C   UNL     1      -8.432  -5.321  -2.239  0.00  0.00    +0.113 C 
ATOM     27  C   UNL     1      -9.436  -6.462  -2.058  0.00  0.00    +0.175 C 
ATOM     28  O   UNL     1     -10.513  -6.295  -2.984  0.00  0.00    -0.377 OA
ATOM     29  C   UNL     1     -11.208  -5.053  -2.840  0.00  0.00    +0.175 C 
ATOM     30  C   UNL     1     -10.222  -3.897  -3.029  0.00  0.00    +0.113 C 
ENDBRANCH  24  25
ENDBRANCH  21  24
ENDBRANCH  18  20
BRANCH   5  31
ATOM     31  O   UNL     1       4.275  -0.173  -0.315  0.00  0.00    -0.392 OA
ATOM     32  H   UNL     1       4.764  -0.453  -1.101  0.00  0.00    +0.210 HD
ENDBRANCH   5  31
TORSDOF 4
