REMARK  Name = ZINC04729189
REMARK  7 active torsions:
REMARK  status: ('A' for Active; 'I' for Inactive)
REMARK    1  A    between atoms: C_1  and  C_2
REMARK    2  A    between atoms: C_5  and  C_8
REMARK    3  A    between atoms: C_10  and  C_22
REMARK    4  A    between atoms: C_12  and  C_15
REMARK    5  A    between atoms: C_20  and  O_21
REMARK    6  A    between atoms: C_25  and  O_28
REMARK    7  A    between atoms: O_28  and  C_29
REMARK                            x       y       z     vdW  Elec       q    Type
REMARK                         _______ _______ _______ _____ _____    ______ ____
ROOT
ATOM      1  C   UNL     1      -2.520   3.870   0.047  0.00  0.00    +0.040 C 
ATOM      2  N   UNL     1      -2.497   5.149   0.058  0.00  0.00    -0.299 NA
ATOM      3  C   UNL     1      -3.689   5.988   0.059  0.00  0.00    +0.081 C 
ATOM      4  C   UNL     1      -4.969   3.979  -0.319  0.00  0.00    -0.028 C 
ATOM      5  C   UNL     1      -3.793   3.071   0.055  0.00  0.00    +0.044 C 
ATOM      6  N   UNL     1      -4.869   5.216   0.479  0.00  0.00    +0.401 N 
ATOM      7  H   UNL     1      -5.714   5.782   0.337  0.00  0.00    -0.081 HD
ATOM      8  H   UNL     1      -4.781   4.975   1.473  0.00  0.00    -0.081 HD
ENDROOT
BRANCH   1  13
ATOM      9  C   UNL     1       2.489   1.041  -0.016  0.00  0.00    +0.044 C 
ATOM     10  C   UNL     1       1.177   1.782   0.000  0.00  0.00    -0.050 A 
ATOM     11  C   UNL     1      -0.013   1.076   0.008  0.00  0.00    +0.004 A 
ATOM     12  C   UNL     1      -1.217   1.748   0.017  0.00  0.00    +0.010 A 
ATOM     13  C   UNL     1      -1.234   3.144   0.031  0.00  0.00    -0.004 A 
ATOM     14  C   UNL     1      -0.030   3.850   0.023  0.00  0.00    +0.010 A 
ATOM     15  C   UNL     1       1.167   3.166   0.007  0.00  0.00    +0.004 A 
ENDBRANCH   1  13
BRANCH   4  16
ATOM     16  C   UNL     1      -6.268   3.282  -0.010  0.00  0.00    -0.019 A 
ATOM     17  C   UNL     1      -6.959   3.588   1.147  0.00  0.00    +0.005 A 
ATOM     18  C   UNL     1      -8.152   2.949   1.431  0.00  0.00    +0.000 A 
ATOM     19  C   UNL     1      -8.656   2.002   0.559  0.00  0.00    +0.004 A 
ATOM     20  C   UNL     1      -7.970   1.693  -0.599  0.00  0.00    +0.045 A 
ATOM     21  C   UNL     1      -6.775   2.336  -0.889  0.00  0.00    +0.118 A 
BRANCH  21  22
ATOM     22  O   UNL     1      -6.101   2.037  -2.030  0.00  0.00    -0.507 OA
ATOM     23  H   UNL     1      -5.464   1.316  -1.933  0.00  0.00    +0.292 HD
ENDBRANCH  21  22
ENDBRANCH   4  16
BRANCH   3  24
ATOM     24  C   UNL     1      -3.484   7.134   1.016  0.00  0.00    -0.040 A 
ATOM     25  C   UNL     1      -4.571   7.707   1.650  0.00  0.00    +0.007 A 
ATOM     26  C   UNL     1      -4.385   8.753   2.532  0.00  0.00    +0.046 A 
ATOM     27  C   UNL     1      -3.107   9.238   2.772  0.00  0.00    +0.120 A 
ATOM     28  C   UNL     1      -2.019   8.665   2.130  0.00  0.00    +0.046 A 
ATOM     29  C   UNL     1      -2.210   7.615   1.254  0.00  0.00    +0.007 A 
BRANCH  27  30
ATOM     30  O   UNL     1      -2.922  10.271   3.636  0.00  0.00    -0.495 OA
ATOM     31  C   UNL     1      -4.088  10.811   4.261  0.00  0.00    +0.277 C 
ENDBRANCH  27  30
ENDBRANCH   3  24
TORSDOF 5
