REMARK  Name = ZINC67407499
REMARK  7 active torsions:
REMARK  status: ('A' for Active; 'I' for Inactive)
REMARK    1  A    between atoms: C_1  and  C_2
REMARK    2  A    between atoms: C_2  and  C_3
REMARK    3  A    between atoms: C_3  and  C_5
REMARK    4  A    between atoms: C_3  and  N_15
REMARK    5  A    between atoms: N_18  and  C_19
REMARK    6  A    between atoms: C_19  and  C_20
REMARK    7  A    between atoms: C_25  and  C_29
REMARK                            x       y       z     vdW  Elec       q    Type
REMARK                         _______ _______ _______ _____ _____    ______ ____
ROOT
ATOM      1  N   UNL     1       2.125  -0.091  -1.209  0.00  0.00    -0.290 N 
ATOM      2  C   UNL     1       2.487   1.134  -1.640  0.00  0.00    +0.300 C 
ATOM      3  O   UNL     1       1.647   1.901  -2.067  0.00  0.00    -0.253 OA
ATOM      4  N   UNL     1       3.781   1.508  -1.596  0.00  0.00    -0.294 N 
ATOM      5  H   UNL     1       2.795  -0.703  -0.868  0.00  0.00    +0.151 HD
ATOM      6  H   UNL     1       4.452   0.895  -1.255  0.00  0.00    +0.151 HD
ENDROOT
BRANCH   1   7
ATOM      7  C   UNL     1       0.718  -0.497  -1.257  0.00  0.00    +0.140 C 
BRANCH   7   8
ATOM      8  C   UNL     1       0.632  -2.000  -1.327  0.00  0.00    +0.129 A 
ATOM      9  N   UNL     1       0.142  -2.704  -2.384  0.00  0.00    -0.340 N 
ATOM     10  H   UNL     1      -0.206  -2.333  -3.210  0.00  0.00    +0.167 HD
ATOM     11  C   UNL     1       0.234  -4.043  -2.063  0.00  0.00    +0.066 A 
ATOM     12  C   UNL     1      -0.099  -5.220  -2.721  0.00  0.00    +0.028 A 
ATOM     13  C   UNL     1       0.127  -6.433  -2.105  0.00  0.00    +0.002 A 
ATOM     14  C   UNL     1       0.682  -6.485  -0.835  0.00  0.00    +0.002 A 
ATOM     15  C   UNL     1       1.015  -5.337  -0.172  0.00  0.00    +0.030 A 
ATOM     16  C   UNL     1       0.796  -4.096  -0.776  0.00  0.00    +0.089 A 
ATOM     17  N   UNL     1       1.019  -2.814  -0.389  0.00  0.00    -0.231 NA
ENDBRANCH   7   8
BRANCH   7  19
ATOM     18  C   UNL     1      -0.019   1.526   0.010  0.00  0.00    +0.006 C 
ATOM     19  C   UNL     1       0.002  -0.004   0.002  0.00  0.00    +0.027 C 
ENDBRANCH   7  19
ENDBRANCH   1   7
BRANCH   4  20
ATOM     20  C   UNL     1       4.176   2.839  -2.064  0.00  0.00    +0.160 C 
BRANCH  20  21
ATOM     21  C   UNL     1       5.665   3.005  -1.909  0.00  0.00    +0.051 A 
ATOM     22  C   UNL     1       6.290   3.573  -0.854  0.00  0.00    +0.115 A 
ATOM     23  N   UNL     1       7.634   3.525  -1.106  0.00  0.00    -0.308 N 
ATOM     24  C   UNL     1       8.722   3.946  -0.397  0.00  0.00    +0.093 A 
ATOM     25  C   UNL     1       9.968   3.773  -0.885  0.00  0.00    +0.021 A 
ATOM     26  C   UNL     1      10.162   3.156  -2.132  0.00  0.00    -0.046 A 
ATOM     27  C   UNL     1       9.087   2.732  -2.849  0.00  0.00    +0.048 A 
ATOM     28  C   UNL     1       7.791   2.920  -2.326  0.00  0.00    +0.116 A 
ATOM     29  N   UNL     1       6.589   2.610  -2.789  0.00  0.00    -0.342 N 
ATOM     30  C   UNL     1      11.556   2.966  -2.674  0.00  0.00    +0.044 C 
ATOM     31  H   UNL     1       6.408   2.169  -3.634  0.00  0.00    +0.167 HD
ENDBRANCH  20  21
ENDBRANCH   4  20
TORSDOF 5
