REMARK  Name = ZINC33375046
REMARK  10 active torsions:
REMARK  status: ('A' for Active; 'I' for Inactive)
REMARK    1  A    between atoms: C_1  and  C_2
REMARK    2  A    between atoms: C_2  and  C_3
REMARK    3  A    between atoms: C_6  and  N_9
REMARK    4  A    between atoms: C_14  and  C_27
REMARK    5  A    between atoms: C_17  and  C_22
REMARK    6  A    between atoms: C_17  and  C_24
REMARK    7  A    between atoms: C_22  and  O_23
REMARK    8  A    between atoms: C_30  and  N_33
REMARK    9  A    between atoms: N_33  and  C_34
REMARK   10  A    between atoms: N_33  and  C_35
REMARK                            x       y       z     vdW  Elec       q    Type
REMARK                         _______ _______ _______ _____ _____    ______ ____
ROOT
ATOM      1  N   UNL     1       3.226  -1.450  -4.340  0.00  0.00    -0.210 N 
ATOM      2  C   UNL     1       4.499  -1.871  -4.599  0.00  0.00    +0.229 C 
ATOM      3  O   UNL     1       5.375  -2.094  -3.791  0.00  0.00    -0.275 OA
ATOM      4  C   UNL     1       4.592  -2.004  -6.095  0.00  0.00    +0.077 C 
ATOM      5  C   UNL     1       5.287  -3.220  -6.710  0.00  0.00    -0.027 C 
ATOM      6  N   UNL     1       4.396  -3.670  -7.820  0.00  0.00    +0.397 N 
ATOM      7  C   UNL     1       3.119  -2.908  -7.720  0.00  0.00    +0.071 C 
ATOM      8  C   UNL     1       3.102  -2.486  -6.310  0.00  0.00    +0.088 C 
ATOM      9  C   UNL     1       2.382  -1.622  -5.409  0.00  0.00    +0.229 C 
ATOM     10  O   UNL     1       1.275  -1.151  -5.561  0.00  0.00    -0.275 OA
ATOM     11  H   UNL     1       4.883  -3.470  -8.786  0.00  0.00    -0.083 HD
ATOM     12  H   UNL     1       4.204  -4.748  -7.722  0.00  0.00    -0.083 HD
ENDROOT
BRANCH   1  16
ATOM     13  C   UNL     1       2.034   0.196  -0.700  0.00  0.00    -0.048 A 
ATOM     14  C   UNL     1       1.118   0.053  -1.725  0.00  0.00    +0.005 A 
ATOM     15  C   UNL     1       1.511  -0.488  -2.934  0.00  0.00    +0.024 A 
ATOM     16  C   UNL     1       2.825  -0.897  -3.115  0.00  0.00    +0.044 A 
ATOM     17  C   UNL     1       3.742  -0.757  -2.082  0.00  0.00    +0.024 A 
ATOM     18  C   UNL     1       3.344  -0.211  -0.877  0.00  0.00    +0.005 A 
BRANCH  13  20
ATOM     19  C   UNL     1       1.801   2.307   0.580  0.00  0.00    +0.009 C 
ATOM     20  C   UNL     1       1.604   0.790   0.617  0.00  0.00    +0.032 C 
ENDBRANCH  13  20
ENDBRANCH   1  16
BRANCH   5  21
ATOM     21  C   UNL     1       5.434  -4.311  -5.681  0.00  0.00    -0.060 A 
ATOM     22  C   UNL     1       6.594  -4.404  -4.934  0.00  0.00    +0.004 A 
ATOM     23  C   UNL     1       6.730  -5.400  -3.987  0.00  0.00    +0.023 A 
ATOM     24  C   UNL     1       5.704  -6.316  -3.793  0.00  0.00    +0.029 A 
ATOM     25  C   UNL     1       4.542  -6.224  -4.550  0.00  0.00    +0.023 A 
ATOM     26  C   UNL     1       4.411  -5.222  -5.491  0.00  0.00    +0.004 A 
BRANCH  24  27
ATOM     27  N   UNL     1       5.840  -7.328  -2.841  0.00  0.00    -0.336 N 
ATOM     28  C   UNL     1       4.757  -8.294  -2.638  0.00  0.00    +0.129 C 
ATOM     29  C   UNL     1       7.066  -7.424  -2.044  0.00  0.00    +0.129 C 
ENDBRANCH  24  27
ENDBRANCH   5  21
BRANCH   7  30
ATOM     30  C   UNL     1       1.933  -3.784  -8.033  0.00  0.00    +0.348 C 
ATOM     31  O   UNL     1       0.926  -3.696  -7.372  0.00  0.00    -0.248 OA
ATOM     32  O   UNL     1       1.996  -4.661  -9.047  0.00  0.00    -0.248 OA
ENDBRANCH   7  30
BRANCH   7  33
ATOM     33  C   UNL     1       3.161  -1.696  -8.653  0.00  0.00    +0.155 C 
BRANCH  33  34
ATOM     34  O   UNL     1       3.176  -2.140 -10.011  0.00  0.00    -0.396 OA
ATOM     35  H   UNL     1       3.207  -1.406 -10.829  0.00  0.00    +0.209 HD
ENDBRANCH  33  34
ENDBRANCH   7  33
TORSDOF 7
