REMARK  Name = ZINC06803106
REMARK  6 active torsions:
REMARK  status: ('A' for Active; 'I' for Inactive)
REMARK    1  A    between atoms: C_1  and  N_2
REMARK    2  A    between atoms: C_15  and  C_16
REMARK    3  A    between atoms: C_16  and  C_17
REMARK    4  A    between atoms: C_17  and  C_18
REMARK    5  A    between atoms: N_20  and  C_21
REMARK    6  A    between atoms: C_21  and  C_22
REMARK                            x       y       z     vdW  Elec       q    Type
REMARK                         _______ _______ _______ _____ _____    ______ ____
ROOT
ATOM      1  C   UNL     1      -2.265   3.755   5.020  0.00  0.00    +0.155 C 
ATOM      2  N   UNL     1      -1.284   3.751   3.932  0.00  0.00    -0.280 N 
ATOM      3  C   UNL     1      -0.360   4.732   3.867  0.00  0.00    +0.263 A 
ATOM      4  O   UNL     1      -0.343   5.622   4.696  0.00  0.00    -0.267 OA
ATOM      5  C   UNL     1       0.622   4.713   2.768  0.00  0.00    +0.063 A 
ATOM      6  C   UNL     1       1.593   5.706   2.644  0.00  0.00    +0.015 A 
ATOM      7  C   UNL     1       2.494   5.652   1.602  0.00  0.00    +0.001 A 
ATOM      8  C   UNL     1       2.437   4.618   0.680  0.00  0.00    +0.002 A 
ATOM      9  C   UNL     1       1.480   3.630   0.790  0.00  0.00    +0.027 A 
ATOM     10  C   UNL     1       0.566   3.667   1.832  0.00  0.00    +0.063 A 
ATOM     11  N   UNL     1      -0.410   2.688   1.972  0.00  0.00    -0.264 N 
ATOM     12  C   UNL     1      -1.308   2.733   2.998  0.00  0.00    +0.239 A 
ATOM     13  N   UNL     1      -2.087   1.682   2.867  0.00  0.00    -0.110 NA
ATOM     14  N   UNL     1      -1.734   1.002   1.835  0.00  0.00    -0.132 NA
ATOM     15  C   UNL     1      -0.718   1.572   1.248  0.00  0.00    +0.140 A 
ENDROOT
BRANCH  15  16
ATOM     16  C   UNL     1      -0.013   1.086   0.008  0.00  0.00    +0.086 C 
BRANCH  16  17
ATOM     17  C   UNL     1       1.229   0.286   0.408  0.00  0.00    +0.103 C 
BRANCH  17  18
ATOM     18  C   UNL     1       1.934  -0.200  -0.832  0.00  0.00    +0.214 C 
ATOM     19  O   UNL     1       1.488   0.067  -1.928  0.00  0.00    -0.276 OA
ATOM     20  N   UNL     1       3.061  -0.931  -0.723  0.00  0.00    -0.308 N 
ATOM     21  H   UNL     1       3.418  -1.144   0.153  0.00  0.00    +0.149 HD
BRANCH  20  22
ATOM     22  C   UNL     1       3.747  -1.403  -1.929  0.00  0.00    +0.178 C 
BRANCH  22  23
ATOM     23  C   UNL     1       4.970  -2.191  -1.535  0.00  0.00    +0.122 A 
ATOM     24  C   UNL     1       5.013  -3.516  -1.309  0.00  0.00    +0.046 A 
ATOM     25  C   UNL     1       6.349  -3.830  -0.968  0.00  0.00    +0.041 A 
ATOM     26  C   UNL     1       7.042  -2.678  -1.006  0.00  0.00    +0.195 A 
ATOM     27  O   UNL     1       6.203  -1.689  -1.355  0.00  0.00    -0.466 OA
ENDBRANCH  22  23
ENDBRANCH  20  22
ENDBRANCH  17  18
ENDBRANCH  16  17
ENDBRANCH  15  16
TORSDOF 5
