REMARK  Name = ZINC39912483
REMARK  12 active torsions:
REMARK  status: ('A' for Active; 'I' for Inactive)
REMARK    1  A    between atoms: C_1  and  C_2
REMARK    2  A    between atoms: C_2  and  O_3
REMARK    3  A    between atoms: O_3  and  C_4
REMARK    4  A    between atoms: C_7  and  C_12
REMARK    5  A    between atoms: C_9  and  O_10
REMARK    6  A    between atoms: O_10  and  C_11
REMARK    7  A    between atoms: C_15  and  C_31
REMARK    8  A    between atoms: N_22  and  C_23
REMARK    9  A    between atoms: C_23  and  C_24
REMARK   10  A    between atoms: C_33  and  C_39
REMARK   11  A    between atoms: C_35  and  C_38
REMARK   12  A    between atoms: C_36  and  O_37
REMARK                            x       y       z     vdW  Elec       q    Type
REMARK                         _______ _______ _______ _____ _____    ______ ____
ROOT
ATOM      1  C   UNL     1       1.818  -5.889  -1.298  0.00  0.00    +0.142 C 
ATOM      2  C   UNL     1       3.023  -6.188  -0.449  0.00  0.00    +0.035 A 
ATOM      3  C   UNL     1       4.385  -5.968  -0.215  0.00  0.00    +0.102 A 
ATOM      4  N   UNL     1       4.723  -6.682   0.841  0.00  0.00    -0.173 NA
ATOM      5  N   UNL     1       3.711  -7.331   1.295  0.00  0.00    -0.272 N 
ATOM      6  H   UNL     1       3.728  -7.920   2.066  0.00  0.00    +0.189 HD
ATOM      7  C   UNL     1       2.609  -7.067   0.533  0.00  0.00    +0.126 A 
ATOM      8  C   UNL     1       1.180  -7.341   0.342  0.00  0.00    +0.266 C 
ATOM      9  O   UNL     1       0.515  -8.078   1.044  0.00  0.00    -0.268 OA
ATOM     10  N   UNL     1       0.710  -6.661  -0.721  0.00  0.00    -0.281 N 
ENDROOT
BRANCH   3  11
ATOM     11  C   UNL     1       5.282  -5.092  -1.008  0.00  0.00    +0.044 A 
ATOM     12  C   UNL     1       4.821  -4.495  -2.179  0.00  0.00    +0.017 A 
ATOM     13  C   UNL     1       5.660  -3.681  -2.913  0.00  0.00    -0.049 A 
ATOM     14  C   UNL     1       6.959  -3.457  -2.491  0.00  0.00    +0.010 A 
ATOM     15  C   UNL     1       7.426  -4.045  -1.331  0.00  0.00    -0.008 A 
ATOM     16  C   UNL     1       6.593  -4.859  -0.581  0.00  0.00    +0.129 A 
ATOM     17  C   UNL     1       8.842  -3.796  -0.879  0.00  0.00    +0.047 C 
ATOM     18  C   UNL     1       5.160  -3.035  -4.180  0.00  0.00    +0.044 C 
BRANCH  16  19
ATOM     19  O   UNL     1       7.049  -5.433   0.562  0.00  0.00    -0.506 OA
ATOM     20  H   UNL     1       7.457  -6.300   0.432  0.00  0.00    +0.292 HD
ENDBRANCH  16  19
ENDBRANCH   3  11
BRANCH   1  24
ATOM     21  C   UNL     1       0.926  -1.708  -1.169  0.00  0.00    +0.162 A 
ATOM     22  C   UNL     1       1.406  -2.281  -2.336  0.00  0.00    +0.050 A 
ATOM     23  C   UNL     1       1.693  -3.633  -2.375  0.00  0.00    +0.009 A 
ATOM     24  C   UNL     1       1.503  -4.416  -1.251  0.00  0.00    -0.019 A 
ATOM     25  C   UNL     1       1.025  -3.850  -0.084  0.00  0.00    +0.055 A 
ATOM     26  C   UNL     1       0.740  -2.494  -0.037  0.00  0.00    +0.162 A 
BRANCH  26  27
ATOM     27  O   UNL     1       0.275  -1.935   1.113  0.00  0.00    -0.491 OA
ATOM     28  C   UNL     1       0.152  -2.794   2.248  0.00  0.00    +0.277 C 
ENDBRANCH  26  27
BRANCH  21  29
ATOM     29  O   UNL     1       0.643  -0.378  -1.130  0.00  0.00    -0.489 OA
BRANCH  29  31
ATOM     30  C   UNL     1       0.487   1.832  -2.094  0.00  0.00    +0.048 C 
ATOM     31  C   UNL     1       0.858   0.366  -2.330  0.00  0.00    +0.226 C 
ENDBRANCH  29  31
ENDBRANCH  21  29
ENDBRANCH   1  24
BRANCH  10  32
ATOM     32  C   UNL     1      -0.668  -6.686  -1.216  0.00  0.00    +0.144 C 
BRANCH  32  33
ATOM     33  C   UNL     1      -0.818  -7.790  -2.231  0.00  0.00    -0.030 A 
ATOM     34  C   UNL     1      -0.581  -7.534  -3.569  0.00  0.00    +0.008 A 
ATOM     35  C   UNL     1      -0.717  -8.546  -4.501  0.00  0.00    +0.038 A 
ATOM     36  C   UNL     1      -1.091  -9.815  -4.094  0.00  0.00    +0.123 A 
ATOM     37  C   UNL     1      -1.328 -10.070  -2.754  0.00  0.00    +0.038 A 
ATOM     38  C   UNL     1      -1.186  -9.058  -1.823  0.00  0.00    +0.008 A 
ATOM     39  F   UNL     1      -1.225 -10.805  -5.004  0.00  0.00    -0.205 F 
ENDBRANCH  32  33
ENDBRANCH  10  32
TORSDOF 8
