REMARK  Name = ZINC18199532
REMARK  2 active torsions:
REMARK  status: ('A' for Active; 'I' for Inactive)
REMARK    1  A    between atoms: C_3  and  C_6
REMARK    2  A    between atoms: C_11  and  C_24
REMARK                            x       y       z     vdW  Elec       q    Type
REMARK                         _______ _______ _______ _____ _____    ______ ____
ROOT
ATOM      1  C   UNL     1       2.249  -2.891  -0.530  0.00  0.00    +0.039 C 
ATOM      2  C   UNL     1       0.961  -2.124  -0.835  0.00  0.00    +0.060 C 
ATOM      3  C   UNL     1       1.116  -0.685  -0.410  0.00  0.00    +0.017 C 
ATOM      4  C   UNL     1       2.322  -0.078  -0.436  0.00  0.00    +0.024 C 
ATOM      5  C   UNL     1       2.475   1.360  -0.008  0.00  0.00    +0.092 C 
ATOM      6  C   UNL     1       1.152   2.068   0.002  0.00  0.00    +0.067 A 
ATOM      7  C   UNL     1      -0.017   1.368   0.010  0.00  0.00    +0.113 A 
ATOM      8  N   UNL     1      -1.212   2.044   0.030  0.00  0.00    -0.295 N 
ATOM      9  H   UNL     1      -2.072   1.534   0.046  0.00  0.00    +0.172 HD
ATOM     10  C   UNL     1      -1.232   3.390   0.030  0.00  0.00    +0.328 A 
ATOM     11  O   UNL     1      -2.299   3.974   0.044  0.00  0.00    -0.247 OA
ATOM     12  N   UNL     1      -0.089   4.099   0.020  0.00  0.00    -0.275 N 
ATOM     13  H   UNL     1      -0.125   5.098   0.023  0.00  0.00    +0.173 HD
ATOM     14  C   UNL     1       1.105   3.474   0.005  0.00  0.00    +0.260 A 
ATOM     15  O   UNL     1       2.137   4.123  -0.004  0.00  0.00    -0.267 OA
ATOM     16  N   UNL     1       0.002  -0.004   0.002  0.00  0.00    -0.303 N 
ATOM     17  C   UNL     1       3.472  -0.768  -0.858  0.00  0.00    +0.162 C 
ATOM     18  O   UNL     1       4.538  -0.187  -0.889  0.00  0.00    -0.292 OA
ATOM     19  C   UNL     1       3.406  -2.213  -1.272  0.00  0.00    +0.088 C 
ATOM     20  H   UNL     1      -0.782  -0.497   0.291  0.00  0.00    +0.153 HD
ENDROOT
BRANCH   5  21
ATOM     21  C   UNL     1       3.067   1.401   1.377  0.00  0.00    -0.035 A 
ATOM     22  C   UNL     1       2.400   0.807   2.432  0.00  0.00    +0.007 A 
ATOM     23  C   UNL     1       2.946   0.840   3.702  0.00  0.00    +0.038 A 
ATOM     24  C   UNL     1       4.155   1.479   3.919  0.00  0.00    +0.123 A 
ATOM     25  C   UNL     1       4.819   2.079   2.863  0.00  0.00    +0.038 A 
ATOM     26  C   UNL     1       4.275   2.039   1.593  0.00  0.00    +0.007 A 
ATOM     27  F   UNL     1       4.686   1.517   5.161  0.00  0.00    -0.205 F 
ENDBRANCH   5  21
BRANCH   1  30
ATOM     28  C   UNL     1       2.032  -6.673  -0.930  0.00  0.00    +0.008 A 
ATOM     29  C   UNL     1       2.195  -5.464  -0.282  0.00  0.00    +0.011 A 
ATOM     30  C   UNL     1       2.113  -4.317  -1.000  0.00  0.00    -0.006 A 
ATOM     31  S   UNL     1       1.810  -4.934  -2.648  0.00  0.00    -0.101 S 
ATOM     32  C   UNL     1       1.806  -6.678  -2.267  0.00  0.00    +0.045 A 
ENDBRANCH   1  30
TORSDOF 2
