REMARK  Name = ZINC40466446
REMARK  8 active torsions:
REMARK  status: ('A' for Active; 'I' for Inactive)
REMARK    1  A    between atoms: C_1  and  C_2
REMARK    2  A    between atoms: C_16  and  C_40
REMARK    3  A    between atoms: C_21  and  C_22
REMARK    4  A    between atoms: C_21  and  O_39
REMARK    5  A    between atoms: C_22  and  C_24
REMARK    6  A    between atoms: C_24  and  N_25
REMARK    7  A    between atoms: N_28  and  C_31
REMARK    8  A    between atoms: C_31  and  C_32
REMARK                            x       y       z     vdW  Elec       q    Type
REMARK                         _______ _______ _______ _____ _____    ______ ____
ROOT
ATOM      1  C   UNL     1       0.669   1.081   0.651  0.00  0.00    +0.020 C 
ATOM      2  C   UNL     1       0.548  -0.428   0.433  0.00  0.00    +0.011 C 
ATOM      3  C   UNL     1      -0.923  -0.798   0.383  0.00  0.00    +0.023 C 
ATOM      4  C   UNL     1      -1.533  -0.820   1.786  0.00  0.00    +0.080 C 
ATOM      5  C   UNL     1      -0.754  -1.827   2.607  0.00  0.00    +0.156 C 
ATOM      6  O   UNL     1      -1.316  -2.655   3.293  0.00  0.00    -0.293 OA
ATOM      7  C   UNL     1       0.709  -1.759   2.535  0.00  0.00    +0.046 C 
ATOM      8  C   UNL     1       1.309  -1.135   1.517  0.00  0.00    -0.056 C 
ATOM      9  C   UNL     1       2.824  -1.119   1.467  0.00  0.00    +0.032 C 
ATOM     10  C   UNL     1       3.287  -1.619   0.095  0.00  0.00    +0.012 C 
ATOM     11  C   UNL     1       2.679  -0.734  -0.996  0.00  0.00    +0.020 C 
ATOM     12  C   UNL     1       1.185  -0.780  -0.902  0.00  0.00    -0.060 C 
ATOM     13  C   UNL     1       0.415  -1.095  -1.899  0.00  0.00    -0.026 C 
ATOM     14  C   UNL     1       0.945  -1.481  -3.245  0.00  0.00    +0.037 C 
ATOM     15  C   UNL     1       2.285  -0.789  -3.519  0.00  0.00    +0.010 C 
ATOM     16  C   UNL     1       3.233  -1.062  -2.347  0.00  0.00    +0.006 C 
ATOM     17  C   UNL     1       3.604  -2.547  -2.516  0.00  0.00    +0.008 C 
ATOM     18  C   UNL     1       3.746  -2.710  -4.047  0.00  0.00    +0.043 C 
ATOM     19  C   UNL     1       2.949  -1.562  -4.690  0.00  0.00    +0.131 C 
ATOM     20  C   UNL     1       2.115   0.700  -3.825  0.00  0.00    +0.015 C 
ENDROOT
BRANCH  19  21
ATOM     21  C   UNL     1       3.847  -0.640  -5.475  0.00  0.00    +0.179 C 
ATOM     22  O   UNL     1       4.999  -0.495  -5.145  0.00  0.00    -0.293 OA
BRANCH  21  23
ATOM     23  C   UNL     1       3.307   0.099  -6.672  0.00  0.00    +0.161 C 
BRANCH  23  24
ATOM     24  N   UNL     1       4.370   0.924  -7.259  0.00  0.00    -0.299 NA
ATOM     25  C   UNL     1       4.769   2.001  -6.340  0.00  0.00    +0.066 C 
ATOM     26  C   UNL     1       5.917   2.799  -6.962  0.00  0.00    -0.063 C 
ATOM     27  N   UNL     1       5.481   3.364  -8.246  0.00  0.00    +0.385 N 
ATOM     28  C   UNL     1       5.110   2.276  -9.161  0.00  0.00    -0.063 C 
ATOM     29  C   UNL     1       3.955   1.474  -8.557  0.00  0.00    +0.066 C 
ATOM     30  H   UNL     1       4.684   3.964  -8.096  0.00  0.00    -0.081 HD
BRANCH  27  31
ATOM     31  C   UNL     1       6.577   4.145  -8.834  0.00  0.00    -0.021 C 
BRANCH  31  32
ATOM     32  C   UNL     1       6.093   4.825 -10.089  0.00  0.00    +0.046 A 
ATOM     33  C   UNL     1       5.353   5.994  -9.994  0.00  0.00    +0.196 A 
ATOM     34  C   UNL     1       4.913   6.612 -11.161  0.00  0.00    +0.054 A 
ATOM     35  C   UNL     1       5.234   6.029 -12.376  0.00  0.00    +0.021 A 
ATOM     36  C   UNL     1       5.976   4.862 -12.389  0.00  0.00    +0.083 A 
ATOM     37  N   UNL     1       6.382   4.305 -11.266  0.00  0.00    -0.363 N 
ATOM     38  O   UNL     1       5.062   6.529  -8.779  0.00  0.00    -0.286 OA
ATOM     39  H   UNL     1       6.904   3.489 -11.306  0.00  0.00    +0.165 HD
ENDBRANCH  31  32
ENDBRANCH  27  31
ENDBRANCH  23  24
ENDBRANCH  21  23
ENDBRANCH  19  21
BRANCH  19  40
ATOM     40  O   UNL     1       1.946  -2.116  -5.544  0.00  0.00    -0.380 OA
ATOM     41  H   UNL     1       2.299  -2.611  -6.295  0.00  0.00    +0.211 HD
ENDBRANCH  19  40
TORSDOF 6
