REMARK  Name = ZINC00863810
REMARK  12 active torsions:
REMARK  status: ('A' for Active; 'I' for Inactive)
REMARK    1  A    between atoms: C_1  and  O_2
REMARK    2  A    between atoms: O_2  and  C_3
REMARK    3  A    between atoms: C_5  and  C_12
REMARK    4  A    between atoms: C_7  and  O_10
REMARK    5  A    between atoms: C_8  and  O_9
REMARK    6  A    between atoms: O_10  and  C_11
REMARK    7  A    between atoms: N_13  and  N_14
REMARK    8  A    between atoms: C_15  and  C_17
REMARK    9  A    between atoms: C_17  and  S_18
REMARK   10  A    between atoms: S_18  and  C_19
REMARK   11  A    between atoms: C_22  and  C_30
REMARK   12  A    between atoms: N_23  and  C_24
REMARK                            x       y       z     vdW  Elec       q    Type
REMARK                         _______ _______ _______ _____ _____    ______ ____
ROOT
ATOM      1  C   UNL     1       4.757   0.783  -8.386  0.00  0.00    +0.174 C 
ENDROOT
BRANCH   1   3
ATOM      2  N   UNL     1       3.543   0.550  -6.244  0.00  0.00    -0.206 N 
ATOM      3  C   UNL     1       4.141  -0.050  -7.292  0.00  0.00    +0.242 C 
ATOM      4  O   UNL     1       4.184  -1.260  -7.354  0.00  0.00    -0.273 OA
ATOM      5  H   UNL     1       3.509   1.518  -6.194  0.00  0.00    +0.177 HD
BRANCH   2   7
ATOM      6  C   UNL     1       2.394   0.354  -4.217  0.00  0.00    +0.138 C 
ATOM      7  N   UNL     1       2.970  -0.224  -5.226  0.00  0.00    -0.188 NA
BRANCH   6  10
ATOM      8  C   UNL     1       0.606  -0.608  -1.056  0.00  0.00    +0.166 A 
ATOM      9  C   UNL     1       1.171   0.160  -2.059  0.00  0.00    +0.059 A 
ATOM     10  C   UNL     1       1.792  -0.461  -3.146  0.00  0.00    +0.002 A 
ATOM     11  C   UNL     1       1.839  -1.855  -3.217  0.00  0.00    +0.059 A 
ATOM     12  C   UNL     1       1.273  -2.617  -2.211  0.00  0.00    +0.166 A 
ATOM     13  C   UNL     1       0.660  -1.996  -1.127  0.00  0.00    +0.201 A 
BRANCH   8  15
ATOM     14  C   UNL     1      -0.017   1.425   0.010  0.00  0.00    +0.277 C 
ATOM     15  O   UNL     1       0.002  -0.004   0.002  0.00  0.00    -0.491 OA
ENDBRANCH   8  15
BRANCH  13  16
ATOM     16  O   UNL     1       0.109  -2.748  -0.136  0.00  0.00    -0.501 OA
ATOM     17  H   UNL     1      -0.820  -2.973  -0.284  0.00  0.00    +0.292 HD
ENDBRANCH  13  16
BRANCH  12  18
ATOM     18  O   UNL     1       1.319  -3.975  -2.279  0.00  0.00    -0.491 OA
ATOM     19  C   UNL     1       1.968  -4.546  -3.417  0.00  0.00    +0.277 C 
ENDBRANCH  12  18
ENDBRANCH   6  10
ENDBRANCH   2   7
ENDBRANCH   1   3
BRANCH   1  20
ATOM     20  S   UNL     1       5.477  -0.308  -9.644  0.00  0.00    -0.076 S 
BRANCH  20  21
ATOM     21  C   UNL     1       6.148   0.802 -10.837  0.00  0.00    +0.197 A 
ATOM     22  N   UNL     1       6.117   2.115 -10.785  0.00  0.00    -0.122 NA
ATOM     23  N   UNL     1       6.698   2.612 -11.818  0.00  0.00    -0.128 NA
ATOM     24  C   UNL     1       7.136   1.649 -12.595  0.00  0.00    +0.169 A 
ATOM     25  N   UNL     1       6.803   0.458 -11.988  0.00  0.00    -0.270 N 
BRANCH  25  26
ATOM     26  C   UNL     1       7.074  -0.836 -12.454  0.00  0.00    +0.051 A 
ATOM     27  C   UNL     1       8.387  -1.280 -12.550  0.00  0.00    +0.026 A 
ATOM     28  C   UNL     1       8.652  -2.555 -13.009  0.00  0.00    +0.002 A 
ATOM     29  C   UNL     1       7.611  -3.390 -13.373  0.00  0.00    +0.000 A 
ATOM     30  C   UNL     1       6.303  -2.951 -13.279  0.00  0.00    +0.002 A 
ATOM     31  C   UNL     1       6.032  -1.679 -12.815  0.00  0.00    +0.026 A 
ENDBRANCH  25  26
BRANCH  24  32
ATOM     32  C   UNL     1       7.856   1.811 -13.875  0.00  0.00    +0.020 A 
ATOM     33  C   UNL     1       7.984   0.731 -14.750  0.00  0.00    +0.011 A 
ATOM     34  C   UNL     1       8.656   0.889 -15.944  0.00  0.00    +0.001 A 
ATOM     35  C   UNL     1       9.204   2.116 -16.275  0.00  0.00    +0.000 A 
ATOM     36  C   UNL     1       9.081   3.191 -15.413  0.00  0.00    +0.001 A 
ATOM     37  C   UNL     1       8.406   3.048 -14.218  0.00  0.00    +0.011 A 
ENDBRANCH  24  32
ENDBRANCH  20  21
ENDBRANCH   1  20
TORSDOF 10
