REMARK  Name = ZINC51626181
REMARK  8 active torsions:
REMARK  status: ('A' for Active; 'I' for Inactive)
REMARK    1  A    between atoms: C_1  and  C_2
REMARK    2  A    between atoms: C_2  and  C_3
REMARK    3  A    between atoms: C_3  and  C_5
REMARK    4  A    between atoms: C_3  and  N_11
REMARK    5  A    between atoms: N_11  and  S_12
REMARK    6  A    between atoms: S_12  and  C_15
REMARK    7  A    between atoms: C_18  and  O_22
REMARK    8  A    between atoms: C_19  and  N_21
REMARK                            x       y       z     vdW  Elec       q    Type
REMARK                         _______ _______ _______ _____ _____    ______ ____
ROOT
ATOM      1  S   UNL     1      -3.750   0.236  -1.011  0.00  0.00    +0.059 S 
ATOM      2  O   UNL     1      -4.181   0.555  -2.327  0.00  0.00    -0.153 OA
ATOM      3  O   UNL     1      -4.402  -0.741  -0.212  0.00  0.00    -0.153 OA
ENDROOT
BRANCH   1   4
ATOM      4  C   UNL     1      -3.782   1.740  -0.093  0.00  0.00    +0.107 A 
ATOM      5  C   UNL     1      -3.826   1.704   1.288  0.00  0.00    +0.032 A 
ATOM      6  C   UNL     1      -3.850   2.881   2.014  0.00  0.00    +0.049 A 
ATOM      7  C   UNL     1      -3.830   4.100   1.357  0.00  0.00    +0.137 A 
ATOM      8  C   UNL     1      -3.786   4.138  -0.034  0.00  0.00    +0.068 A 
ATOM      9  C   UNL     1      -3.757   2.953  -0.756  0.00  0.00    +0.055 A 
BRANCH   8  10
ATOM     10  N   UNL     1      -3.767   5.367  -0.703  0.00  0.00    -0.355 N 
ATOM     11  H   UNL     1      -3.784   6.194  -0.197  0.00  0.00    +0.142 HD
ATOM     12  H   UNL     1      -3.736   5.391  -1.672  0.00  0.00    +0.142 HD
ENDBRANCH   8  10
BRANCH   7  13
ATOM     13  O   UNL     1      -3.855   5.258   2.070  0.00  0.00    -0.505 OA
ATOM     14  H   UNL     1      -2.979   5.595   2.304  0.00  0.00    +0.292 HD
ENDBRANCH   7  13
ENDBRANCH   1   4
BRANCH   1  15
ATOM     15  N   UNL     1      -2.166  -0.230  -1.132  0.00  0.00    -0.183 NA
ATOM     16  H   UNL     1      -1.730  -0.247  -1.998  0.00  0.00    +0.149 HD
BRANCH  15  17
ATOM     17  C   UNL     1      -1.423  -0.618   0.069  0.00  0.00    +0.106 C 
BRANCH  17  18
ATOM     18  C   UNL     1      -1.470  -2.116   0.228  0.00  0.00    -0.029 A 
ATOM     19  C   UNL     1      -1.347  -2.932  -0.881  0.00  0.00    +0.005 A 
ATOM     20  C   UNL     1      -1.390  -4.306  -0.736  0.00  0.00    +0.000 A 
ATOM     21  C   UNL     1      -1.556  -4.864   0.518  0.00  0.00    +0.000 A 
ATOM     22  C   UNL     1      -1.678  -4.048   1.627  0.00  0.00    +0.000 A 
ATOM     23  C   UNL     1      -1.631  -2.674   1.482  0.00  0.00    +0.005 A 
ENDBRANCH  17  18
BRANCH  17  25
ATOM     24  C   UNL     1       0.087   1.363  -0.127  0.00  0.00    +0.006 C 
ATOM     25  C   UNL     1       0.033  -0.165  -0.063  0.00  0.00    +0.022 C 
ENDBRANCH  17  25
ENDBRANCH  15  17
ENDBRANCH   1  15
TORSDOF 7
