REMARK  Name = ZINC12789447
REMARK  10 active torsions:
REMARK  status: ('A' for Active; 'I' for Inactive)
REMARK    1  A    between atoms: C_1  and  C_2
REMARK    2  A    between atoms: C_2  and  C_3
REMARK    3  A    between atoms: C_8  and  N_9
REMARK    4  A    between atoms: C_10  and  C_12
REMARK    5  A    between atoms: C_12  and  N_13
REMARK    6  A    between atoms: N_13  and  C_14
REMARK    7  A    between atoms: C_15  and  C_17
REMARK    8  A    between atoms: C_24  and  C_31
REMARK    9  A    between atoms: N_26  and  S_27
REMARK   10  A    between atoms: S_27  and  C_30
REMARK                            x       y       z     vdW  Elec       q    Type
REMARK                         _______ _______ _______ _____ _____    ______ ____
ROOT
ATOM      1  N   UNL     1       3.253   2.136   0.019  0.00  0.00    -0.292 N 
ATOM      2  C   UNL     1       3.470   3.067   1.129  0.00  0.00    +0.133 C 
ATOM      3  C   UNL     1       3.987   2.248  -1.106  0.00  0.00    +0.247 C 
ATOM      4  O   UNL     1       3.867   1.426  -1.994  0.00  0.00    -0.270 OA
ENDROOT
BRANCH   3   5
ATOM      5  C   UNL     1       4.937   3.366  -1.260  0.00  0.00    +0.037 A 
ATOM      6  C   UNL     1       5.566   3.915  -0.139  0.00  0.00    +0.015 A 
ATOM      7  C   UNL     1       6.449   4.956  -0.285  0.00  0.00    +0.026 A 
ATOM      8  C   UNL     1       6.728   5.478  -1.554  0.00  0.00    +0.054 A 
ATOM      9  C   UNL     1       6.100   4.929  -2.666  0.00  0.00    -0.022 A 
ATOM     10  C   UNL     1       5.217   3.882  -2.528  0.00  0.00    +0.018 A 
ATOM     11  C   UNL     1       6.574   5.669  -3.897  0.00  0.00    +0.061 C 
ATOM     12  C   UNL     1       7.558   6.720  -3.358  0.00  0.00    +0.099 C 
ATOM     13  N   UNL     1       7.581   6.517  -1.908  0.00  0.00    -0.204 N 
ATOM     14  C   UNL     1       8.952   6.493  -3.947  0.00  0.00    +0.030 C 
BRANCH  13  15
ATOM     15  S   UNL     1       8.490   7.399  -0.842  0.00  0.00    +0.043 S 
ATOM     16  O   UNL     1       8.686   8.652  -1.483  0.00  0.00    -0.155 OA
ATOM     17  O   UNL     1       7.786   7.318   0.390  0.00  0.00    -0.155 OA
ATOM     18  C   UNL     1      10.064   6.506  -0.721  0.00  0.00    +0.218 C 
ENDBRANCH  13  15
ENDBRANCH   3   5
BRANCH   1  19
ATOM     19  C   UNL     1       2.240   1.085   0.131  0.00  0.00    +0.203 C 
BRANCH  19  21
ATOM     20  N   UNL     1      -0.166   0.805  -0.372  0.00  0.00    -0.284 N 
ATOM     21  C   UNL     1       0.919   1.604  -0.379  0.00  0.00    +0.235 C 
ATOM     22  O   UNL     1       0.834   2.740  -0.794  0.00  0.00    -0.274 OA
ATOM     23  H   UNL     1      -0.081  -0.127  -0.118  0.00  0.00    +0.155 HD
BRANCH  20  29
ATOM     24  C   UNL     1      -2.408   0.469  -1.207  0.00  0.00    -0.026 A 
ATOM     25  C   UNL     1      -3.639   0.980  -1.567  0.00  0.00    +0.005 A 
ATOM     26  C   UNL     1      -3.885   2.336  -1.461  0.00  0.00    +0.000 A 
ATOM     27  C   UNL     1      -2.898   3.186  -0.994  0.00  0.00    +0.002 A 
ATOM     28  C   UNL     1      -1.667   2.681  -0.627  0.00  0.00    +0.023 A 
ATOM     29  C   UNL     1      -1.415   1.319  -0.738  0.00  0.00    +0.037 A 
BRANCH  24  31
ATOM     30  C   UNL     1      -2.406  -1.683   0.026  0.00  0.00    +0.009 C 
ATOM     31  C   UNL     1      -2.141  -1.010  -1.322  0.00  0.00    +0.033 C 
ENDBRANCH  24  31
ENDBRANCH  20  29
ENDBRANCH  19  21
ENDBRANCH   1  19
TORSDOF 6
