REMARK  Name = ZINC44714345
REMARK  9 active torsions:
REMARK  status: ('A' for Active; 'I' for Inactive)
REMARK    1  A    between atoms: C_1  and  C_2
REMARK    2  A    between atoms: C_4  and  C_8
REMARK    3  A    between atoms: N_6  and  C_7
REMARK    4  A    between atoms: C_12  and  C_21
REMARK    5  A    between atoms: N_23  and  C_24
REMARK    6  A    between atoms: C_24  and  C_26
REMARK    7  A    between atoms: C_24  and  C_27
REMARK    8  A    between atoms: C_28  and  C_34
REMARK    9  A    between atoms: C_32  and  C_33
REMARK                            x       y       z     vdW  Elec       q    Type
REMARK                         _______ _______ _______ _____ _____    ______ ____
ROOT
ATOM      1  C   UNL     1       0.163  -3.201  -1.125  0.00  0.00    +0.267 C 
ATOM      2  O   UNL     1       0.192  -3.033  -2.329  0.00  0.00    -0.268 OA
ATOM      3  N   UNL     1       0.140  -4.450  -0.619  0.00  0.00    -0.295 N 
ATOM      4  C   UNL     1       0.097  -4.853   0.806  0.00  0.00    +0.121 C 
ATOM      5  C   UNL     1      -0.861  -6.065   0.841  0.00  0.00    +0.100 C 
ATOM      6  C   UNL     1      -0.818  -6.639  -0.586  0.00  0.00    -0.004 C 
ATOM      7  C   UNL     1       0.146  -5.732  -1.364  0.00  0.00    +0.115 C 
ATOM      8  C   UNL     1      -0.295  -8.072  -0.563  0.00  0.00    -0.010 C 
ATOM      9  C   UNL     1      -0.317  -8.641  -1.985  0.00  0.00    -0.082 C 
ATOM     10  N   UNL     1      -1.689  -8.607  -2.506  0.00  0.00    +0.379 N 
ATOM     11  C   UNL     1      -2.151  -7.218  -2.612  0.00  0.00    -0.082 C 
ATOM     12  C   UNL     1      -2.207  -6.589  -1.216  0.00  0.00    -0.010 C 
ATOM     13  H   UNL     1      -1.711  -9.038  -3.418  0.00  0.00    -0.086 HD
ATOM     14  H   UNL     1      -2.297  -9.116  -1.882  0.00  0.00    -0.086 HD
ENDROOT
BRANCH   1  18
ATOM     15  C   UNL     1       0.162   1.525   0.706  0.00  0.00    +0.065 C 
ATOM     16  C   UNL     1       0.151   0.025   0.565  0.00  0.00    +0.037 A 
ATOM     17  C   UNL     1       0.173  -0.673  -0.595  0.00  0.00    +0.057 A 
ATOM     18  C   UNL     1       0.152  -2.037  -0.216  0.00  0.00    +0.147 A 
ATOM     19  N   UNL     1       0.120  -2.070   1.101  0.00  0.00    -0.167 NA
ATOM     20  N   UNL     1       0.125  -0.875   1.572  0.00  0.00    -0.271 N 
ATOM     21  C   UNL     1       0.100  -0.536   2.997  0.00  0.00    +0.172 C 
ENDBRANCH   1  18
BRANCH   5  22
ATOM     22  C   UNL     1      -2.258  -5.621   1.189  0.00  0.00    +0.219 C 
ATOM     23  O   UNL     1      -2.640  -4.516   0.868  0.00  0.00    -0.275 OA
ATOM     24  N   UNL     1      -3.083  -6.452   1.856  0.00  0.00    -0.308 N 
ATOM     25  H   UNL     1      -2.777  -7.336   2.113  0.00  0.00    +0.149 HD
BRANCH  24  26
ATOM     26  C   UNL     1      -4.441  -6.020   2.195  0.00  0.00    +0.104 C 
ATOM     27  C   UNL     1      -5.371  -6.287   1.009  0.00  0.00    +0.033 C 
BRANCH  26  28
ATOM     28  C   UNL     1      -4.927  -6.788   3.397  0.00  0.00    +0.015 A 
ATOM     29  C   UNL     1      -5.572  -6.267   4.467  0.00  0.00    +0.038 A 
ATOM     30  N   UNL     1      -5.835  -7.278   5.321  0.00  0.00    -0.281 N 
ATOM     31  H   UNL     1      -6.290  -7.200   6.174  0.00  0.00    +0.189 HD
ATOM     32  N   UNL     1      -5.335  -8.459   4.758  0.00  0.00    -0.179 NA
ATOM     33  C   UNL     1      -4.797  -8.165   3.602  0.00  0.00    +0.065 A 
ATOM     34  C   UNL     1      -4.145  -9.141   2.657  0.00  0.00    +0.068 C 
ATOM     35  C   UNL     1      -5.932  -4.817   4.668  0.00  0.00    +0.065 C 
ENDBRANCH  26  28
ENDBRANCH  24  26
ENDBRANCH   5  22
TORSDOF 4
