REMARK  Name = ZINC12515202
REMARK  6 active torsions:
REMARK  status: ('A' for Active; 'I' for Inactive)
REMARK    1  A    between atoms: C_1  and  C_2
REMARK    2  A    between atoms: C_2  and  C_4
REMARK    3  A    between atoms: C_2  and  N_10
REMARK    4  A    between atoms: N_10  and  C_11
REMARK    5  A    between atoms: C_16  and  O_17
REMARK    6  A    between atoms: O_17  and  C_18
REMARK                            x       y       z     vdW  Elec       q    Type
REMARK                         _______ _______ _______ _____ _____    ______ ____
ROOT
ATOM      1  C   UNL     1       2.891  -3.898   0.422  0.00  0.00    +0.071 A 
ATOM      2  C   UNL     1       1.882  -4.702   0.931  0.00  0.00    +0.026 A 
ATOM      3  C   UNL     1       2.186  -5.943   1.458  0.00  0.00    +0.002 A 
ATOM      4  C   UNL     1       3.496  -6.386   1.480  0.00  0.00    +0.004 A 
ATOM      5  C   UNL     1       4.508  -5.590   0.976  0.00  0.00    +0.048 A 
ATOM      6  C   UNL     1       4.210  -4.347   0.441  0.00  0.00    +0.149 A 
ENDROOT
BRANCH   1   7
ATOM      7  N   UNL     1       2.586  -2.641  -0.112  0.00  0.00    -0.330 N 
ATOM      8  H   UNL     1       3.293  -2.080  -0.467  0.00  0.00    +0.147 HD
BRANCH   7  10
ATOM      9  C   UNL     1       0.499  -2.713  -1.386  0.00  0.00    +0.038 C 
ATOM     10  C   UNL     1       1.198  -2.174  -0.136  0.00  0.00    +0.154 C 
BRANCH  10  11
ATOM     11  C   UNL     1       1.176  -0.667  -0.159  0.00  0.00    +0.240 C 
ATOM     12  O   UNL     1       2.217  -0.045  -0.156  0.00  0.00    -0.273 OA
ATOM     13  N   UNL     1      -0.001  -0.010  -0.183  0.00  0.00    -0.239 N 
ATOM     14  C   UNL     1      -0.021   1.337  -0.204  0.00  0.00    +0.303 C 
ATOM     15  O   UNL     1       1.023   1.960  -0.201  0.00  0.00    -0.253 OA
ATOM     16  N   UNL     1      -1.198   1.994  -0.234  0.00  0.00    -0.313 N 
ATOM     17  H   UNL     1      -0.834  -0.508  -0.186  0.00  0.00    +0.159 HD
ATOM     18  H   UNL     1      -2.030   1.496  -0.240  0.00  0.00    +0.146 HD
ATOM     19  H   UNL     1      -1.212   2.963  -0.249  0.00  0.00    +0.146 HD
ENDBRANCH  10  11
ENDBRANCH   7  10
ENDBRANCH   1   7
BRANCH   6  20
ATOM     20  O   UNL     1       5.204  -3.566  -0.060  0.00  0.00    -0.453 OA
BRANCH  20  21
ATOM     21  C   UNL     1       5.697  -2.576   0.729  0.00  0.00    +0.147 A 
ATOM     22  C   UNL     1       5.272  -2.460   2.045  0.00  0.00    +0.048 A 
ATOM     23  C   UNL     1       5.778  -1.455   2.847  0.00  0.00    +0.004 A 
ATOM     24  C   UNL     1       6.700  -0.559   2.337  0.00  0.00    +0.002 A 
ATOM     25  C   UNL     1       7.122  -0.669   1.025  0.00  0.00    +0.024 A 
ATOM     26  C   UNL     1       6.622  -1.675   0.219  0.00  0.00    +0.083 A 
ATOM     27 CL   UNL     1       7.152  -1.812  -1.428  0.00  0.00    -0.080 Cl
ENDBRANCH  20  21
ENDBRANCH   6  20
TORSDOF 5
