REMARK  Name = ZINC39766517
REMARK  11 active torsions:
REMARK  status: ('A' for Active; 'I' for Inactive)
REMARK    1  A    between atoms: C_1  and  C_2
REMARK    2  A    between atoms: C_2  and  N_3
REMARK    3  A    between atoms: C_4  and  C_21
REMARK    4  A    between atoms: C_7  and  S_8
REMARK    5  A    between atoms: S_8  and  C_9
REMARK    6  A    between atoms: C_9  and  C_10
REMARK    7  A    between atoms: N_12  and  C_13
REMARK    8  A    between atoms: C_13  and  C_14
REMARK    9  A    between atoms: C_21  and  C_22
REMARK   10  A    between atoms: N_24  and  C_25
REMARK   11  A    between atoms: C_30  and  C_31
REMARK                            x       y       z     vdW  Elec       q    Type
REMARK                         _______ _______ _______ _____ _____    ______ ____
ROOT
ATOM      1  N   UNL     1      -1.359  -0.498   0.009  0.00  0.00    -0.306 N 
ATOM      2  C   UNL     1      -2.123  -0.793   1.104  0.00  0.00    +0.143 A 
ATOM      3  N   UNL     1      -3.274  -1.224   0.669  0.00  0.00    -0.133 NA
ATOM      4  N   UNL     1      -3.289  -1.222  -0.616  0.00  0.00    -0.122 NA
ATOM      5  C   UNL     1      -2.141  -0.780  -1.075  0.00  0.00    +0.192 A 
ENDROOT
BRANCH   1   7
ATOM      6  C   UNL     1      -0.021   1.550   0.012  0.00  0.00    +0.027 C 
ATOM      7  C   UNL     1       0.011   0.020  -0.000  0.00  0.00    +0.122 C 
ENDBRANCH   1   7
BRANCH   5   8
ATOM      8  S   UNL     1      -1.692  -0.592  -2.768  0.00  0.00    -0.077 S 
BRANCH   8   9
ATOM      9  C   UNL     1      -3.165  -1.137  -3.676  0.00  0.00    +0.173 C 
BRANCH   9  10
ATOM     10  C   UNL     1      -2.912  -1.025  -5.157  0.00  0.00    +0.224 C 
ATOM     11  O   UNL     1      -1.844  -0.617  -5.561  0.00  0.00    -0.275 OA
ATOM     12  N   UNL     1      -3.874  -1.378  -6.033  0.00  0.00    -0.310 N 
ATOM     13  H   UNL     1      -4.728  -1.704  -5.710  0.00  0.00    +0.149 HD
BRANCH  12  14
ATOM     14  C   UNL     1      -3.628  -1.268  -7.473  0.00  0.00    +0.141 C 
BRANCH  14  15
ATOM     15  C   UNL     1      -4.852  -1.722  -8.227  0.00  0.00    -0.012 A 
ATOM     16  C   UNL     1      -4.902  -2.996  -8.761  0.00  0.00    +0.006 A 
ATOM     17  C   UNL     1      -6.024  -3.412  -9.453  0.00  0.00    +0.000 A 
ATOM     18  C   UNL     1      -7.097  -2.554  -9.611  0.00  0.00    +0.001 A 
ATOM     19  C   UNL     1      -7.047  -1.279  -9.078  0.00  0.00    +0.020 A 
ATOM     20  C   UNL     1      -5.927  -0.865  -8.381  0.00  0.00    +0.046 A 
ATOM     21 CL   UNL     1      -5.866   0.734  -7.705  0.00  0.00    -0.083 Cl
ENDBRANCH  14  15
ENDBRANCH  12  14
ENDBRANCH   9  10
ENDBRANCH   8   9
ENDBRANCH   5   8
BRANCH   2  22
ATOM     22  C   UNL     1      -1.711  -0.647   2.546  0.00  0.00    +0.172 C 
BRANCH  22  23
ATOM     23  C   UNL     1      -2.075   0.732   3.035  0.00  0.00    +0.225 C 
ATOM     24  O   UNL     1      -2.615   1.518   2.287  0.00  0.00    -0.275 OA
ATOM     25  N   UNL     1      -1.799   1.091   4.305  0.00  0.00    -0.285 N 
ATOM     26  H   UNL     1      -1.441   0.438   4.926  0.00  0.00    +0.155 HD
BRANCH  25  27
ATOM     27  C   UNL     1      -2.030   2.405   4.726  0.00  0.00    +0.038 A 
ATOM     28  C   UNL     1      -2.038   3.441   3.801  0.00  0.00    +0.043 A 
ATOM     29  C   UNL     1      -2.267   4.737   4.221  0.00  0.00    +0.043 A 
ATOM     30  C   UNL     1      -2.488   5.004   5.561  0.00  0.00    +0.020 A 
ATOM     31  C   UNL     1      -2.480   3.974   6.483  0.00  0.00    +0.006 A 
ATOM     32  C   UNL     1      -2.258   2.675   6.069  0.00  0.00    -0.029 A 
ATOM     33  C   UNL     1      -2.257   1.552   7.075  0.00  0.00    +0.045 C 
ATOM     34 CL   UNL     1      -2.276   6.034   3.066  0.00  0.00    -0.083 Cl
ENDBRANCH  25  27
ENDBRANCH  22  23
ENDBRANCH   2  22
TORSDOF 9
