REMARK  Name = ZINC37021074
REMARK  2 active torsions:
REMARK  status: ('A' for Active; 'I' for Inactive)
REMARK    1  A    between atoms: C_5  and  N_8
REMARK    2  A    between atoms: C_9  and  C_11
REMARK                            x       y       z     vdW  Elec       q    Type
REMARK                         _______ _______ _______ _____ _____    ______ ____
ROOT
ATOM      1  C   UNL     1       0.149   1.381   0.586  0.00  0.00    +0.048 A 
ATOM      2  C   UNL     1       1.173   2.086  -0.027  0.00  0.00    +0.077 A 
ATOM      3  C   UNL     1       2.221   1.403  -0.642  0.00  0.00    +0.144 A 
ATOM      4  C   UNL     1       2.240   0.019  -0.640  0.00  0.00    +0.072 A 
ATOM      5  C   UNL     1       1.212  -0.685  -0.025  0.00  0.00    +0.055 A 
ATOM      6  C   UNL     1       0.169  -0.002   0.588  0.00  0.00    +0.064 A 
ATOM      7 CL   UNL     1      -1.113  -0.886   1.355  0.00  0.00    -0.082 Cl
ATOM      8  O   UNL     1       3.218   2.108  -1.241  0.00  0.00    -0.481 OA
ATOM      9  C   UNL     1       2.853   3.352  -1.843  0.00  0.00    +0.325 C 
ATOM     10  C   UNL     1       1.986   4.140  -0.893  0.00  0.00    +0.255 C 
ATOM     11  O   UNL     1       2.022   5.352  -0.899  0.00  0.00    -0.272 OA
ATOM     12  N   UNL     1       1.169   3.489  -0.036  0.00  0.00    -0.280 N 
ATOM     13  H   UNL     1       0.589   3.985   0.563  0.00  0.00    +0.155 HD
ENDROOT
BRANCH   5  14
ATOM     14  N   UNL     1       1.229  -2.086  -0.023  0.00  0.00    -0.286 N 
ATOM     15  C   UNL     1       2.398  -2.746  -0.140  0.00  0.00    +0.203 C 
ATOM     16  O   UNL     1       3.444  -2.132  -0.146  0.00  0.00    -0.277 OA
ATOM     17  H   UNL     1       0.399  -2.580   0.063  0.00  0.00    +0.155 HD
BRANCH  15  18
ATOM     18  C   UNL     1       2.406  -4.248  -0.262  0.00  0.00    +0.016 C 
ATOM     19  C   UNL     1       1.620  -4.662  -1.508  0.00  0.00    -0.007 C 
ATOM     20  C   UNL     1       1.630  -6.188  -1.629  0.00  0.00    -0.003 C 
ATOM     21  C   UNL     1       3.081  -6.677  -1.669  0.00  0.00    -0.019 C 
ATOM     22  C   UNL     1       3.813  -6.189  -0.416  0.00  0.00    -0.082 C 
ATOM     23  N   UNL     1       3.790  -4.722  -0.374  0.00  0.00    +0.387 N 
ATOM     24  H   UNL     1       4.203  -4.355  -1.218  0.00  0.00    -0.085 HD
ATOM     25  H   UNL     1       4.320  -4.402   0.423  0.00  0.00    -0.085 HD
ENDBRANCH  15  18
ENDBRANCH   5  14
TORSDOF 2
