REMARK  Name = ZINC18156214
REMARK  4 active torsions:
REMARK  status: ('A' for Active; 'I' for Inactive)
REMARK    1  A    between atoms: C_1  and  O_2
REMARK    2  A    between atoms: O_2  and  C_3
REMARK    3  A    between atoms: C_5  and  C_11
REMARK    4  A    between atoms: C_8  and  O_9
REMARK                            x       y       z     vdW  Elec       q    Type
REMARK                         _______ _______ _______ _____ _____    ______ ____
ROOT
ATOM      1  C   UNL     1      -4.871   0.258   0.039  0.00  0.00    +0.209 C 
ATOM      2  N   UNL     1      -5.881  -0.386  -0.820  0.00  0.00    -0.293 N 
ATOM      3  C   UNL     1      -6.625  -1.428  -0.333  0.00  0.00    +0.183 C 
ATOM      4  N   UNL     1      -6.920  -1.521   0.952  0.00  0.00    -0.183 NA
ATOM      5  C   UNL     1      -6.418  -0.592   1.798  0.00  0.00    +0.236 A 
ATOM      6  N   UNL     1      -5.430   0.296   1.396  0.00  0.00    -0.285 N 
ATOM      7  C   UNL     1      -5.148   1.105   2.455  0.00  0.00    +0.072 A 
ATOM      8  C   UNL     1      -4.272   2.171   2.625  0.00  0.00    +0.028 A 
ATOM      9  C   UNL     1      -4.248   2.777   3.872  0.00  0.00    +0.002 A 
ATOM     10  C   UNL     1      -5.055   2.350   4.911  0.00  0.00    +0.002 A 
ATOM     11  C   UNL     1      -5.935   1.292   4.769  0.00  0.00    +0.030 A 
ATOM     12  C   UNL     1      -5.978   0.665   3.518  0.00  0.00    +0.091 A 
ATOM     13  N   UNL     1      -6.715  -0.372   3.057  0.00  0.00    -0.210 NA
ATOM     14  N   UNL     1      -7.073  -2.392  -1.195  0.00  0.00    -0.331 N 
ATOM     15  H   UNL     1      -6.863  -2.333  -2.140  0.00  0.00    +0.145 HD
ATOM     16  H   UNL     1      -7.601  -3.134  -0.861  0.00  0.00    +0.145 HD
ATOM     17  H   UNL     1      -6.019  -0.073  -1.727  0.00  0.00    +0.151 HD
ENDROOT
BRANCH   1  20
ATOM     18  C   UNL     1      -1.201  -0.638   0.010  0.00  0.00    +0.163 A 
ATOM     19  C   UNL     1      -2.374   0.100   0.019  0.00  0.00    +0.056 A 
ATOM     20  C   UNL     1      -3.597  -0.546   0.028  0.00  0.00    -0.002 A 
ATOM     21  C   UNL     1      -3.653  -1.927   0.028  0.00  0.00    +0.026 A 
ATOM     22  C   UNL     1      -2.486  -2.669   0.018  0.00  0.00    +0.063 A 
ATOM     23  C   UNL     1      -1.257  -2.028   0.003  0.00  0.00    +0.173 A 
ATOM     24 BR   UNL     1      -2.567  -4.559   0.019  0.00  0.00    -0.046 Br
BRANCH  18  26
ATOM     25  C   UNL     1      -0.017   1.425   0.010  0.00  0.00    +0.277 C 
ATOM     26  O   UNL     1       0.002  -0.004   0.002  0.00  0.00    -0.491 OA
ENDBRANCH  18  26
BRANCH  23  27
ATOM     27  O   UNL     1      -0.108  -2.756  -0.012  0.00  0.00    -0.503 OA
ATOM     28  H   UNL     1       0.233  -2.971   0.867  0.00  0.00    +0.292 HD
ENDBRANCH  23  27
ENDBRANCH   1  20
TORSDOF 3
