REMARK  Name = ZINC43223179
REMARK  10 active torsions:
REMARK  status: ('A' for Active; 'I' for Inactive)
REMARK    1  A    between atoms: C_1  and  S_2
REMARK    2  A    between atoms: S_2  and  C_3
REMARK    3  A    between atoms: C_3  and  C_4
REMARK    4  A    between atoms: C_4  and  N_5
REMARK    5  A    between atoms: C_6  and  C_8
REMARK    6  A    between atoms: C_13  and  C_15
REMARK    7  A    between atoms: N_17  and  C_18
REMARK    8  A    between atoms: C_23  and  O_25
REMARK    9  A    between atoms: O_25  and  C_26
REMARK   10  A    between atoms: C_26  and  C_27
REMARK                            x       y       z     vdW  Elec       q    Type
REMARK                         _______ _______ _______ _____ _____    ______ ____
ROOT
ATOM      1  C   UNL     1       4.192  -5.949   4.663  0.00  0.00    +0.215 C 
ATOM      2  O   UNL     1       5.086  -5.131   4.603  0.00  0.00    -0.276 OA
ATOM      3  N   UNL     1       4.484  -7.257   4.802  0.00  0.00    -0.310 N 
ATOM      4  H   UNL     1       3.769  -7.911   4.850  0.00  0.00    +0.149 HD
ENDROOT
BRANCH   1   9
ATOM      5  C   UNL     1       2.679  -3.969   4.425  0.00  0.00    +0.068 C 
ATOM      6  C   UNL     1       1.909  -3.474   5.668  0.00  0.00    -0.069 C 
ATOM      7  N   UNL     1       1.109  -4.648   6.105  0.00  0.00    +0.380 N 
ATOM      8  C   UNL     1       2.021  -5.804   5.908  0.00  0.00    -0.069 C 
ATOM      9  C   UNL     1       2.755  -5.502   4.582  0.00  0.00    +0.068 C 
ATOM     10  H   UNL     1       0.855  -4.560   7.077  0.00  0.00    -0.086 HD
ATOM     11  H   UNL     1       0.285  -4.747   5.531  0.00  0.00    -0.086 HD
BRANCH   5  13
ATOM     12  N   UNL     1       1.724  -2.313   2.855  0.00  0.00    -0.314 N 
ATOM     13  C   UNL     1       1.931  -3.608   3.168  0.00  0.00    +0.215 C 
ATOM     14  O   UNL     1       1.514  -4.482   2.438  0.00  0.00    -0.276 OA
ATOM     15  H   UNL     1       2.058  -1.614   3.439  0.00  0.00    +0.149 HD
BRANCH  12  16
ATOM     16  C   UNL     1       0.997  -1.962   1.633  0.00  0.00    +0.115 C 
BRANCH  16  17
ATOM     17  C   UNL     1       0.902  -0.439   1.516  0.00  0.00    +0.087 C 
BRANCH  17  19
ATOM     18  C   UNL     1      -0.022   1.810   0.012  0.00  0.00    +0.084 C 
ATOM     19  S   UNL     1       0.002  -0.004   0.002  0.00  0.00    -0.163 S 
ENDBRANCH  17  19
ENDBRANCH  16  17
ENDBRANCH  12  16
ENDBRANCH   5  13
ENDBRANCH   1   9
BRANCH   3  20
ATOM     20  C   UNL     1       5.881  -7.692   4.880  0.00  0.00    +0.102 C 
ATOM     21  C   UNL     1       6.369  -7.634   6.338  0.00  0.00    +0.025 C 
ATOM     22  C   UNL     1       6.771  -9.072   6.726  0.00  0.00    +0.004 C 
ATOM     23  C   UNL     1       5.960  -9.967   5.756  0.00  0.00    +0.033 C 
ATOM     24  C   UNL     1       6.003  -9.163   4.432  0.00  0.00    +0.139 C 
BRANCH  24  25
ATOM     25  O   UNL     1       4.904  -9.522   3.592  0.00  0.00    -0.370 OA
BRANCH  25  26
ATOM     26  C   UNL     1       5.216 -10.525   2.623  0.00  0.00    +0.195 C 
BRANCH  26  27
ATOM     27  C   UNL     1       3.992 -10.825   1.797  0.00  0.00    -0.022 A 
ATOM     28  C   UNL     1       3.110 -11.810   2.201  0.00  0.00    +0.006 A 
ATOM     29  C   UNL     1       1.987 -12.085   1.443  0.00  0.00    +0.000 A 
ATOM     30  C   UNL     1       1.745 -11.374   0.283  0.00  0.00    +0.000 A 
ATOM     31  C   UNL     1       2.626 -10.388  -0.120  0.00  0.00    +0.000 A 
ATOM     32  C   UNL     1       3.747 -10.110   0.639  0.00  0.00    +0.006 A 
ENDBRANCH  26  27
ENDBRANCH  25  26
ENDBRANCH  24  25
ENDBRANCH   3  20
TORSDOF 9
