REMARK  Name = ZINC36531007
REMARK  16 active torsions:
REMARK  status: ('A' for Active; 'I' for Inactive)
REMARK    1  A    between atoms: C_1  and  C_2
REMARK    2  A    between atoms: C_2  and  C_3
REMARK    3  A    between atoms: C_2  and  C_4
REMARK    4  A    between atoms: C_2  and  C_5
REMARK    5  A    between atoms: C_5  and  C_6
REMARK    6  A    between atoms: C_6  and  C_7
REMARK    7  A    between atoms: C_6  and  C_8
REMARK    8  A    between atoms: C_6  and  N_9
REMARK    9  A    between atoms: C_10  and  C_12
REMARK   10  A    between atoms: C_12  and  C_14
REMARK   11  A    between atoms: C_12  and  N_24
REMARK   12  A    between atoms: C_17  and  C_20
REMARK   13  A    between atoms: N_24  and  C_25
REMARK   14  A    between atoms: C_26  and  C_28
REMARK   15  A    between atoms: C_29  and  O_35
REMARK   16  A    between atoms: C_33  and  O_34
REMARK                            x       y       z     vdW  Elec       q    Type
REMARK                         _______ _______ _______ _____ _____    ______ ____
ROOT
ATOM      1  C   UNL     1       5.370  -0.496  -4.287  0.00  0.00    +0.192 C 
ENDROOT
BRANCH   1   2
ATOM      2  C   UNL     1       5.336  -1.965  -4.621  0.00  0.00    -0.018 A 
ATOM      3  C   UNL     1       4.873  -2.382  -5.855  0.00  0.00    +0.006 A 
ATOM      4  C   UNL     1       4.842  -3.730  -6.162  0.00  0.00    +0.013 A 
ATOM      5  C   UNL     1       5.274  -4.660  -5.235  0.00  0.00    +0.055 A 
ATOM      6  C   UNL     1       5.737  -4.242  -4.001  0.00  0.00    +0.013 A 
ATOM      7  C   UNL     1       5.773  -2.895  -3.696  0.00  0.00    +0.006 A 
BRANCH   5   8
ATOM      8  C   UNL     1       5.239  -6.129  -5.569  0.00  0.00    +0.417 C 
ATOM      9  F   UNL     1       6.450  -6.502  -6.160  0.00  0.00    -0.166 F 
ATOM     10  F   UNL     1       5.044  -6.869  -4.397  0.00  0.00    -0.166 F 
ATOM     11  F   UNL     1       4.189  -6.380  -6.459  0.00  0.00    -0.166 F 
ENDBRANCH   5   8
ENDBRANCH   1   2
BRANCH   1  13
ATOM     12  N   UNL     1       3.285  -0.569  -2.957  0.00  0.00    -0.308 N 
ATOM     13  C   UNL     1       4.594  -0.251  -3.018  0.00  0.00    +0.238 C 
ATOM     14  O   UNL     1       5.147   0.231  -2.053  0.00  0.00    -0.273 OA
ATOM     15  H   UNL     1       2.844  -0.955  -3.730  0.00  0.00    +0.149 HD
BRANCH  12  16
ATOM     16  C   UNL     1       2.531  -0.331  -1.724  0.00  0.00    +0.030 C 
ATOM     17  C   UNL     1       2.696   1.129  -1.299  0.00  0.00    +0.031 C 
ATOM     18  C   UNL     1       3.058  -1.247  -0.619  0.00  0.00    +0.031 C 
BRANCH  16  19
ATOM     19  C   UNL     1       1.050  -0.626  -1.968  0.00  0.00    +0.031 C 
BRANCH  19  21
ATOM     20  C   UNL     1       1.035  -0.968  -4.443  0.00  0.00    +0.010 C 
ATOM     21  C   UNL     1       0.624  -0.026  -3.310  0.00  0.00    -0.036 C 
ATOM     22  C   UNL     1       1.306   1.330  -3.501  0.00  0.00    +0.010 C 
ATOM     23  C   UNL     1      -0.895   0.160  -3.327  0.00  0.00    +0.010 C 
ENDBRANCH  19  21
ENDBRANCH  16  19
ENDBRANCH  12  16
ENDBRANCH   1  13
BRANCH   1  24
ATOM     24  N   UNL     1       6.759  -0.070  -4.099  0.00  0.00    -0.285 N 
ATOM     25  C   UNL     1       7.599  -0.732  -3.097  0.00  0.00    +0.133 C 
ATOM     26  C   UNL     1       7.265   0.930  -4.847  0.00  0.00    +0.254 C 
ATOM     27  O   UNL     1       6.567   1.480  -5.679  0.00  0.00    -0.270 OA
BRANCH  26  28
ATOM     28  C   UNL     1       8.661   1.358  -4.658  0.00  0.00    +0.119 A 
ATOM     29  C   UNL     1       9.689   0.764  -5.404  0.00  0.00    +0.133 A 
ATOM     30  C   UNL     1      10.999   1.174  -5.219  0.00  0.00    +0.046 A 
ATOM     31  C   UNL     1      11.294   2.166  -4.303  0.00  0.00    +0.007 A 
ATOM     32  C   UNL     1      10.289   2.759  -3.562  0.00  0.00    +0.046 A 
ATOM     33  C   UNL     1       8.971   2.368  -3.735  0.00  0.00    +0.133 A 
BRANCH  33  34
ATOM     34  O   UNL     1       7.986   2.955  -3.011  0.00  0.00    -0.506 OA
ATOM     35  H   UNL     1       7.801   2.516  -2.170  0.00  0.00    +0.292 HD
ENDBRANCH  33  34
BRANCH  29  36
ATOM     36  O   UNL     1       9.401  -0.210  -6.304  0.00  0.00    -0.506 OA
ATOM     37  H   UNL     1       9.215   0.119  -7.194  0.00  0.00    +0.292 HD
ENDBRANCH  29  36
ENDBRANCH  26  28
ENDBRANCH   1  24
TORSDOF 10
