REMARK  Name = ZINC38937182
REMARK  14 active torsions:
REMARK  status: ('A' for Active; 'I' for Inactive)
REMARK    1  A    between atoms: C_1  and  C_2
REMARK    2  A    between atoms: C_2  and  O_3
REMARK    3  A    between atoms: O_3  and  C_4
REMARK    4  A    between atoms: C_7  and  N_10
REMARK    5  A    between atoms: N_10  and  C_11
REMARK    6  A    between atoms: C_11  and  C_12
REMARK    7  A    between atoms: C_17  and  C_24
REMARK    8  A    between atoms: C_25  and  C_27
REMARK    9  A    between atoms: C_29  and  O_37
REMARK   10  A    between atoms: C_30  and  O_35
REMARK   11  A    between atoms: C_31  and  O_33
REMARK   12  A    between atoms: O_33  and  C_34
REMARK   13  A    between atoms: O_35  and  C_36
REMARK   14  A    between atoms: O_37  and  C_38
REMARK                            x       y       z     vdW  Elec       q    Type
REMARK                         _______ _______ _______ _____ _____    ______ ____
ROOT
ATOM      1  N   UNL     1      -1.903  -5.915  -0.579  0.00  0.00    -0.266 N 
ATOM      2  C   UNL     1      -0.955  -6.578   0.111  0.00  0.00    +0.251 C 
ATOM      3  O   UNL     1       0.029  -5.988   0.514  0.00  0.00    -0.270 OA
ENDROOT
BRANCH   1   7
ATOM      4  C   UNL     1      -1.379  -1.880  -1.489  0.00  0.00    +0.121 A 
ATOM      5  C   UNL     1      -0.495  -2.518  -0.631  0.00  0.00    +0.047 A 
ATOM      6  C   UNL     1      -0.668  -3.854  -0.329  0.00  0.00    +0.027 A 
ATOM      7  C   UNL     1      -1.728  -4.559  -0.884  0.00  0.00    +0.037 A 
ATOM      8  C   UNL     1      -2.612  -3.920  -1.743  0.00  0.00    +0.027 A 
ATOM      9  C   UNL     1      -2.441  -2.583  -2.040  0.00  0.00    +0.047 A 
BRANCH   4  10
ATOM     10  O   UNL     1      -1.209  -0.564  -1.786  0.00  0.00    -0.492 OA
BRANCH  10  12
ATOM     11  C   UNL     1      -0.067   1.560  -1.632  0.00  0.00    +0.048 C 
ATOM     12  C   UNL     1      -0.095   0.098  -1.184  0.00  0.00    +0.225 C 
ENDBRANCH  10  12
ENDBRANCH   4  10
ENDBRANCH   1   7
BRANCH   2  13
ATOM     13  C   UNL     1      -1.110  -8.022   0.378  0.00  0.00    +0.044 A 
ATOM     14  C   UNL     1      -0.095  -8.912   0.021  0.00  0.00    +0.062 A 
ATOM     15  C   UNL     1      -0.243 -10.264   0.272  0.00  0.00    +0.166 A 
ATOM     16  C   UNL     1      -1.403 -10.737   0.879  0.00  0.00    +0.204 A 
ATOM     17  C   UNL     1      -2.416  -9.852   1.235  0.00  0.00    +0.166 A 
ATOM     18  C   UNL     1      -2.271  -8.499   0.992  0.00  0.00    +0.062 A 
BRANCH  17  19
ATOM     19  O   UNL     1      -3.548 -10.318   1.828  0.00  0.00    -0.491 OA
ATOM     20  C   UNL     1      -4.547  -9.353   2.167  0.00  0.00    +0.277 C 
ENDBRANCH  17  19
BRANCH  16  21
ATOM     21  O   UNL     1      -1.546 -12.066   1.123  0.00  0.00    -0.488 OA
ATOM     22  C   UNL     1      -1.078 -12.548   2.385  0.00  0.00    +0.277 C 
ENDBRANCH  16  21
BRANCH  15  23
ATOM     23  O   UNL     1       0.746 -11.131  -0.075  0.00  0.00    -0.491 OA
ATOM     24  C   UNL     1       1.952 -10.567  -0.593  0.00  0.00    +0.277 C 
ENDBRANCH  15  23
ENDBRANCH   2  13
BRANCH   1  25
ATOM     25  C   UNL     1      -3.119  -6.611  -1.009  0.00  0.00    +0.131 C 
BRANCH  25  26
ATOM     26  C   UNL     1      -2.981  -7.017  -2.478  0.00  0.00    +0.116 C 
ATOM     27  C   UNL     1      -4.325  -7.543  -2.942  0.00  0.00    -0.003 C 
ATOM     28  C   UNL     1      -4.363  -8.816  -3.430  0.00  0.00    -0.007 A 
ATOM     29  C   UNL     1      -5.618  -9.402  -3.900  0.00  0.00    +0.012 A 
ATOM     30  C   UNL     1      -5.609 -10.674  -4.378  0.00  0.00    -0.050 A 
ATOM     31  C   UNL     1      -4.432 -11.422  -4.428  0.00  0.00    +0.005 A 
ATOM     32  C   UNL     1      -3.235 -10.935  -4.007  0.00  0.00    +0.024 A 
ATOM     33  C   UNL     1      -3.136  -9.629  -3.495  0.00  0.00    +0.040 A 
ATOM     34  N   UNL     1      -1.957  -9.161  -3.086  0.00  0.00    -0.284 N 
ATOM     35  C   UNL     1      -1.794  -7.946  -2.593  0.00  0.00    +0.226 C 
ATOM     36  O   UNL     1      -0.692  -7.575  -2.235  0.00  0.00    -0.275 OA
ATOM     37  C   UNL     1      -6.895 -11.289  -4.864  0.00  0.00    +0.044 C 
ATOM     38  H   UNL     1      -1.182  -9.741  -3.152  0.00  0.00    +0.155 HD
ENDBRANCH  25  26
ENDBRANCH   1  25
TORSDOF 9
