REMARK  Name = ZINC63847127
REMARK  8 active torsions:
REMARK  status: ('A' for Active; 'I' for Inactive)
REMARK    1  A    between atoms: C_1  and  C_2
REMARK    2  A    between atoms: C_5  and  S_7
REMARK    3  A    between atoms: S_7  and  C_8
REMARK    4  A    between atoms: C_8  and  C_9
REMARK    5  A    between atoms: N_11  and  C_12
REMARK    6  A    between atoms: N_11  and  C_13
REMARK    7  A    between atoms: C_13  and  C_14
REMARK    8  A    between atoms: C_14  and  C_15
REMARK                            x       y       z     vdW  Elec       q    Type
REMARK                         _______ _______ _______ _____ _____    ______ ____
ROOT
ATOM      1  C   UNL     1       0.119  -9.033  -1.238  0.00  0.00    +0.111 C 
ENDROOT
BRANCH   1   4
ATOM      2  C   UNL     1       0.091  -6.720  -0.470  0.00  0.00    +0.226 C 
ATOM      3  O   UNL     1       0.100  -7.130   0.672  0.00  0.00    -0.275 OA
ATOM      4  N   UNL     1       0.099  -7.591  -1.498  0.00  0.00    -0.304 N 
ATOM      5  C   UNL     1       0.088  -7.096  -2.877  0.00  0.00    +0.132 C 
BRANCH   2   6
ATOM      6  C   UNL     1       0.070  -5.237  -0.738  0.00  0.00    +0.172 C 
BRANCH   6   7
ATOM      7  S   UNL     1       0.064  -4.338   0.838  0.00  0.00    -0.088 S 
BRANCH   7  12
ATOM      8  C   UNL     1      -0.018   1.503   0.010  0.00  0.00    +0.075 C 
ATOM      9  C   UNL     1       0.002  -0.004   0.002  0.00  0.00    +0.100 A 
ATOM     10  N   UNL     1       0.010  -0.845  -1.012  0.00  0.00    -0.146 NA
ATOM     11  N   UNL     1       0.027  -2.095  -0.849  0.00  0.00    -0.135 NA
ATOM     12  C   UNL     1       0.039  -2.642   0.360  0.00  0.00    +0.159 A 
ATOM     13  S   UNL     1       0.031  -1.162   1.368  0.00  0.00    -0.044 S 
ENDBRANCH   7  12
ENDBRANCH   6   7
ENDBRANCH   2   6
ENDBRANCH   1   4
BRANCH   1  14
ATOM     14  C   UNL     1      -1.316  -9.553  -1.142  0.00  0.00    +0.065 C 
BRANCH  14  15
ATOM     15  C   UNL     1      -1.295 -11.059  -0.870  0.00  0.00    +0.175 C 
ATOM     16  N   UNL     1      -0.646 -11.763  -1.983  0.00  0.00    -0.363 N 
ATOM     17  C   UNL     1      -1.521 -12.582  -2.490  0.00  0.00    +0.060 A 
ATOM     18  C   UNL     1      -1.463 -13.539  -3.605  0.00  0.00    +0.030 A 
ATOM     19  C   UNL     1      -2.552 -14.271  -3.910  0.00  0.00    +0.040 A 
ATOM     20  C   UNL     1      -3.764 -14.161  -3.200  0.00  0.00    +0.125 A 
ATOM     21  C   UNL     1      -3.922 -13.312  -2.160  0.00  0.00    +0.065 A 
ATOM     22  C   UNL     1      -2.801 -12.465  -1.739  0.00  0.00    +0.063 A 
ATOM     23  N   UNL     1      -2.667 -11.577  -0.794  0.00  0.00    -0.363 N 
ATOM     24  F   UNL     1      -4.809 -14.932  -3.572  0.00  0.00    -0.205 F 
ATOM     25  H   UNL     1       0.267 -11.640  -2.285  0.00  0.00    +0.162 HD
ATOM     26  H   UNL     1      -3.348 -11.307  -0.158  0.00  0.00    +0.162 HD
ENDBRANCH  14  15
ENDBRANCH   1  14
TORSDOF 6
