REMARK  Name = ZINC39684881
REMARK  8 active torsions:
REMARK  status: ('A' for Active; 'I' for Inactive)
REMARK    1  A    between atoms: C_1  and  N_2
REMARK    2  A    between atoms: N_2  and  C_3
REMARK    3  A    between atoms: N_2  and  C_4
REMARK    4  A    between atoms: C_8  and  C_10
REMARK    5  A    between atoms: C_14  and  C_23
REMARK    6  A    between atoms: N_25  and  C_26
REMARK    7  A    between atoms: C_26  and  C_27
REMARK    8  A    between atoms: C_30  and  C_33
REMARK                            x       y       z     vdW  Elec       q    Type
REMARK                         _______ _______ _______ _____ _____    ______ ____
ROOT
ATOM      1  C   UNL     1      -4.897  -0.048   0.038  0.00  0.00    +0.247 C 
ATOM      2  O   UNL     1      -4.922   1.162   0.148  0.00  0.00    -0.270 OA
ATOM      3  N   UNL     1      -6.049  -0.741  -0.057  0.00  0.00    -0.296 N 
ATOM      4  C   UNL     1      -6.227  -2.212  -0.068  0.00  0.00    +0.121 C 
ATOM      5  C   UNL     1      -7.497  -2.458   0.777  0.00  0.00    +0.100 C 
ATOM      6  C   UNL     1      -8.280  -1.136   0.702  0.00  0.00    -0.004 C 
ATOM      7  C   UNL     1      -7.426  -0.202  -0.167  0.00  0.00    +0.115 C 
ATOM      8  C   UNL     1      -8.449  -0.542   2.097  0.00  0.00    -0.010 C 
ATOM      9  C   UNL     1      -9.279   0.742   2.003  0.00  0.00    -0.082 C 
ATOM     10  N   UNL     1     -10.590   0.436   1.418  0.00  0.00    +0.379 N 
ATOM     11  C   UNL     1     -10.424  -0.048   0.042  0.00  0.00    -0.082 C 
ATOM     12  C   UNL     1      -9.642  -1.364   0.053  0.00  0.00    -0.010 C 
ATOM     13  H   UNL     1     -11.046  -0.274   1.970  0.00  0.00    -0.086 HD
ATOM     14  H   UNL     1     -11.157   1.271   1.413  0.00  0.00    -0.086 HD
ENDROOT
BRANCH   1  19
ATOM     15  C   UNL     1      -1.263  -0.863   0.564  0.00  0.00    +0.030 A 
ATOM     16  C   UNL     1      -1.176  -2.106  -0.052  0.00  0.00    +0.023 A 
ATOM     17  C   UNL     1      -2.294  -2.674  -0.634  0.00  0.00    +0.003 A 
ATOM     18  C   UNL     1      -3.504  -2.010  -0.607  0.00  0.00    +0.013 A 
ATOM     19  C   UNL     1      -3.602  -0.761   0.009  0.00  0.00    +0.039 A 
ATOM     20  C   UNL     1      -2.475  -0.191   0.601  0.00  0.00    +0.036 A 
BRANCH  15  22
ATOM     21  C   UNL     1      -0.223   1.014   1.806  0.00  0.00    +0.129 C 
ATOM     22  N   UNL     1      -0.130  -0.293   1.151  0.00  0.00    -0.336 N 
ATOM     23  C   UNL     1       1.151  -1.003   1.113  0.00  0.00    +0.129 C 
ENDBRANCH  15  22
ENDBRANCH   1  19
BRANCH   5  24
ATOM     24  C   UNL     1      -8.308  -3.584   0.190  0.00  0.00    +0.218 C 
ATOM     25  O   UNL     1      -8.213  -3.849  -0.990  0.00  0.00    -0.275 OA
ATOM     26  N   UNL     1      -9.138  -4.298   0.976  0.00  0.00    -0.311 N 
ATOM     27  H   UNL     1      -9.214  -4.087   1.919  0.00  0.00    +0.149 HD
BRANCH  26  28
ATOM     28  C   UNL     1      -9.926  -5.394   0.405  0.00  0.00    +0.139 C 
BRANCH  28  29
ATOM     29  C   UNL     1     -10.766  -6.025   1.485  0.00  0.00    -0.030 A 
ATOM     30  C   UNL     1     -10.257  -7.077   2.226  0.00  0.00    +0.006 A 
ATOM     31  C   UNL     1     -11.020  -7.659   3.217  0.00  0.00    +0.019 A 
ATOM     32  C   UNL     1     -12.309  -7.184   3.471  0.00  0.00    +0.052 A 
ATOM     33  C   UNL     1     -12.815  -6.122   2.720  0.00  0.00    +0.019 A 
ATOM     34  C   UNL     1     -12.039  -5.546   1.735  0.00  0.00    +0.006 A 
BRANCH  32  35
ATOM     35  C   UNL     1     -13.107  -7.784   4.498  0.00  0.00    +0.099 C 
ATOM     36  N   UNL     1     -13.740  -8.260   5.312  0.00  0.00    -0.191 NA
ENDBRANCH  32  35
ENDBRANCH  28  29
ENDBRANCH  26  28
ENDBRANCH   5  24
TORSDOF 6
