REMARK  Name = ZINC14473521
REMARK  5 active torsions:
REMARK  status: ('A' for Active; 'I' for Inactive)
REMARK    1  A    between atoms: C_1  and  C_2
REMARK    2  A    between atoms: C_2  and  C_3
REMARK    3  A    between atoms: N_5  and  C_6
REMARK    4  A    between atoms: C_19  and  C_22
REMARK    5  A    between atoms: C_24  and  N_29
REMARK                            x       y       z     vdW  Elec       q    Type
REMARK                         _______ _______ _______ _____ _____    ______ ____
ROOT
ATOM      1  C   UNL     1      -4.298   0.935   2.218  0.00  0.00    +0.034 A 
ATOM      2  C   UNL     1      -4.709   0.138   1.157  0.00  0.00    +0.025 A 
ATOM      3  C   UNL     1      -6.016  -0.297   1.085  0.00  0.00    +0.025 A 
ATOM      4  C   UNL     1      -6.933   0.064   2.065  0.00  0.00    +0.031 A 
ATOM      5  C   UNL     1      -6.519   0.881   3.123  0.00  0.00    -0.018 A 
ATOM      6  C   UNL     1      -5.211   1.307   3.195  0.00  0.00    +0.029 A 
ATOM      7  C   UNL     1      -7.535   1.264   4.128  0.00  0.00    +0.049 C 
ATOM      8  C   UNL     1      -7.165   1.608   5.525  0.00  0.00    -0.023 C 
ATOM      9  C   UNL     1      -8.164   1.257   6.326  0.00  0.00    -0.030 C 
ATOM     10  C   UNL     1      -9.285   0.609   5.511  0.00  0.00    +0.033 C 
ATOM     11  C   UNL     1      -8.512   0.064   4.302  0.00  0.00    +0.029 C 
ATOM     12  C   UNL     1      -9.265  -0.039   2.988  0.00  0.00    +0.106 C 
ATOM     13  N   UNL     1      -8.251  -0.407   1.976  0.00  0.00    -0.336 N 
ATOM     14  H   UNL     1      -8.502  -0.984   1.238  0.00  0.00    +0.147 HD
ENDROOT
BRANCH  12  15
ATOM     15  C   UNL     1     -10.324  -1.108   3.076  0.00  0.00    -0.007 A 
ATOM     16  C   UNL     1     -10.054  -2.387   2.627  0.00  0.00    +0.039 A 
ATOM     17  C   UNL     1     -11.023  -3.369   2.713  0.00  0.00    +0.127 A 
ATOM     18  C   UNL     1     -12.266  -3.071   3.240  0.00  0.00    +0.034 A 
ATOM     19  C   UNL     1     -12.539  -1.791   3.684  0.00  0.00    +0.022 A 
ATOM     20  C   UNL     1     -11.568  -0.808   3.603  0.00  0.00    +0.046 A 
ATOM     21 CL   UNL     1     -11.910   0.799   4.162  0.00  0.00    -0.083 Cl
BRANCH  17  22
ATOM     22  N   UNL     1     -10.731  -4.740   2.236  0.00  0.00    +0.056 N 
ATOM     23  O   UNL     1     -11.586  -5.604   2.308  0.00  0.00    -0.126 OA
ATOM     24  O   UNL     1      -9.636  -5.003   1.773  0.00  0.00    -0.126 OA
ENDBRANCH  17  22
ENDBRANCH  12  15
BRANCH   1  27
ATOM     25  C   UNL     1      -1.974   0.576   1.845  0.00  0.00    +0.217 C 
ATOM     26  O   UNL     1      -2.221  -0.546   1.456  0.00  0.00    -0.275 OA
ATOM     27  N   UNL     1      -2.967   1.366   2.298  0.00  0.00    -0.285 N 
ATOM     28  H   UNL     1      -2.761   2.234   2.680  0.00  0.00    +0.155 HD
BRANCH  25  30
ATOM     29  C   UNL     1       0.367   0.001   1.265  0.00  0.00    +0.013 C 
ATOM     30  C   UNL     1      -0.556   1.087   1.821  0.00  0.00    +0.093 C 
ENDBRANCH  25  30
ENDBRANCH   1  27
TORSDOF 4
