REMARK  Name = ZINC53364893
REMARK  10 active torsions:
REMARK  status: ('A' for Active; 'I' for Inactive)
REMARK    1  A    between atoms: C_1  and  C_2
REMARK    2  A    between atoms: C_2  and  O_3
REMARK    3  A    between atoms: O_3  and  C_4
REMARK    4  A    between atoms: C_9  and  C_10
REMARK    5  A    between atoms: C_13  and  C_25
REMARK    6  A    between atoms: C_16  and  C_18
REMARK    7  A    between atoms: C_29  and  O_32
REMARK    8  A    between atoms: C_30  and  O_31
REMARK    9  A    between atoms: O_32  and  C_33
REMARK   10  A    between atoms: C_33  and  C_34
REMARK                            x       y       z     vdW  Elec       q    Type
REMARK                         _______ _______ _______ _____ _____    ______ ____
ROOT
ATOM      1  C   UNL     1       2.055  -1.434   3.442  0.00  0.00    +0.207 C 
ATOM      2  N   UNL     1       3.144  -2.131   4.138  0.00  0.00    -0.284 NA
ATOM      3  C   UNL     1       3.872  -1.194   5.011  0.00  0.00    +0.095 C 
ATOM      4  C   UNL     1       4.605  -0.184   4.122  0.00  0.00    +0.079 C 
ATOM      5  C   UNL     1       3.663   0.337   3.073  0.00  0.00    +0.047 C 
ATOM      6  N   UNL     1       2.552  -0.230   2.787  0.00  0.00    -0.264 NA
ATOM      7  H   UNL     1       2.792  -2.916   4.665  0.00  0.00    +0.125 HD
ENDROOT
BRANCH   5   8
ATOM      8  C   UNL     1       4.037   1.561   2.337  0.00  0.00    -0.004 A 
ATOM      9  C   UNL     1       5.244   2.205   2.616  0.00  0.00    +0.011 A 
ATOM     10  C   UNL     1       5.587   3.348   1.925  0.00  0.00    +0.016 A 
ATOM     11  C   UNL     1       4.739   3.857   0.957  0.00  0.00    +0.018 A 
ATOM     12  C   UNL     1       3.540   3.223   0.676  0.00  0.00    +0.016 A 
ATOM     13  C   UNL     1       3.188   2.076   1.355  0.00  0.00    +0.011 A 
ATOM     14 BR   UNL     1       5.218   5.425   0.015  0.00  0.00    -0.050 Br
ENDBRANCH   5   8
BRANCH   1  20
ATOM     15  C   UNL     1       0.802  -1.824   1.306  0.00  0.00    +0.127 A 
ATOM     16  C   UNL     1       0.260  -2.673   0.351  0.00  0.00    +0.046 A 
ATOM     17  C   UNL     1       0.372  -4.041   0.501  0.00  0.00    +0.004 A 
ATOM     18  C   UNL     1       1.024  -4.566   1.602  0.00  0.00    +0.001 A 
ATOM     19  C   UNL     1       1.565  -3.723   2.555  0.00  0.00    +0.010 A 
ATOM     20  C   UNL     1       1.460  -2.353   2.406  0.00  0.00    +0.033 A 
BRANCH  15  21
ATOM     21  O   UNL     1       0.693  -0.477   1.160  0.00  0.00    -0.492 OA
BRANCH  21  23
ATOM     22  C   UNL     1      -0.019   1.526   0.010  0.00  0.00    +0.048 C 
ATOM     23  C   UNL     1       0.002  -0.004   0.002  0.00  0.00    +0.225 C 
ENDBRANCH  21  23
ENDBRANCH  15  21
ENDBRANCH   1  20
BRANCH   3  24
ATOM     24  C   UNL     1       4.868  -1.950   5.851  0.00  0.00    +0.015 A 
ATOM     25  C   UNL     1       5.367  -3.161   5.408  0.00  0.00    +0.009 A 
ATOM     26  C   UNL     1       6.281  -3.858   6.176  0.00  0.00    +0.004 A 
ATOM     27  C   UNL     1       6.700  -3.347   7.391  0.00  0.00    +0.049 A 
ATOM     28  C   UNL     1       6.204  -2.134   7.840  0.00  0.00    +0.162 A 
ATOM     29  C   UNL     1       5.288  -1.430   7.064  0.00  0.00    +0.163 A 
BRANCH  29  30
ATOM     30  O   UNL     1       4.802  -0.236   7.498  0.00  0.00    -0.503 OA
ATOM     31  H   UNL     1       3.999  -0.309   8.033  0.00  0.00    +0.292 HD
ENDBRANCH  29  30
BRANCH  28  32
ATOM     32  O   UNL     1       6.614  -1.630   9.035  0.00  0.00    -0.489 OA
BRANCH  32  33
ATOM     33  C   UNL     1       7.560  -2.405   9.775  0.00  0.00    +0.226 C 
ATOM     34  C   UNL     1       7.900  -1.683  11.081  0.00  0.00    +0.048 C 
ENDBRANCH  32  33
ENDBRANCH  28  32
ENDBRANCH   3  24
TORSDOF 8
