REMARK  Name = ZINC22061283
REMARK  9 active torsions:
REMARK  status: ('A' for Active; 'I' for Inactive)
REMARK    1  A    between atoms: C_1  and  C_2
REMARK    2  A    between atoms: C_4  and  O_37
REMARK    3  A    between atoms: C_14  and  C_20
REMARK    4  A    between atoms: C_16  and  C_18
REMARK    5  A    between atoms: C_16  and  C_19
REMARK    6  A    between atoms: C_20  and  C_22
REMARK    7  A    between atoms: C_22  and  O_23
REMARK    8  A    between atoms: C_25  and  O_35
REMARK    9  A    between atoms: C_33  and  C_34
REMARK                            x       y       z     vdW  Elec       q    Type
REMARK                         _______ _______ _______ _____ _____    ______ ____
ROOT
ATOM      1  C   UNL     1      -0.881   1.672  -0.127  0.00  0.00    +0.015 C 
ATOM      2  C   UNL     1      -1.071   0.154  -0.116  0.00  0.00    +0.012 C 
ATOM      3  C   UNL     1      -2.389  -0.194   0.550  0.00  0.00    +0.044 C 
ATOM      4  C   UNL     1      -2.386   0.465   1.938  0.00  0.00    +0.154 C 
ATOM      5  C   UNL     1      -1.196   0.006   2.776  0.00  0.00    +0.153 C 
ATOM      6  C   UNL     1       0.135   0.232   2.041  0.00  0.00    +0.036 C 
ATOM      7  C   UNL     1       0.056  -0.511   0.719  0.00  0.00    +0.007 C 
ATOM      8  C   UNL     1       1.266  -0.349  -0.206  0.00  0.00    +0.039 C 
ATOM      9  C   UNL     1       0.683  -0.677  -1.609  0.00  0.00    +0.162 C 
ATOM     10  C   UNL     1      -0.847  -0.405  -1.516  0.00  0.00    +0.164 C 
ATOM     11  O   UNL     1      -1.456  -1.704  -1.636  0.00  0.00    -0.332 OA
ATOM     12  C   UNL     1      -0.488  -2.495  -2.359  0.00  0.00    +0.166 C 
ATOM     13  O   UNL     1       0.799  -2.100  -1.815  0.00  0.00    -0.343 OA
ATOM     14  C   UNL     1      -0.547  -2.174  -3.853  0.00  0.00    +0.074 C 
ATOM     15  C   UNL     1      -0.734  -3.986  -2.122  0.00  0.00    +0.074 C 
ATOM     16  C   UNL     1       1.289  -0.303   2.890  0.00  0.00    +0.043 C 
ATOM     17  C   UNL     1       1.381   0.492   4.196  0.00  0.00    +0.142 C 
ATOM     18  C   UNL     1       0.030   0.427   4.883  0.00  0.00    -0.025 C 
ATOM     19  C   UNL     1      -0.028   0.046   6.151  0.00  0.00    +0.053 C 
ATOM     20  C   UNL     1      -1.322  -0.050   6.845  0.00  0.00    +0.179 C 
ATOM     21  O   UNL     1      -1.377  -0.362   8.020  0.00  0.00    -0.288 OA
ATOM     22  C   UNL     1      -2.550   0.241   6.085  0.00  0.00    +0.047 C 
ATOM     23  C   UNL     1      -2.467   0.625   4.821  0.00  0.00    -0.009 C 
ATOM     24  C   UNL     1      -1.175   0.784   4.095  0.00  0.00    +0.047 C 
ATOM     25  C   UNL     1      -1.049   2.271   3.758  0.00  0.00    +0.023 C 
ATOM     26  F   UNL     1      -1.324  -1.360   3.049  0.00  0.00    -0.238 F 
ENDROOT
BRANCH  10  27
ATOM     27  C   UNL     1      -1.314   0.553  -2.582  0.00  0.00    +0.193 C 
ATOM     28  O   UNL     1      -0.538   1.339  -3.069  0.00  0.00    -0.292 OA
BRANCH  27  29
ATOM     29  C   UNL     1      -2.750   0.529  -3.039  0.00  0.00    +0.233 C 
BRANCH  29  30
ATOM     30  O   UNL     1      -2.974   1.598  -3.960  0.00  0.00    -0.387 OA
ATOM     31  H   UNL     1      -3.880   1.644  -4.297  0.00  0.00    +0.210 HD
ENDBRANCH  29  30
ENDBRANCH  27  29
ENDBRANCH  10  27
BRANCH  17  32
ATOM     32  O   UNL     1       1.714   1.852   3.911  0.00  0.00    -0.387 OA
ATOM     33  H   UNL     1       1.788   2.412   4.696  0.00  0.00    +0.210 HD
ENDBRANCH  17  32
BRANCH   4  34
ATOM     34  O   UNL     1      -2.324   1.884   1.781  0.00  0.00    -0.389 OA
ATOM     35  H   UNL     1      -3.066   2.257   1.285  0.00  0.00    +0.210 HD
ENDBRANCH   4  34
TORSDOF 5
