REMARK  Name = ZINC21736506
REMARK  11 active torsions:
REMARK  status: ('A' for Active; 'I' for Inactive)
REMARK    1  A    between atoms: C_1  and  C_2
REMARK    2  A    between atoms: N_10  and  N_14
REMARK    3  A    between atoms: C_15  and  C_17
REMARK    4  A    between atoms: C_17  and  O_18
REMARK    5  A    between atoms: O_18  and  C_19
REMARK    6  A    between atoms: C_19  and  C_21
REMARK    7  A    between atoms: C_26  and  O_27
REMARK    8  A    between atoms: O_27  and  C_28
REMARK    9  A    between atoms: C_28  and  C_29
REMARK   10  A    between atoms: C_29  and  O_30
REMARK   11  A    between atoms: O_30  and  C_31
REMARK                            x       y       z     vdW  Elec       q    Type
REMARK                         _______ _______ _______ _____ _____    ______ ____
ROOT
ATOM      1  C   UNL     1      -2.521  -2.791   0.010  0.00  0.00    +0.329 C 
ENDROOT
BRANCH   1   3
ATOM      2  N   UNL     1      -3.353  -5.121   0.005  0.00  0.00    -0.221 N 
ATOM      3  C   UNL     1      -2.298  -4.282   0.000  0.00  0.00    +0.267 C 
ATOM      4  O   UNL     1      -1.170  -4.726  -0.013  0.00  0.00    -0.271 OA
ATOM      5  H   UNL     1      -4.376  -4.718   0.017  0.00  0.00    +0.174 HD
BRANCH   2  15
ATOM      6  C   UNL     1      -2.328 -12.974   0.513  0.00  0.00    +0.007 C 
ATOM      7  C   UNL     1      -2.667 -11.571   1.020  0.00  0.00    -0.014 C 
ATOM      8  C   UNL     1      -1.452 -10.658   0.846  0.00  0.00    +0.006 C 
ATOM      9  C   UNL     1      -1.788  -9.258   1.364  0.00  0.00    +0.035 C 
ATOM     10  C   UNL     1      -2.978  -8.700   0.592  0.00  0.00    +0.114 C 
ATOM     11  C   UNL     1      -4.191  -9.612   0.735  0.00  0.00    +0.035 C 
ATOM     12  C   UNL     1      -3.845 -11.011   0.219  0.00  0.00    +0.006 C 
ATOM     13  C   UNL     1      -3.309  -7.305   1.071  0.00  0.00    +0.263 C 
ATOM     14  O   UNL     1      -3.649  -6.973   2.186  0.00  0.00    -0.271 OA
ATOM     15  N   UNL     1      -3.146  -6.506  -0.004  0.00  0.00    -0.137 N 
ATOM     16  C   UNL     1      -2.766  -7.203  -1.082  0.00  0.00    +0.326 C 
ATOM     17  O   UNL     1      -2.561  -6.704  -2.171  0.00  0.00    -0.251 OA
ATOM     18  N   UNL     1      -2.635  -8.518  -0.824  0.00  0.00    -0.284 N 
ATOM     19  H   UNL     1      -2.343  -9.385  -1.435  0.00  0.00    +0.151 HD
ENDBRANCH   2  15
ENDBRANCH   1   3
BRANCH   1  20
ATOM     20  O   UNL     1      -1.239  -2.110   0.002  0.00  0.00    -0.452 OA
BRANCH  20  21
ATOM     21  C   UNL     1      -1.262  -0.763   0.009  0.00  0.00    +0.343 C 
ATOM     22  O   UNL     1      -2.324  -0.173   0.022  0.00  0.00    -0.245 OA
BRANCH  21  23
ATOM     23  C   UNL     1       0.002  -0.004   0.002  0.00  0.00    +0.101 A 
ATOM     24  C   UNL     1       1.226  -0.678  -0.013  0.00  0.00    +0.018 A 
ATOM     25  C   UNL     1       2.404   0.037  -0.021  0.00  0.00    +0.001 A 
ATOM     26  C   UNL     1       2.381   1.423  -0.013  0.00  0.00    +0.004 A 
ATOM     27  C   UNL     1       1.179   2.101   0.002  0.00  0.00    +0.046 A 
ATOM     28  C   UNL     1      -0.017   1.398   0.010  0.00  0.00    +0.135 A 
BRANCH  28  29
ATOM     29  O   UNL     1      -1.199   2.063   0.019  0.00  0.00    -0.488 OA
BRANCH  29  30
ATOM     30  C   UNL     1      -1.140   3.491   0.026  0.00  0.00    +0.270 C 
BRANCH  30  31
ATOM     31  C   UNL     1      -2.560   4.060   0.036  0.00  0.00    +0.270 C 
BRANCH  31  32
ATOM     32  O   UNL     1      -3.208   3.702   1.258  0.00  0.00    -0.489 OA
BRANCH  32  33
ATOM     33  C   UNL     1      -4.486   4.133   1.428  0.00  0.00    +0.121 A 
ATOM     34  C   UNL     1      -5.101   4.889   0.441  0.00  0.00    +0.045 A 
ATOM     35  C   UNL     1      -6.402   5.321   0.614  0.00  0.00    +0.004 A 
ATOM     36  C   UNL     1      -7.087   5.009   1.774  0.00  0.00    +0.000 A 
ATOM     37  C   UNL     1      -6.474   4.261   2.761  0.00  0.00    +0.004 A 
ATOM     38  C   UNL     1      -5.175   3.822   2.591  0.00  0.00    +0.045 A 
ENDBRANCH  32  33
ENDBRANCH  31  32
ENDBRANCH  30  31
ENDBRANCH  29  30
ENDBRANCH  28  29
ENDBRANCH  21  23
ENDBRANCH  20  21
ENDBRANCH   1  20
TORSDOF 10
