REMARK  Name = ZINC23231873
REMARK  12 active torsions:
REMARK  status: ('A' for Active; 'I' for Inactive)
REMARK    1  A    between atoms: C_1  and  C_2
REMARK    2  A    between atoms: C_2  and  N_3
REMARK    3  A    between atoms: C_6  and  C_8
REMARK    4  A    between atoms: C_17  and  N_21
REMARK    5  A    between atoms: N_21  and  C_22
REMARK    6  A    between atoms: N_21  and  C_23
REMARK    7  A    between atoms: C_23  and  C_24
REMARK    8  A    between atoms: C_24  and  N_25
REMARK    9  A    between atoms: N_25  and  C_26
REMARK   10  A    between atoms: N_25  and  C_28
REMARK   11  A    between atoms: C_26  and  C_27
REMARK   12  A    between atoms: C_28  and  C_29
REMARK                            x       y       z     vdW  Elec       q    Type
REMARK                         _______ _______ _______ _____ _____    ______ ____
ROOT
ATOM      1  N   UNL     1       0.256  -1.508  -0.687  0.00  0.00    -0.268 N 
ATOM      2  C   UNL     1      -0.318  -1.542  -1.901  0.00  0.00    +0.043 A 
ATOM      3  C   UNL     1       0.635  -1.930  -2.785  0.00  0.00    +0.007 A 
ATOM      4  C   UNL     1       1.804  -2.126  -2.031  0.00  0.00    +0.151 A 
ATOM      5  N   UNL     1       1.497  -1.846  -0.776  0.00  0.00    -0.166 NA
ATOM      6  C   UNL     1       0.413  -2.093  -4.263  0.00  0.00    +0.058 C 
ATOM      7  C   UNL     1      -0.891  -1.376  -4.637  0.00  0.00    +0.061 C 
ATOM      8  C   UNL     1      -2.005  -1.809  -3.679  0.00  0.00    +0.025 C 
ATOM      9  C   UNL     1      -1.741  -1.228  -2.284  0.00  0.00    +0.057 C 
ENDROOT
BRANCH   4  10
ATOM     10  C   UNL     1       3.122  -2.556  -2.541  0.00  0.00    +0.267 C 
ATOM     11  O   UNL     1       3.247  -2.873  -3.708  0.00  0.00    -0.268 OA
ATOM     12  N   UNL     1       4.184  -2.597  -1.714  0.00  0.00    -0.295 N 
ATOM     13  C   UNL     1       4.001  -2.322  -0.288  0.00  0.00    +0.119 C 
ATOM     14  C   UNL     1       4.296  -3.591   0.520  0.00  0.00    +0.088 C 
ATOM     15  S   UNL     1       5.984  -4.145   0.137  0.00  0.00    -0.158 S 
ATOM     16  C   UNL     1       5.981  -4.258  -1.678  0.00  0.00    +0.088 C 
ATOM     17  C   UNL     1       5.507  -2.923  -2.250  0.00  0.00    +0.119 C 
ENDBRANCH   4  10
BRANCH   1  19
ATOM     18  C   UNL     1      -0.302   0.375   0.770  0.00  0.00    +0.029 C 
ATOM     19  C   UNL     1      -0.426  -1.135   0.554  0.00  0.00    +0.140 C 
ENDBRANCH   1  19
BRANCH   7  20
ATOM     20  N   UNL     1      -1.266  -1.727  -6.013  0.00  0.00    -0.304 NA
ATOM     21  C   UNL     1      -1.607  -3.152  -6.119  0.00  0.00    +0.105 C 
BRANCH  20  22
ATOM     22  C   UNL     1      -2.371  -0.884  -6.489  0.00  0.00    +0.066 C 
BRANCH  22  23
ATOM     23  C   UNL     1      -2.567  -1.101  -7.991  0.00  0.00    -0.063 C 
BRANCH  23  24
ATOM     24  N   UNL     1      -3.601  -0.183  -8.487  0.00  0.00    +0.380 N 
ATOM     25  H   UNL     1      -4.446  -0.306  -7.950  0.00  0.00    -0.082 HD
BRANCH  24  26
ATOM     26  C   UNL     1      -3.131   1.203  -8.351  0.00  0.00    -0.082 C 
ATOM     27  C   UNL     1      -4.254   2.163  -8.751  0.00  0.00    -0.017 C 
ENDBRANCH  24  26
BRANCH  24  28
ATOM     28  C   UNL     1      -3.873  -0.471  -9.902  0.00  0.00    -0.082 C 
ATOM     29  C   UNL     1      -4.483  -1.868 -10.029  0.00  0.00    -0.017 C 
ENDBRANCH  24  28
ENDBRANCH  23  24
ENDBRANCH  22  23
ENDBRANCH  20  22
ENDBRANCH   7  20
TORSDOF 8
