REMARK  Name = ZINC20193166
REMARK  11 active torsions:
REMARK  status: ('A' for Active; 'I' for Inactive)
REMARK    1  A    between atoms: C_1  and  C_2
REMARK    2  A    between atoms: C_2  and  C_3
REMARK    3  A    between atoms: C_2  and  C_4
REMARK    4  A    between atoms: C_7  and  C_10
REMARK    5  A    between atoms: C_12  and  C_23
REMARK    6  A    between atoms: N_16  and  C_17
REMARK    7  A    between atoms: C_17  and  C_18
REMARK    8  A    between atoms: C_18  and  N_19
REMARK    9  A    between atoms: N_19  and  C_20
REMARK   10  A    between atoms: N_19  and  C_21
REMARK   11  A    between atoms: C_23  and  C_25
REMARK                            x       y       z     vdW  Elec       q    Type
REMARK                         _______ _______ _______ _____ _____    ______ ____
ROOT
ATOM      1  C   UNL     1      -1.278   3.517   0.171  0.00  0.00    +0.145 C 
ATOM      2  C   UNL     1      -1.506   2.027   0.066  0.00  0.00    +0.076 C 
ATOM      3  C   UNL     1      -2.822   1.816   0.303  0.00  0.00    +0.249 C 
ATOM      4  C   UNL     1      -3.481   3.111   0.573  0.00  0.00    +0.288 C 
ATOM      5  O   UNL     1      -4.661   3.254   0.825  0.00  0.00    -0.266 OA
ATOM      6  N   UNL     1      -2.582   4.109   0.493  0.00  0.00    -0.285 N 
ATOM      7  O   UNL     1      -3.436   0.610   0.297  0.00  0.00    -0.282 OA
ENDROOT
BRANCH   1  11
ATOM      8  C   UNL     1       0.157   5.048  -3.549  0.00  0.00    -0.045 A 
ATOM      9  C   UNL     1       1.004   4.974  -2.459  0.00  0.00    +0.004 A 
ATOM     10  C   UNL     1       0.539   4.479  -1.255  0.00  0.00    +0.006 A 
ATOM     11  C   UNL     1      -0.772   4.057  -1.141  0.00  0.00    -0.022 A 
ATOM     12  C   UNL     1      -1.618   4.126  -2.232  0.00  0.00    +0.006 A 
ATOM     13  C   UNL     1      -1.155   4.626  -3.435  0.00  0.00    +0.004 A 
BRANCH   8  15
ATOM     14  C   UNL     1       0.524   4.513  -5.943  0.00  0.00    +0.012 C 
ATOM     15  C   UNL     1       0.663   5.588  -4.862  0.00  0.00    +0.013 C 
ATOM     16  C   UNL     1      -0.156   6.818  -5.258  0.00  0.00    +0.012 C 
ENDBRANCH   8  15
ENDBRANCH   1  11
BRANCH   2  17
ATOM     17  C   UNL     1      -0.498   1.007  -0.240  0.00  0.00    +0.195 C 
ATOM     18  O   UNL     1      -0.566   0.377  -1.279  0.00  0.00    -0.287 OA
BRANCH  17  19
ATOM     19  C   UNL     1       0.602   0.748   0.710  0.00  0.00    +0.026 A 
ATOM     20  C   UNL     1       0.718   1.514   1.874  0.00  0.00    +0.015 A 
ATOM     21  C   UNL     1       1.744   1.271   2.759  0.00  0.00    +0.050 A 
ATOM     22  C   UNL     1       2.667   0.266   2.500  0.00  0.00    +0.166 A 
ATOM     23  C   UNL     1       2.557  -0.503   1.340  0.00  0.00    +0.167 A 
ATOM     24  C   UNL     1       1.527  -0.267   0.451  0.00  0.00    +0.061 A 
ATOM     25  O   UNL     1       3.575  -1.412   1.322  0.00  0.00    -0.453 OA
ATOM     26  C   UNL     1       4.066  -1.465   2.674  0.00  0.00    +0.466 C 
ATOM     27  O   UNL     1       3.753  -0.164   3.204  0.00  0.00    -0.453 OA
ENDBRANCH  17  19
ENDBRANCH   2  17
BRANCH   6  28
ATOM     28  C   UNL     1      -2.856   5.534   0.693  0.00  0.00    +0.090 C 
BRANCH  28  29
ATOM     29  C   UNL     1      -3.234   6.173  -0.645  0.00  0.00    -0.060 C 
BRANCH  29  30
ATOM     30  N   UNL     1      -3.509   7.602  -0.445  0.00  0.00    +0.377 N 
ATOM     31  C   UNL     1      -3.643   8.297  -1.732  0.00  0.00    -0.097 C 
ATOM     32  C   UNL     1      -4.704   7.797   0.386  0.00  0.00    -0.097 C 
ATOM     33  H   UNL     1      -2.652   8.039   0.088  0.00  0.00    -0.083 HD
ENDBRANCH  29  30
ENDBRANCH  28  29
ENDBRANCH   6  28
TORSDOF 7
