REMARK  Name = ZINC35934483
REMARK  15 active torsions:
REMARK  status: ('A' for Active; 'I' for Inactive)
REMARK    1  A    between atoms: C_1  and  C_2
REMARK    2  A    between atoms: C_2  and  C_3
REMARK    3  A    between atoms: C_2  and  C_4
REMARK    4  A    between atoms: C_2  and  C_5
REMARK    5  A    between atoms: C_8  and  C_11
REMARK    6  A    between atoms: N_16  and  C_19
REMARK    7  A    between atoms: C_19  and  C_20
REMARK    8  A    between atoms: N_22  and  C_23
REMARK    9  A    between atoms: N_22  and  C_28
REMARK   10  A    between atoms: C_23  and  C_24
REMARK   11  A    between atoms: C_24  and  N_25
REMARK   12  A    between atoms: N_25  and  C_26
REMARK   13  A    between atoms: N_25  and  C_27
REMARK   14  A    between atoms: C_28  and  C_29
REMARK   15  A    between atoms: N_35  and  C_39
REMARK                            x       y       z     vdW  Elec       q    Type
REMARK                         _______ _______ _______ _____ _____    ______ ____
ROOT
ATOM      1  C   UNL     1       2.707  -1.868  -4.752  0.00  0.00    +0.142 C 
ATOM      2  C   UNL     1       3.490  -3.113  -4.386  0.00  0.00    +0.058 C 
ATOM      3  C   UNL     1       4.822  -3.100  -4.596  0.00  0.00    +0.042 C 
ATOM      4  C   UNL     1       5.337  -4.449  -4.147  0.00  0.00    +0.160 C 
ATOM      5  N   UNL     1       4.145  -5.172  -3.679  0.00  0.00    -0.283 N 
ATOM      6  C   UNL     1       3.092  -4.350  -3.839  0.00  0.00    +0.247 C 
ATOM      7  O   UNL     1       1.945  -4.636  -3.549  0.00  0.00    -0.270 OA
ATOM      8  N   UNL     1       5.445  -2.005  -5.123  0.00  0.00    -0.260 N 
ATOM      9  C   UNL     1       4.803  -0.880  -5.465  0.00  0.00    +0.307 C 
ATOM     10  O   UNL     1       5.442   0.045  -5.927  0.00  0.00    -0.252 OA
ATOM     11  N   UNL     1       3.472  -0.741  -5.312  0.00  0.00    -0.288 N 
ATOM     12  C   UNL     1       6.895  -2.063  -5.324  0.00  0.00    +0.139 C 
ATOM     13  H   UNL     1       3.027   0.083  -5.566  0.00  0.00    +0.151 HD
ENDROOT
BRANCH   1  17
ATOM     14  C   UNL     1       0.707  -0.490  -1.238  0.00  0.00    -0.042 A 
ATOM     15  C   UNL     1       0.036  -1.284  -2.148  0.00  0.00    +0.004 A 
ATOM     16  C   UNL     1       0.683  -1.730  -3.286  0.00  0.00    +0.006 A 
ATOM     17  C   UNL     1       2.001  -1.381  -3.513  0.00  0.00    -0.023 A 
ATOM     18  C   UNL     1       2.672  -0.586  -2.603  0.00  0.00    +0.006 A 
ATOM     19  C   UNL     1       2.024  -0.137  -1.467  0.00  0.00    +0.004 A 
BRANCH  14  21
ATOM     20  C   UNL     1      -0.019   1.526   0.010  0.00  0.00    +0.015 C 
ATOM     21  C   UNL     1       0.002  -0.004   0.002  0.00  0.00    -0.013 C 
ATOM     22  C   UNL     1       0.742  -0.511   1.242  0.00  0.00    +0.015 C 
ATOM     23  C   UNL     1      -1.433  -0.534   0.013  0.00  0.00    +0.015 C 
ENDBRANCH  14  21
ENDBRANCH   1  17
BRANCH   5  24
ATOM     24  C   UNL     1       4.110  -6.533  -3.140  0.00  0.00    +0.204 C 
BRANCH  24  25
ATOM     25  C   UNL     1       4.301  -6.487  -1.645  0.00  0.00    +0.233 C 
ATOM     26  O   UNL     1       4.451  -5.421  -1.086  0.00  0.00    -0.274 OA
ATOM     27  N   UNL     1       4.304  -7.629  -0.931  0.00  0.00    -0.298 N 
BRANCH  27  28
ATOM     28  C   UNL     1       4.123  -8.917  -1.606  0.00  0.00    +0.089 C 
BRANCH  28  29
ATOM     29  C   UNL     1       5.487  -9.472  -2.020  0.00  0.00    -0.060 C 
BRANCH  29  30
ATOM     30  N   UNL     1       5.306 -10.763  -2.697  0.00  0.00    +0.377 N 
ATOM     31  C   UNL     1       4.572 -10.558  -3.953  0.00  0.00    -0.097 C 
ATOM     32  C   UNL     1       6.619 -11.352  -2.988  0.00  0.00    -0.097 C 
ATOM     33  H   UNL     1       4.782 -11.385  -2.100  0.00  0.00    -0.083 HD
ENDBRANCH  29  30
ENDBRANCH  28  29
ENDBRANCH  27  28
BRANCH  27  34
ATOM     34  C   UNL     1       4.490  -7.584   0.522  0.00  0.00    +0.142 C 
BRANCH  34  35
ATOM     35  C   UNL     1       3.147  -7.463   1.196  0.00  0.00    -0.030 A 
ATOM     36  C   UNL     1       2.613  -6.214   1.452  0.00  0.00    +0.005 A 
ATOM     37  C   UNL     1       1.381  -6.103   2.071  0.00  0.00    +0.000 A 
ATOM     38  C   UNL     1       0.684  -7.240   2.432  0.00  0.00    +0.000 A 
ATOM     39  C   UNL     1       1.219  -8.489   2.175  0.00  0.00    +0.000 A 
ATOM     40  C   UNL     1       2.448  -8.601   1.553  0.00  0.00    +0.005 A 
ENDBRANCH  34  35
ENDBRANCH  27  34
ENDBRANCH  24  25
ENDBRANCH   5  24
TORSDOF 9
