REMARK  Name = ZINC40315226
REMARK  15 active torsions:
REMARK  status: ('A' for Active; 'I' for Inactive)
REMARK    1  A    between atoms: C_1  and  C_2
REMARK    2  A    between atoms: C_6  and  O_9
REMARK    3  A    between atoms: C_7  and  C_8
REMARK    4  A    between atoms: O_9  and  C_10
REMARK    5  A    between atoms: C_10  and  C_11
REMARK    6  A    between atoms: C_11  and  C_13
REMARK    7  A    between atoms: C_11  and  O_34
REMARK    8  A    between atoms: C_13  and  N_14
REMARK    9  A    between atoms: N_14  and  C_15
REMARK   10  A    between atoms: N_14  and  C_26
REMARK   11  A    between atoms: C_15  and  C_16
REMARK   12  A    between atoms: C_19  and  C_22
REMARK   13  A    between atoms: C_22  and  C_23
REMARK   14  A    between atoms: C_22  and  C_24
REMARK   15  A    between atoms: C_22  and  C_25
REMARK                            x       y       z     vdW  Elec       q    Type
REMARK                         _______ _______ _______ _____ _____    ______ ____
ROOT
ATOM      1  N   UNL     1       0.575  -6.789   4.959  0.00  0.00    +0.387 N 
ATOM      2  H   UNL     1       1.437  -6.561   5.432  0.00  0.00    -0.081 HD
ENDROOT
BRANCH   1   3
ATOM      3  C   UNL     1      -0.562  -6.322   5.763  0.00  0.00    -0.045 C 
ATOM      4  C   UNL     1      -0.293  -6.596   7.252  0.00  0.00    +0.009 C 
ATOM      5  C   UNL     1      -1.596  -6.409   8.067  0.00  0.00    +0.164 C 
ATOM      6  S   UNL     1      -2.903  -6.806   6.836  0.00  0.00    -0.033 S 
ATOM      7  O   UNL     1      -3.699  -5.650   6.618  0.00  0.00    -0.174 OA
ATOM      8  O   UNL     1      -3.529  -8.027   7.204  0.00  0.00    -0.174 OA
ATOM      9  C   UNL     1      -1.848  -7.096   5.353  0.00  0.00    +0.151 C 
ENDBRANCH   1   3
BRANCH   1  10
ATOM     10  C   UNL     1       0.549  -6.131   3.646  0.00  0.00    -0.043 C 
BRANCH  10  11
ATOM     11  C   UNL     1       0.935  -4.659   3.804  0.00  0.00    +0.135 C 
BRANCH  11  12
ATOM     12  O   UNL     1      -0.102  -3.967   4.502  0.00  0.00    -0.390 OA
ATOM     13  H   UNL     1      -0.974  -4.050   4.093  0.00  0.00    +0.210 HD
ENDBRANCH  11  12
BRANCH  11  14
ATOM     14  C   UNL     1       1.128  -4.031   2.423  0.00  0.00    +0.258 C 
BRANCH  14  15
ATOM     15  O   UNL     1       1.601  -2.691   2.571  0.00  0.00    -0.489 OA
BRANCH  15  21
ATOM     16  C   UNL     1       3.011   1.455   0.416  0.00  0.00    +0.044 C 
ATOM     17  C   UNL     1       2.512   0.035   0.341  0.00  0.00    -0.044 A 
ATOM     18  C   UNL     1       2.281  -0.551  -0.890  0.00  0.00    +0.004 A 
ATOM     19  C   UNL     1       1.824  -1.854  -0.963  0.00  0.00    +0.004 A 
ATOM     20  C   UNL     1       1.595  -2.572   0.195  0.00  0.00    +0.046 A 
ATOM     21  C   UNL     1       1.825  -1.986   1.431  0.00  0.00    +0.124 A 
ATOM     22  C   UNL     1       2.291  -0.681   1.501  0.00  0.00    -0.006 A 
ATOM     23  C   UNL     1       2.549  -0.043   2.841  0.00  0.00    +0.048 C 
ENDBRANCH  15  21
ENDBRANCH  14  15
ENDBRANCH  11  14
ENDBRANCH  10  11
ENDBRANCH   1  10
BRANCH   1  24
ATOM     24  C   UNL     1       0.484  -8.244   4.781  0.00  0.00    -0.042 C 
BRANCH  24  25
ATOM     25  C   UNL     1       0.683  -8.927   6.109  0.00  0.00    -0.064 A 
ATOM     26  C   UNL     1       1.942  -8.981   6.677  0.00  0.00    +0.002 A 
ATOM     27  C   UNL     1       2.124  -9.607   7.896  0.00  0.00    +0.004 A 
ATOM     28  C   UNL     1       1.047 -10.179   8.547  0.00  0.00    -0.042 A 
ATOM     29  C   UNL     1      -0.212 -10.124   7.979  0.00  0.00    +0.004 A 
ATOM     30  C   UNL     1      -0.395  -9.494   6.763  0.00  0.00    +0.002 A 
BRANCH  28  31
ATOM     31  C   UNL     1       1.246 -10.863   9.875  0.00  0.00    -0.013 C 
ATOM     32  C   UNL     1       1.799  -9.858  10.888  0.00  0.00    +0.015 C 
ATOM     33  C   UNL     1      -0.095 -11.405  10.375  0.00  0.00    +0.015 C 
ATOM     34  C   UNL     1       2.235 -12.019   9.711  0.00  0.00    +0.015 C 
ENDBRANCH  28  31
ENDBRANCH  24  25
ENDBRANCH   1  24
TORSDOF 10
