REMARK  Name = ZINC45537804
REMARK  17 active torsions:
REMARK  status: ('A' for Active; 'I' for Inactive)
REMARK    1  A    between atoms: C_1  and  C_2
REMARK    2  A    between atoms: C_2  and  N_3
REMARK    3  A    between atoms: N_3  and  C_4
REMARK    4  A    between atoms: N_3  and  C_6
REMARK    5  A    between atoms: C_4  and  C_5
REMARK    6  A    between atoms: C_6  and  C_8
REMARK    7  A    between atoms: C_6  and  C_12
REMARK    8  A    between atoms: C_8  and  C_9
REMARK    9  A    between atoms: C_9  and  C_10
REMARK   10  A    between atoms: C_9  and  C_11
REMARK   11  A    between atoms: C_12  and  N_13
REMARK   12  A    between atoms: C_19  and  N_22
REMARK   13  A    between atoms: C_23  and  O_25
REMARK   14  A    between atoms: O_25  and  C_26
REMARK   15  A    between atoms: C_26  and  C_27
REMARK   16  A    between atoms: C_26  and  C_28
REMARK   17  A    between atoms: C_26  and  C_29
REMARK                            x       y       z     vdW  Elec       q    Type
REMARK                         _______ _______ _______ _____ _____    ______ ____
ROOT
ATOM      1  N   UNL     1       2.422  -2.544   2.217  0.00  0.00    -0.301 N 
ATOM      2  C   UNL     1       2.696  -3.385   3.234  0.00  0.00    +0.302 C 
ATOM      3  O   UNL     1       3.283  -2.978   4.218  0.00  0.00    -0.253 OA
ATOM      4  N   UNL     1       2.320  -4.677   3.160  0.00  0.00    -0.286 N 
ATOM      5  C   UNL     1       1.520  -5.160   2.026  0.00  0.00    +0.111 C 
ATOM      6  C   UNL     1       2.230  -6.365   1.401  0.00  0.00    +0.041 C 
ATOM      7  C   UNL     1       2.488  -7.418   2.482  0.00  0.00    +0.079 C 
ATOM      8  C   UNL     1       3.398  -6.829   3.562  0.00  0.00    +0.041 C 
ATOM      9  C   UNL     1       2.707  -5.630   4.209  0.00  0.00    +0.111 C 
ATOM     10  H   UNL     1       1.889  -2.849   1.466  0.00  0.00    +0.150 HD
ENDROOT
BRANCH   7  11
ATOM     11  N   UNL     1       3.137  -8.585   1.880  0.00  0.00    -0.278 N 
ATOM     12  C   UNL     1       3.017  -9.796   2.461  0.00  0.00    +0.401 C 
ATOM     13  O   UNL     1       2.371  -9.919   3.482  0.00  0.00    -0.226 OA
ATOM     14  H   UNL     1       3.653  -8.488   1.065  0.00  0.00    +0.152 HD
BRANCH  12  15
ATOM     15  O   UNL     1       3.614 -10.869   1.908  0.00  0.00    -0.445 OA
BRANCH  15  16
ATOM     16  C   UNL     1       3.445 -12.121   2.576  0.00  0.00    +0.107 C 
ATOM     17  C   UNL     1       1.956 -12.467   2.643  0.00  0.00    +0.055 C 
ATOM     18  C   UNL     1       4.188 -13.215   1.807  0.00  0.00    +0.055 C 
ATOM     19  C   UNL     1       4.009 -12.022   3.995  0.00  0.00    +0.055 C 
ENDBRANCH  15  16
ENDBRANCH  12  15
ENDBRANCH   7  11
BRANCH   1  20
ATOM     20  C   UNL     1       2.928  -1.170   2.246  0.00  0.00    +0.090 C 
BRANCH  20  21
ATOM     21  C   UNL     1       2.375  -0.397   1.047  0.00  0.00    -0.051 C 
BRANCH  21  22
ATOM     22  N   UNL     1       0.910  -0.506   1.028  0.00  0.00    +0.382 N 
ATOM     23  H   UNL     1       0.646  -1.478   0.966  0.00  0.00    -0.081 HD
BRANCH  22  25
ATOM     24  C   UNL     1       0.214  -1.022   3.319  0.00  0.00    -0.017 C 
ATOM     25  C   UNL     1       0.359   0.074   2.260  0.00  0.00    -0.082 C 
ENDBRANCH  22  25
BRANCH  22  26
ATOM     26  C   UNL     1       0.380   0.220  -0.134  0.00  0.00    -0.082 C 
ATOM     27  C   UNL     1       0.860  -0.455  -1.420  0.00  0.00    -0.017 C 
ENDBRANCH  22  26
ENDBRANCH  21  22
BRANCH  21  28
ATOM     28  C   UNL     1       2.775   1.076   1.161  0.00  0.00    -0.011 C 
BRANCH  28  29
ATOM     29  C   UNL     1       4.296   1.200   1.056  0.00  0.00    -0.019 C 
ATOM     30  C   UNL     1       4.750   0.754  -0.335  0.00  0.00    +0.007 C 
ATOM     31  C   UNL     1       4.705   2.657   1.283  0.00  0.00    +0.007 C 
ENDBRANCH  28  29
ENDBRANCH  21  28
ENDBRANCH  20  21
ENDBRANCH   1  20
TORSDOF 10
