REMARK  Name = ZINC13574094
REMARK  8 active torsions:
REMARK  status: ('A' for Active; 'I' for Inactive)
REMARK    1  A    between atoms: C_4  and  C_7
REMARK    2  A    between atoms: C_7  and  O_8
REMARK    3  A    between atoms: O_8  and  C_9
REMARK    4  A    between atoms: N_11  and  C_12
REMARK    5  A    between atoms: C_12  and  C_14
REMARK    6  A    between atoms: C_12  and  C_25
REMARK    7  A    between atoms: C_14  and  C_15
REMARK    8  A    between atoms: C_30  and  C_33
REMARK                            x       y       z     vdW  Elec       q    Type
REMARK                         _______ _______ _______ _____ _____    ______ ____
ROOT
ATOM      1  C   UNL     1      -1.135  -2.201   0.001  0.00  0.00    +0.167 C 
ENDROOT
BRANCH   1   2
ATOM      2  C   UNL     1      -1.156  -0.694   0.009  0.00  0.00    +0.239 C 
ATOM      3  O   UNL     1      -2.214  -0.102   0.023  0.00  0.00    -0.273 OA
ATOM      4  N   UNL     1       0.002  -0.004   0.002  0.00  0.00    -0.263 N 
ATOM      5  C   UNL     1      -0.017   1.385   0.010  0.00  0.00    +0.165 A 
ATOM      6  N   UNL     1       0.994   2.234   0.005  0.00  0.00    -0.225 NA
ATOM      7  C   UNL     1       0.792   3.543   0.013  0.00  0.00    +0.080 A 
ATOM      8  C   UNL     1      -0.487   4.025   0.028  0.00  0.00    +0.076 A 
ATOM      9  S   UNL     1      -1.416   2.497   0.021  0.00  0.00    -0.060 S 
ATOM     10  H   UNL     1       0.849  -0.478  -0.009  0.00  0.00    +0.157 HD
BRANCH   7  11
ATOM     11  C   UNL     1       1.944   4.478   0.008  0.00  0.00    +0.001 A 
ATOM     12  C   UNL     1       1.728   5.855   0.012  0.00  0.00    +0.010 A 
ATOM     13  C   UNL     1       2.803   6.720   0.012  0.00  0.00    +0.001 A 
ATOM     14  C   UNL     1       4.094   6.223  -0.004  0.00  0.00    +0.000 A 
ATOM     15  C   UNL     1       4.315   4.857  -0.013  0.00  0.00    +0.001 A 
ATOM     16  C   UNL     1       3.247   3.983  -0.007  0.00  0.00    +0.010 A 
ENDBRANCH   7  11
ENDBRANCH   1   2
BRANCH   1  19
ATOM     17  C   UNL     1      -2.771  -3.936   0.501  0.00  0.00    +0.401 C 
ATOM     18  O   UNL     1      -1.867  -4.623   0.933  0.00  0.00    -0.226 OA
ATOM     19  N   UNL     1      -2.510  -2.708   0.011  0.00  0.00    -0.269 N 
ATOM     20  H   UNL     1      -3.232  -2.159  -0.334  0.00  0.00    +0.153 HD
BRANCH  17  21
ATOM     21  O   UNL     1      -4.034  -4.402   0.510  0.00  0.00    -0.446 OA
BRANCH  21  22
ATOM     22  C   UNL     1      -4.242  -5.733   1.052  0.00  0.00    +0.269 C 
BRANCH  22  26
ATOM     23  C   UNL     1      -8.392  -6.722   0.850  0.00  0.00    +0.000 A 
ATOM     24  C   UNL     1      -7.556  -7.031  -0.207  0.00  0.00    +0.000 A 
ATOM     25  C   UNL     1      -6.213  -6.711  -0.141  0.00  0.00    +0.007 A 
ATOM     26  C   UNL     1      -5.706  -6.082   0.981  0.00  0.00    -0.010 A 
ATOM     27  C   UNL     1      -6.541  -5.778   2.039  0.00  0.00    +0.007 A 
ATOM     28  C   UNL     1      -7.886  -6.094   1.972  0.00  0.00    +0.000 A 
ENDBRANCH  22  26
ENDBRANCH  21  22
ENDBRANCH  17  21
ENDBRANCH   1  19
BRANCH   1  29
ATOM     29  C   UNL     1      -0.419  -2.694  -1.258  0.00  0.00    +0.069 C 
BRANCH  29  30
ATOM     30  C   UNL     1      -0.290  -4.195  -1.207  0.00  0.00    -0.020 A 
ATOM     31  C   UNL     1       0.771  -4.890  -0.768  0.00  0.00    +0.087 A 
ATOM     32  N   UNL     1       0.523  -6.232  -0.870  0.00  0.00    -0.360 N 
ATOM     33  H   UNL     1       1.142  -6.934  -0.613  0.00  0.00    +0.165 HD
ATOM     34  C   UNL     1      -0.732  -6.438  -1.398  0.00  0.00    +0.047 A 
ATOM     35  C   UNL     1      -1.296  -5.171  -1.632  0.00  0.00    +0.003 A 
ATOM     36  C   UNL     1      -2.580  -5.069  -2.170  0.00  0.00    +0.010 A 
ATOM     37  C   UNL     1      -3.283  -6.202  -2.468  0.00  0.00    +0.001 A 
ATOM     38  C   UNL     1      -2.730  -7.455  -2.239  0.00  0.00    +0.002 A 
ATOM     39  C   UNL     1      -1.465  -7.578  -1.709  0.00  0.00    +0.026 A 
ENDBRANCH  29  30
ENDBRANCH   1  29
TORSDOF 8
