REMARK  Name = ZINC09139969
REMARK  5 active torsions:
REMARK  status: ('A' for Active; 'I' for Inactive)
REMARK    1  A    between atoms: C_4  and  C_7
REMARK    2  A    between atoms: C_18  and  C_20
REMARK    3  A    between atoms: C_20  and  N_59
REMARK    4  A    between atoms: N_23  and  C_26
REMARK    5  A    between atoms: C_31  and  O_32
REMARK                            x       y       z     vdW  Elec       q    Type
REMARK                         _______ _______ _______ _____ _____    ______ ____
ROOT
ATOM      1  C   UNL     1       5.893   3.562   1.559  0.00  0.00    +0.149 C 
ATOM      2  C   UNL     1       6.810   4.544   0.816  0.00  0.00    +0.256 C 
ATOM      3  O   UNL     1       6.871   5.766   1.555  0.00  0.00    -0.488 OA
ATOM      4  C   UNL     1       5.698   6.325   1.952  0.00  0.00    +0.142 A 
ATOM      5  C   UNL     1       5.657   7.671   2.284  0.00  0.00    +0.047 A 
ATOM      6  C   UNL     1       4.469   8.247   2.692  0.00  0.00    +0.004 A 
ATOM      7  C   UNL     1       3.316   7.487   2.772  0.00  0.00    +0.002 A 
ATOM      8  C   UNL     1       3.347   6.145   2.441  0.00  0.00    +0.027 A 
ATOM      9  C   UNL     1       4.536   5.564   2.025  0.00  0.00    +0.079 A 
ATOM     10  N   UNL     1       4.571   4.200   1.690  0.00  0.00    -0.259 N 
ATOM     11  C   UNL     1       3.437   3.501   1.490  0.00  0.00    +0.204 C 
ATOM     12  O   UNL     1       2.365   4.069   1.499  0.00  0.00    -0.277 OA
ENDROOT
BRANCH   1  16
ATOM     13  C   UNL     1       7.490   2.727   5.432  0.00  0.00    +0.000 A 
ATOM     14  C   UNL     1       7.647   1.812   4.408  0.00  0.00    +0.000 A 
ATOM     15  C   UNL     1       7.130   2.082   3.155  0.00  0.00    +0.005 A 
ATOM     16  C   UNL     1       6.456   3.267   2.925  0.00  0.00    -0.023 A 
ATOM     17  C   UNL     1       6.304   4.185   3.948  0.00  0.00    +0.005 A 
ATOM     18  C   UNL     1       6.816   3.913   5.203  0.00  0.00    +0.000 A 
ENDBRANCH   1  16
BRANCH  11  19
ATOM     19  C   UNL     1       3.499   2.014   1.254  0.00  0.00    +0.019 C 
BRANCH  19  25
ATOM     20  C   UNL     1       1.696   2.048  -0.361  0.00  0.00    -0.059 C 
ATOM     21  C   UNL     1       0.267   1.568  -0.628  0.00  0.00    +0.086 C 
ATOM     22  N   UNL     1       0.240   0.099  -0.631  0.00  0.00    -0.331 N 
ATOM     23  C   UNL     1       0.702  -0.437   0.657  0.00  0.00    +0.086 C 
ATOM     24  C   UNL     1       2.130   0.043   0.923  0.00  0.00    -0.059 C 
ATOM     25  N   UNL     1       2.140   1.521   0.946  0.00  0.00    +0.387 N 
ATOM     26  H   UNL     1       1.494   1.848   1.674  0.00  0.00    -0.081 HD
BRANCH  22  27
ATOM     27  C   UNL     1      -1.038  -0.379  -0.944  0.00  0.00    +0.072 A 
ATOM     28  C   UNL     1      -2.118  -0.054  -0.136  0.00  0.00    +0.027 A 
ATOM     29  C   UNL     1      -3.381  -0.522  -0.449  0.00  0.00    +0.002 A 
ATOM     30  C   UNL     1      -3.568  -1.323  -1.561  0.00  0.00    +0.004 A 
ATOM     31  C   UNL     1      -2.495  -1.655  -2.368  0.00  0.00    +0.047 A 
ATOM     32  C   UNL     1      -1.228  -1.186  -2.063  0.00  0.00    +0.138 A 
BRANCH  32  33
ATOM     33  O   UNL     1      -0.172  -1.512  -2.856  0.00  0.00    -0.505 OA
ATOM     34  H   UNL     1       0.281  -2.324  -2.593  0.00  0.00    +0.292 HD
ENDBRANCH  32  33
ENDBRANCH  22  27
ENDBRANCH  19  25
ENDBRANCH  11  19
TORSDOF 5
