REMARK  Name = ZINC20072358
REMARK  8 active torsions:
REMARK  status: ('A' for Active; 'I' for Inactive)
REMARK    1  A    between atoms: C_4  and  C_7
REMARK    2  A    between atoms: C_8  and  C_9
REMARK    3  A    between atoms: C_8  and  N_28
REMARK    4  A    between atoms: N_11  and  N_12
REMARK    5  A    between atoms: C_13  and  C_14
REMARK    6  A    between atoms: C_17  and  C_19
REMARK    7  A    between atoms: C_22  and  N_25
REMARK    8  A    between atoms: C_29  and  C_31
REMARK                            x       y       z     vdW  Elec       q    Type
REMARK                         _______ _______ _______ _____ _____    ______ ____
ROOT
ATOM      1  C   UNL     1      -5.058   5.642  -0.449  0.00  0.00    +0.277 C 
ATOM      2  O   UNL     1      -4.662   4.814   0.349  0.00  0.00    -0.267 OA
ATOM      3  N   UNL     1      -4.694   5.557  -1.744  0.00  0.00    -0.202 N 
ATOM      4  H   UNL     1      -4.984   6.350  -2.450  0.00  0.00    +0.178 HD
ENDROOT
BRANCH   1   6
ATOM      5  C   UNL     1      -5.436   7.992   0.121  0.00  0.00    +0.036 C 
ATOM      6  C   UNL     1      -5.931   6.733  -0.003  0.00  0.00    +0.098 C 
BRANCH   5  10
ATOM      7  C   UNL     1      -1.284   8.695  -0.364  0.00  0.00    +0.000 A 
ATOM      8  C   UNL     1      -2.199   9.629  -0.821  0.00  0.00    +0.001 A 
ATOM      9  C   UNL     1      -3.550   9.408  -0.668  0.00  0.00    +0.008 A 
ATOM     10  C   UNL     1      -3.998   8.236  -0.047  0.00  0.00    -0.023 A 
ATOM     11  C   UNL     1      -3.066   7.299   0.418  0.00  0.00    +0.008 A 
ATOM     12  C   UNL     1      -1.718   7.533   0.251  0.00  0.00    +0.001 A 
ENDBRANCH   5  10
BRANCH   6  13
ATOM     13  N   UNL     1      -7.271   6.477   0.295  0.00  0.00    -0.277 N 
ATOM     14  C   UNL     1      -7.755   5.223   0.195  0.00  0.00    +0.248 C 
ATOM     15  O   UNL     1      -7.006   4.300  -0.057  0.00  0.00    -0.270 OA
ATOM     16  H   UNL     1      -7.930   7.298   0.612  0.00  0.00    +0.155 HD
BRANCH  14  17
ATOM     17  C   UNL     1      -9.199   4.971   0.390  0.00  0.00    +0.037 A 
ATOM     18  C   UNL     1     -10.061   6.029   0.684  0.00  0.00    +0.013 A 
ATOM     19  C   UNL     1     -11.408   5.787   0.861  0.00  0.00    +0.001 A 
ATOM     20  C   UNL     1     -11.903   4.499   0.757  0.00  0.00    +0.000 A 
ATOM     21  C   UNL     1     -11.052   3.446   0.470  0.00  0.00    +0.001 A 
ATOM     22  C   UNL     1      -9.704   3.674   0.286  0.00  0.00    +0.013 A 
ENDBRANCH  14  17
ENDBRANCH   6  13
ENDBRANCH   1   6
BRANCH   3  23
ATOM     23  N   UNL     1      -4.007   4.547  -2.156  0.00  0.00    -0.184 NA
ATOM     24  C   UNL     1      -3.563   4.511  -3.409  0.00  0.00    +0.176 C 
BRANCH  24  25
ATOM     25  C   UNL     1      -2.737   3.476  -3.823  0.00  0.00    +0.148 A 
ATOM     26  C   UNL     1      -2.169   3.299  -5.167  0.00  0.00    +0.051 A 
ATOM     27  C   UNL     1      -1.428   2.161  -5.121  0.00  0.00    +0.050 A 
ATOM     28  C   UNL     1      -1.523   1.643  -3.808  0.00  0.00    +0.136 A 
ATOM     29  O   UNL     1      -2.309   2.441  -3.066  0.00  0.00    -0.454 OA
BRANCH  28  30
ATOM     30  C   UNL     1      -0.872   0.424  -3.334  0.00  0.00    +0.017 A 
ATOM     31  C   UNL     1      -0.078  -0.342  -4.208  0.00  0.00    +0.014 A 
ATOM     32  C   UNL     1       0.533  -1.481  -3.751  0.00  0.00    +0.033 A 
ATOM     33  C   UNL     1       0.362  -1.886  -2.435  0.00  0.00    +0.126 A 
ATOM     34  C   UNL     1      -0.423  -1.142  -1.567  0.00  0.00    +0.033 A 
ATOM     35  C   UNL     1      -1.038   0.004  -2.001  0.00  0.00    +0.014 A 
BRANCH  33  36
ATOM     36  N   UNL     1       1.021  -3.121  -1.955  0.00  0.00    +0.056 N 
ATOM     37  O   UNL     1       0.861  -3.510  -0.707  0.00  0.00    -0.126 OA
ATOM     38  O   UNL     1       1.767  -3.831  -2.776  0.00  0.00    -0.126 OA
ENDBRANCH  33  36
ENDBRANCH  28  30
ENDBRANCH  24  25
ENDBRANCH   3  23
TORSDOF 8
