REMARK  Name = ZINC63655205
REMARK  18 active torsions:
REMARK  status: ('A' for Active; 'I' for Inactive)
REMARK    1  A    between atoms: C_1  and  C_2
REMARK    2  A    between atoms: C_4  and  C_13
REMARK    3  A    between atoms: C_13  and  C_14
REMARK    4  A    between atoms: C_14  and  N_15
REMARK    5  A    between atoms: N_15  and  C_16
REMARK    6  A    between atoms: N_15  and  C_29
REMARK    7  A    between atoms: C_16  and  C_17
REMARK    8  A    between atoms: C_19  and  O_27
REMARK    9  A    between atoms: C_20  and  O_25
REMARK   10  A    between atoms: C_21  and  O_23
REMARK   11  A    between atoms: O_23  and  C_24
REMARK   12  A    between atoms: O_25  and  C_26
REMARK   13  A    between atoms: O_27  and  C_28
REMARK   14  A    between atoms: C_29  and  N_31
REMARK   15  A    between atoms: N_31  and  C_32
REMARK   16  A    between atoms: C_32  and  C_33
REMARK   17  A    between atoms: C_33  and  O_34
REMARK   18  A    between atoms: O_34  and  C_35
REMARK                            x       y       z     vdW  Elec       q    Type
REMARK                         _______ _______ _______ _____ _____    ______ ____
ROOT
ATOM      1  N   UNL     1       0.998  -0.730  -4.977  0.00  0.00    -0.308 N 
ENDROOT
BRANCH   1   2
ATOM      2  C   UNL     1       0.175  -1.589  -5.611  0.00  0.00    +0.133 C 
ATOM      3  S   UNL     1      -0.253  -1.317  -7.246  0.00  0.00    -0.019 S 
BRANCH   2   4
ATOM      4  N   UNL     1      -0.311  -2.663  -4.957  0.00  0.00    -0.324 N 
ATOM      5  H   UNL     1      -0.068  -2.817  -4.031  0.00  0.00    +0.148 HD
BRANCH   4   6
ATOM      6  C   UNL     1      -1.205  -3.597  -5.646  0.00  0.00    +0.131 C 
BRANCH   6   7
ATOM      7  C   UNL     1      -1.608  -4.718  -4.686  0.00  0.00    +0.178 C 
BRANCH   7   8
ATOM      8  O   UNL     1      -2.382  -4.174  -3.615  0.00  0.00    -0.381 OA
ATOM      9  C   UNL     1      -2.812  -5.143  -2.657  0.00  0.00    +0.194 C 
ENDBRANCH   7   8
ENDBRANCH   6   7
ENDBRANCH   4   6
ENDBRANCH   2   4
ENDBRANCH   1   2
BRANCH   1  10
ATOM     10  C   UNL     1       1.364  -0.963  -3.578  0.00  0.00    +0.111 C 
BRANCH  10  11
ATOM     11  C   UNL     1       0.352  -0.269  -2.664  0.00  0.00    +0.052 C 
BRANCH  11  14
ATOM     12  C   UNL     1      -0.019   1.526   0.010  0.00  0.00    +0.035 C 
ATOM     13  C   UNL     1       0.002  -0.004   0.002  0.00  0.00    +0.103 C 
ATOM     14  C   UNL     1       0.729  -0.509  -1.224  0.00  0.00    -0.037 C 
ATOM     15  C   UNL     1       1.785  -1.220  -0.768  0.00  0.00    +0.002 A 
ATOM     16  C   UNL     1       2.858  -1.954  -1.449  0.00  0.00    +0.048 A 
ATOM     17  C   UNL     1       3.798  -2.583  -0.705  0.00  0.00    +0.124 A 
ATOM     18  C   UNL     1       3.771  -2.550   0.698  0.00  0.00    +0.040 A 
ATOM     19  C   UNL     1       2.817  -1.897   1.393  0.00  0.00    +0.029 A 
ATOM     20  C   UNL     1       1.780  -1.201   0.712  0.00  0.00    +0.043 A 
ATOM     21  N   UNL     1       0.758  -0.506   1.155  0.00  0.00    -0.378 N 
ATOM     22  F   UNL     1       4.787  -3.260  -1.329  0.00  0.00    -0.205 F 
ATOM     23  H   UNL     1       0.540  -0.349   2.087  0.00  0.00    +0.160 HD
ENDBRANCH  11  14
ENDBRANCH  10  11
ENDBRANCH   1  10
BRANCH   1  24
ATOM     24  C   UNL     1       1.525   0.438  -5.688  0.00  0.00    +0.142 C 
BRANCH  24  25
ATOM     25  C   UNL     1       2.828   0.074  -6.352  0.00  0.00    -0.023 A 
ATOM     26  C   UNL     1       4.019   0.234  -5.668  0.00  0.00    +0.054 A 
ATOM     27  C   UNL     1       5.220  -0.099  -6.277  0.00  0.00    +0.165 A 
ATOM     28  C   UNL     1       5.225  -0.594  -7.575  0.00  0.00    +0.204 A 
ATOM     29  C   UNL     1       4.026  -0.753  -8.259  0.00  0.00    +0.165 A 
ATOM     30  C   UNL     1       2.829  -0.423  -7.642  0.00  0.00    +0.054 A 
BRANCH  29  31
ATOM     31  O   UNL     1       4.026  -1.237  -9.530  0.00  0.00    -0.491 OA
ATOM     32  C   UNL     1       2.757  -1.374 -10.172  0.00  0.00    +0.277 C 
ENDBRANCH  29  31
BRANCH  28  33
ATOM     33  O   UNL     1       6.402  -0.921  -8.176  0.00  0.00    -0.488 OA
ATOM     34  C   UNL     1       6.863  -2.263  -8.010  0.00  0.00    +0.277 C 
ENDBRANCH  28  33
BRANCH  27  35
ATOM     35  O   UNL     1       6.391   0.059  -5.603  0.00  0.00    -0.491 OA
ATOM     36  C   UNL     1       6.309   0.573  -4.272  0.00  0.00    +0.277 C 
ENDBRANCH  27  35
ENDBRANCH  24  25
ENDBRANCH   1  24
TORSDOF 13
