REMARK  Name = ZINC20356240
REMARK  4 active torsions:
REMARK  status: ('A' for Active; 'I' for Inactive)
REMARK    1  A    between atoms: C_1  and  C_2
REMARK    2  A    between atoms: C_2  and  C_3
REMARK    3  A    between atoms: C_2  and  C_4
REMARK    4  A    between atoms: C_7  and  C_10
REMARK                            x       y       z     vdW  Elec       q    Type
REMARK                         _______ _______ _______ _____ _____    ______ ____
ROOT
ATOM      1  C   UNL     1       2.653  -2.059  -4.813  0.00  0.00    +0.024 C 
ATOM      2  C   UNL     1       3.870  -2.654  -4.646  0.00  0.00    +0.081 C 
ATOM      3  C   UNL     1       4.427  -2.938  -3.293  0.00  0.00    +0.153 C 
ATOM      4  N   UNL     1       3.686  -3.247  -2.262  0.00  0.00    -0.283 NA
ATOM      5  N   UNL     1       5.833  -2.841  -3.234  0.00  0.00    -0.150 N 
ATOM      6  C   UNL     1       6.531  -3.001  -4.410  0.00  0.00    +0.182 C 
ATOM      7  N   UNL     1       6.042  -3.141  -5.617  0.00  0.00    -0.152 NA
ATOM      8  C   UNL     1       4.708  -3.059  -5.803  0.00  0.00    +0.273 C 
ATOM      9  O   UNL     1       4.206  -3.306  -6.888  0.00  0.00    -0.268 OA
ATOM     10  S   UNL     1       8.215  -2.943  -3.857  0.00  0.00    -0.018 S 
ATOM     11  C   UNL     1       7.885  -2.612  -2.131  0.00  0.00    +0.182 C 
ATOM     12  N   UNL     1       6.576  -2.609  -2.096  0.00  0.00    -0.149 NA
ATOM     13  N   UNL     1       8.784  -2.410  -1.097  0.00  0.00    -0.308 N 
ATOM     14  C   UNL     1       8.430  -2.147   0.306  0.00  0.00    +0.107 C 
ATOM     15  C   UNL     1       9.750  -1.964   1.084  0.00  0.00    +0.020 C 
ATOM     16  C   UNL     1      10.758  -1.572  -0.028  0.00  0.00    +0.020 C 
ATOM     17  C   UNL     1      10.252  -2.429  -1.219  0.00  0.00    +0.107 C 
ATOM     18  H   UNL     1       4.100  -3.426  -1.403  0.00  0.00    +0.188 HD
ENDROOT
BRANCH   1  22
ATOM     19  C   UNL     1       0.587  -0.487  -1.463  0.00  0.00    -0.045 A 
ATOM     20  C   UNL     1      -0.126  -1.029  -2.519  0.00  0.00    +0.004 A 
ATOM     21  C   UNL     1       0.538  -1.542  -3.612  0.00  0.00    +0.008 A 
ATOM     22  C   UNL     1       1.937  -1.514  -3.653  0.00  0.00    -0.024 A 
ATOM     23  C   UNL     1       2.650  -0.963  -2.581  0.00  0.00    +0.008 A 
ATOM     24  C   UNL     1       1.970  -0.450  -1.498  0.00  0.00    +0.004 A 
BRANCH  19  26
ATOM     25  C   UNL     1      -1.069   1.206  -0.727  0.00  0.00    +0.012 C 
ATOM     26  C   UNL     1      -0.148   0.072  -0.272  0.00  0.00    +0.013 C 
ATOM     27  C   UNL     1      -0.982  -1.033   0.378  0.00  0.00    +0.012 C 
ENDBRANCH  19  26
ENDBRANCH   1  22
TORSDOF 2
