REMARK  Name = ZINC23429041
REMARK  6 active torsions:
REMARK  status: ('A' for Active; 'I' for Inactive)
REMARK    1  A    between atoms: C_5  and  C_7
REMARK    2  A    between atoms: C_7  and  C_8
REMARK    3  A    between atoms: C_8  and  N_9
REMARK    4  A    between atoms: C_10  and  C_12
REMARK    5  A    between atoms: C_12  and  C_13
REMARK    6  A    between atoms: N_20  and  C_21
REMARK                            x       y       z     vdW  Elec       q    Type
REMARK                         _______ _______ _______ _____ _____    ______ ____
ROOT
ATOM      1  C   UNL     1      -2.410   0.673  -0.322  0.00  0.00    +0.089 C 
ENDROOT
BRANCH   1   2
ATOM      2  C   UNL     1      -3.494   1.738  -0.144  0.00  0.00    +0.028 C 
ATOM      3  C   UNL     1      -4.821   1.069   0.075  0.00  0.00    +0.200 C 
ATOM      4  O   UNL     1      -4.872   0.110   0.815  0.00  0.00    -0.278 OA
ATOM      5  N   UNL     1      -5.947   1.486  -0.512  0.00  0.00    -0.318 N 
ATOM      6  C   UNL     1      -5.987   2.607  -1.447  0.00  0.00    +0.085 C 
ATOM      7  C   UNL     1      -4.728   3.462  -1.294  0.00  0.00    -0.058 C 
ATOM      8  N   UNL     1      -3.549   2.582  -1.346  0.00  0.00    +0.390 N 
ATOM      9  H   UNL     1      -6.872   0.945  -0.264  0.00  0.00    +0.149 HD
ATOM     10  H   UNL     1      -3.639   1.928  -2.226  0.00  0.00    -0.080 HD
BRANCH   8  11
ATOM     11  C   UNL     1      -2.315   3.363  -1.498  0.00  0.00    -0.067 C 
ATOM     12  C   UNL     1      -2.202   4.400  -0.361  0.00  0.00    -0.015 C 
ATOM     13  C   UNL     1      -1.579   5.644  -1.042  0.00  0.00    -0.002 C 
ATOM     14  C   UNL     1      -2.261   5.649  -2.433  0.00  0.00    -0.002 C 
ATOM     15  C   UNL     1      -2.353   4.158  -2.815  0.00  0.00    -0.015 C 
ENDBRANCH   8  11
ENDBRANCH   1   2
BRANCH   1  17
ATOM     16  N   UNL     1      -1.817  -1.066  -1.977  0.00  0.00    -0.315 N 
ATOM     17  C   UNL     1      -2.693  -0.129  -1.566  0.00  0.00    +0.212 C 
ATOM     18  O   UNL     1      -3.709   0.071  -2.198  0.00  0.00    -0.276 OA
ATOM     19  H   UNL     1      -0.893  -1.244  -1.407  0.00  0.00    +0.149 HD
BRANCH  16  20
ATOM     20  C   UNL     1      -2.094  -1.849  -3.184  0.00  0.00    +0.109 C 
BRANCH  20  21
ATOM     21  C   UNL     1      -0.953  -2.841  -3.422  0.00  0.00    +0.055 C 
BRANCH  21  26
ATOM     22  C   UNL     1      -2.110  -5.622  -5.699  0.00  0.00    +0.000 A 
ATOM     23  C   UNL     1      -1.762  -5.125  -6.941  0.00  0.00    +0.001 A 
ATOM     24  C   UNL     1      -1.151  -3.890  -7.045  0.00  0.00    +0.020 A 
ATOM     25  C   UNL     1      -0.889  -3.150  -5.906  0.00  0.00    +0.044 A 
ATOM     26  C   UNL     1      -1.239  -3.646  -4.663  0.00  0.00    -0.028 A 
ATOM     27  C   UNL     1      -1.845  -4.885  -4.560  0.00  0.00    +0.005 A 
ATOM     28 CL   UNL     1      -0.122  -1.598  -6.037  0.00  0.00    -0.083 Cl
ENDBRANCH  21  26
ENDBRANCH  20  21
ENDBRANCH  16  20
ENDBRANCH   1  17
TORSDOF 6
