REMARK  Name = ZINC05255802
REMARK  7 active torsions:
REMARK  status: ('A' for Active; 'I' for Inactive)
REMARK    1  A    between atoms: C_1  and  C_2
REMARK    2  A    between atoms: C_2  and  C_3
REMARK    3  A    between atoms: C_2  and  N_4
REMARK    4  A    between atoms: N_11  and  C_12
REMARK    5  A    between atoms: N_25  and  C_26
REMARK    6  A    between atoms: C_26  and  C_27
REMARK    7  A    between atoms: C_26  and  C_28
REMARK                            x       y       z     vdW  Elec       q    Type
REMARK                         _______ _______ _______ _____ _____    ______ ____
ROOT
ATOM      1  N   UNL     1      -0.011   0.966   0.007  0.00  0.00    -0.311 N 
ATOM      2  C   UNL     1       1.175   1.672  -0.000  0.00  0.00    +0.221 A 
ATOM      3  N   UNL     1       1.157   3.001   0.007  0.00  0.00    -0.181 NA
ATOM      4  C   UNL     1       2.299   3.682   0.000  0.00  0.00    +0.221 A 
ATOM      5  N   UNL     1       3.459   3.033  -0.014  0.00  0.00    -0.181 NA
ATOM      6  C   UNL     1       3.477   1.703  -0.021  0.00  0.00    +0.221 A 
ATOM      7  N   UNL     1       2.335   1.023  -0.009  0.00  0.00    -0.181 NA
ATOM      8  N   UNL     1       4.681   1.030  -0.036  0.00  0.00    -0.308 N 
ATOM      9  N   UNL     1       2.280   5.061   0.008  0.00  0.00    -0.311 N 
ATOM     10  H   UNL     1       0.002  -0.004   0.002  0.00  0.00    +0.149 HD
ATOM     11  H   UNL     1       5.515   1.526  -0.041  0.00  0.00    +0.149 HD
ATOM     12  H   UNL     1       3.113   5.558   0.003  0.00  0.00    +0.149 HD
ENDROOT
BRANCH   8  13
ATOM     13  C   UNL     1       4.701  -0.435  -0.044  0.00  0.00    +0.036 C 
ATOM     14  C   UNL     1       3.998  -0.962   1.209  0.00  0.00    +0.029 C 
ATOM     15  C   UNL     1       4.019  -2.491   1.201  0.00  0.00    -0.008 C 
ATOM     16  C   UNL     1       5.468  -2.982   1.185  0.00  0.00    +0.007 C 
ATOM     17  C   UNL     1       6.171  -2.455  -0.068  0.00  0.00    -0.008 C 
ATOM     18  C   UNL     1       6.150  -0.925  -0.060  0.00  0.00    +0.029 C 
ATOM     19  C   UNL     1       5.445  -2.968  -1.313  0.00  0.00    +0.007 C 
ATOM     20  C   UNL     1       3.996  -2.478  -1.298  0.00  0.00    -0.008 C 
ATOM     21  C   UNL     1       3.293  -3.005  -0.045  0.00  0.00    +0.007 C 
ATOM     22  C   UNL     1       3.975  -0.948  -1.289  0.00  0.00    +0.029 C 
ENDBRANCH   8  13
BRANCH   1  24
ATOM     23  C   UNL     1      -2.376   0.792  -0.592  0.00  0.00    +0.027 C 
ATOM     24  C   UNL     1      -1.290   1.681   0.017  0.00  0.00    +0.067 C 
ATOM     25  C   UNL     1      -1.667   2.032   1.458  0.00  0.00    +0.027 C 
ENDBRANCH   1  24
BRANCH   9  26
ATOM     26  C   UNL     1       1.002   5.777   0.024  0.00  0.00    +0.067 C 
ATOM     27  C   UNL     1       1.200   7.163   0.640  0.00  0.00    +0.027 C 
ATOM     28  C   UNL     1       0.482   5.924  -1.407  0.00  0.00    +0.027 C 
ENDBRANCH   9  26
TORSDOF 3
