REMARK  Name = ZINC09277304
REMARK  12 active torsions:
REMARK  status: ('A' for Active; 'I' for Inactive)
REMARK    1  A    between atoms: C_1  and  C_2
REMARK    2  A    between atoms: C_2  and  O_3
REMARK    3  A    between atoms: O_3  and  C_4
REMARK    4  A    between atoms: C_9  and  N_10
REMARK    5  A    between atoms: C_11  and  C_13
REMARK    6  A    between atoms: C_13  and  S_14
REMARK    7  A    between atoms: S_14  and  C_15
REMARK    8  A    between atoms: N_17  and  C_24
REMARK    9  A    between atoms: C_24  and  C_25
REMARK   10  A    between atoms: C_25  and  N_26
REMARK   11  A    between atoms: C_27  and  C_29
REMARK   12  A    between atoms: C_32  and  N_35
REMARK                            x       y       z     vdW  Elec       q    Type
REMARK                         _______ _______ _______ _____ _____    ______ ____
ROOT
ATOM      1  C   UNL     1       4.015  -8.316   0.692  0.00  0.00    +0.034 A 
ATOM      2  C   UNL     1       4.019  -7.019   1.054  0.00  0.00    +0.101 A 
ATOM      3  N   UNL     1       3.885  -6.224  -0.062  0.00  0.00    -0.344 N 
ATOM      4  C   UNL     1       3.785  -7.011  -1.187  0.00  0.00    +0.050 A 
ATOM      5  C   UNL     1       3.867  -8.352  -0.768  0.00  0.00    +0.013 A 
ATOM      6  C   UNL     1       3.797  -9.381  -1.709  0.00  0.00    +0.011 A 
ATOM      7  C   UNL     1       3.641  -9.080  -3.033  0.00  0.00    +0.001 A 
ATOM      8  C   UNL     1       3.563  -7.759  -3.452  0.00  0.00    +0.002 A 
ATOM      9  C   UNL     1       3.634  -6.728  -2.541  0.00  0.00    +0.026 A 
ENDROOT
BRANCH   1  10
ATOM     10  S   UNL     1       4.159  -9.705   1.766  0.00  0.00    -0.114 S 
BRANCH  10  11
ATOM     11  C   UNL     1       4.309  -8.969   3.417  0.00  0.00    +0.170 C 
BRANCH  11  13
ATOM     12  N   UNL     1       4.566  -9.752   5.750  0.00  0.00    -0.282 N 
ATOM     13  C   UNL     1       4.441 -10.064   4.445  0.00  0.00    +0.227 C 
ATOM     14  O   UNL     1       4.434 -11.226   4.097  0.00  0.00    -0.275 OA
ATOM     15  H   UNL     1       4.652  -8.824   6.020  0.00  0.00    +0.155 HD
BRANCH  12  21
ATOM     16  C   UNL     1       5.188 -10.555   7.947  0.00  0.00    +0.142 A 
ATOM     17  C   UNL     1       5.191 -11.562   8.898  0.00  0.00    +0.047 A 
ATOM     18  C   UNL     1       4.583 -12.774   8.625  0.00  0.00    +0.004 A 
ATOM     19  C   UNL     1       3.972 -12.984   7.402  0.00  0.00    +0.002 A 
ATOM     20  C   UNL     1       3.960 -11.983   6.450  0.00  0.00    +0.027 A 
ATOM     21  C   UNL     1       4.572 -10.767   6.716  0.00  0.00    +0.076 A 
BRANCH  16  22
ATOM     22  O   UNL     1       5.784  -9.363   8.215  0.00  0.00    -0.490 OA
BRANCH  22  24
ATOM     23  C   UNL     1       7.008  -7.820   9.616  0.00  0.00    +0.048 C 
ATOM     24  C   UNL     1       6.395  -9.217   9.499  0.00  0.00    +0.226 C 
ENDBRANCH  22  24
ENDBRANCH  16  22
ENDBRANCH  12  21
ENDBRANCH  11  13
ENDBRANCH  10  11
ENDBRANCH   1  10
BRANCH   3  25
ATOM     25  C   UNL     1       3.848  -4.760  -0.053  0.00  0.00    +0.140 C 
BRANCH  25  26
ATOM     26  C   UNL     1       2.393  -4.287  -0.029  0.00  0.00    +0.126 C 
BRANCH  26  27
ATOM     27  N   UNL     1       2.356  -2.822  -0.020  0.00  0.00    -0.310 N 
ATOM     28  C   UNL     1       1.172  -2.178   0.001  0.00  0.00    +0.244 C 
ATOM     29  O   UNL     1       0.136  -2.812   0.012  0.00  0.00    -0.270 OA
ATOM     30  H   UNL     1       3.184  -2.316  -0.029  0.00  0.00    +0.149 HD
BRANCH  28  31
ATOM     31  C   UNL     1       1.135  -0.700   0.010  0.00  0.00    +0.037 A 
ATOM     32  C   UNL     1      -0.089  -0.030   0.031  0.00  0.00    +0.015 A 
ATOM     33  C   UNL     1      -0.117   1.349   0.040  0.00  0.00    +0.033 A 
ATOM     34  C   UNL     1       1.065   2.068   0.028  0.00  0.00    +0.126 A 
ATOM     35  C   UNL     1       2.282   1.410   0.006  0.00  0.00    +0.033 A 
ATOM     36  C   UNL     1       2.324   0.031  -0.003  0.00  0.00    +0.015 A 
BRANCH  34  37
ATOM     37  N   UNL     1       1.028   3.548   0.037  0.00  0.00    +0.056 N 
ATOM     38  O   UNL     1      -0.042   4.130   0.055  0.00  0.00    -0.126 OA
ATOM     39  O   UNL     1       2.067   4.183   0.026  0.00  0.00    -0.126 OA
ENDBRANCH  34  37
ENDBRANCH  28  31
ENDBRANCH  26  27
ENDBRANCH  25  26
ENDBRANCH   3  25
TORSDOF 11
