REMARK  Name = ZINC64885365
REMARK  7 active torsions:
REMARK  status: ('A' for Active; 'I' for Inactive)
REMARK    1  A    between atoms: C_6  and  C_7
REMARK    2  A    between atoms: C_7  and  C_8
REMARK    3  A    between atoms: N_10  and  N_11
REMARK    4  A    between atoms: N_14  and  C_15
REMARK    5  A    between atoms: C_15  and  C_16
REMARK    6  A    between atoms: C_16  and  C_17
REMARK    7  A    between atoms: C_17  and  N_18
REMARK                            x       y       z     vdW  Elec       q    Type
REMARK                         _______ _______ _______ _____ _____    ______ ____
ROOT
ATOM      1  N   UNL     1      -3.293  -1.933  -2.965  0.00  0.00    -0.218 N 
ATOM      2  C   UNL     1      -4.434  -2.609  -3.204  0.00  0.00    +0.316 C 
ATOM      3  O   UNL     1      -4.793  -2.811  -4.348  0.00  0.00    -0.251 OA
ATOM      4  N   UNL     1      -5.176  -3.063  -2.175  0.00  0.00    -0.298 N 
ATOM      5  H   UNL     1      -2.758  -1.606  -3.706  0.00  0.00    +0.174 HD
ATOM      6  H   UNL     1      -4.890  -2.902  -1.262  0.00  0.00    +0.150 HD
ENDROOT
BRANCH   1   9
ATOM      7  C   UNL     1      -1.738  -1.024  -1.408  0.00  0.00    +0.233 C 
ATOM      8  O   UNL     1      -1.070  -0.616  -2.334  0.00  0.00    -0.274 OA
ATOM      9  N   UNL     1      -2.879  -1.701  -1.647  0.00  0.00    -0.233 N 
ATOM     10  H   UNL     1      -3.413  -2.027  -0.906  0.00  0.00    +0.173 HD
BRANCH   7  11
ATOM     11  C   UNL     1      -1.293  -0.775   0.010  0.00  0.00    +0.132 C 
BRANCH  11  17
ATOM     12  C   UNL     1      -0.017   1.378   0.010  0.00  0.00    +0.005 A 
ATOM     13  C   UNL     1       1.171   2.086   0.002  0.00  0.00    +0.015 A 
ATOM     14  C   UNL     1       2.378   1.411  -0.013  0.00  0.00    +0.018 A 
ATOM     15  C   UNL     1       2.396   0.027  -0.021  0.00  0.00    +0.015 A 
ATOM     16  C   UNL     1       1.208  -0.679  -0.013  0.00  0.00    +0.005 A 
ATOM     17  C   UNL     1       0.002  -0.004   0.002  0.00  0.00    -0.039 A 
ATOM     18 BR   UNL     1       4.003   2.378  -0.024  0.00  0.00    -0.050 Br
ENDBRANCH  11  17
ENDBRANCH   7  11
ENDBRANCH   1   9
BRANCH   4  19
ATOM     19  C   UNL     1      -6.416  -3.798  -2.435  0.00  0.00    +0.107 C 
BRANCH  19  20
ATOM     20  C   UNL     1      -7.061  -4.197  -1.105  0.00  0.00    +0.040 C 
BRANCH  20  21
ATOM     21  C   UNL     1      -8.356  -4.965  -1.377  0.00  0.00    +0.124 C 
BRANCH  21  22
ATOM     22  N   UNL     1      -8.973  -5.346  -0.104  0.00  0.00    -0.338 N 
ATOM     23  C   UNL     1      -8.748  -6.502   0.594  0.00  0.00    +0.104 A 
ATOM     24  C   UNL     1      -9.514  -6.445   1.700  0.00  0.00    +0.101 A 
ATOM     25  N   UNL     1     -10.190  -5.287   1.677  0.00  0.00    -0.352 N 
ATOM     26  C   UNL     1      -9.867  -4.621   0.602  0.00  0.00    +0.173 A 
ATOM     27  H   UNL     1     -10.816  -4.989   2.355  0.00  0.00    +0.166 HD
ENDBRANCH  21  22
ENDBRANCH  20  21
ENDBRANCH  19  20
ENDBRANCH   4  19
TORSDOF 7
