REMARK  Name = ZINC01984262
REMARK  10 active torsions:
REMARK  status: ('A' for Active; 'I' for Inactive)
REMARK    1  A    between atoms: C_1  and  C_2
REMARK    2  A    between atoms: C_4  and  O_12
REMARK    3  A    between atoms: C_5  and  C_9
REMARK    4  A    between atoms: C_9  and  C_10
REMARK    5  A    between atoms: C_9  and  C_11
REMARK    6  A    between atoms: O_12  and  C_13
REMARK    7  A    between atoms: C_13  and  C_14
REMARK    8  A    between atoms: N_16  and  C_17
REMARK    9  A    between atoms: C_18  and  C_28
REMARK   10  A    between atoms: C_23  and  C_27
REMARK                            x       y       z     vdW  Elec       q    Type
REMARK                         _______ _______ _______ _____ _____    ______ ____
ROOT
ATOM      1  C   UNL     1       0.018  -2.879  -4.780  0.00  0.00    +0.255 C 
ATOM      2  O   UNL     1       0.035  -4.082  -4.626  0.00  0.00    -0.272 OA
ATOM      3  N   UNL     1       0.004  -2.358  -6.023  0.00  0.00    -0.277 N 
ATOM      4  H   UNL     1      -0.010  -1.396  -6.146  0.00  0.00    +0.155 HD
ENDROOT
BRANCH   3   5
ATOM      5  C   UNL     1       0.010  -3.198  -7.126  0.00  0.00    +0.084 A 
ATOM      6  C   UNL     1       0.004  -2.845  -8.466  0.00  0.00    +0.068 A 
ATOM      7  C   UNL     1       0.012  -3.924  -9.438  0.00  0.00    -0.023 A 
ATOM      8  C   UNL     1       0.026  -5.159  -8.892  0.00  0.00    -0.004 A 
ATOM      9  S   UNL     1       0.034  -4.877  -7.145  0.00  0.00    -0.077 S 
ATOM     10  C   UNL     1       0.039  -6.466  -9.622  0.00  0.00    +0.046 C 
ATOM     11  C   UNL     1       0.415  -6.196 -11.087  0.00  0.00    -0.009 C 
ATOM     12  C   UNL     1      -0.434  -5.034 -11.610  0.00  0.00    +0.008 C 
ATOM     13  C   UNL     1       0.006  -3.727 -10.947  0.00  0.00    +0.037 C 
ATOM     14  C   UNL     1       0.147  -7.448 -11.924  0.00  0.00    +0.008 C 
BRANCH   6  15
ATOM     15  C   UNL     1      -0.012  -1.440  -8.886  0.00  0.00    +0.244 C 
ATOM     16  O   UNL     1       1.036  -0.846  -9.062  0.00  0.00    -0.270 OA
ATOM     17  N   UNL     1      -1.186  -0.806  -9.075  0.00  0.00    -0.325 N 
ATOM     18  H   UNL     1      -2.021  -1.279  -8.935  0.00  0.00    +0.145 HD
ATOM     19  H   UNL     1      -1.196   0.123  -9.353  0.00  0.00    +0.145 HD
ENDBRANCH   6  15
ENDBRANCH   3   5
BRANCH   1  20
ATOM     20  C   UNL     1       0.011  -1.966  -3.581  0.00  0.00    +0.324 C 
BRANCH  20  21
ATOM     21  O   UNL     1       0.028  -2.749  -2.386  0.00  0.00    -0.482 OA
BRANCH  21  25
ATOM     22  C   UNL     1      -0.018   1.503   0.010  0.00  0.00    +0.045 C 
ATOM     23  C   UNL     1       0.002  -0.004   0.002  0.00  0.00    -0.033 A 
ATOM     24  C   UNL     1       0.006  -0.688  -1.199  0.00  0.00    +0.050 A 
ATOM     25  C   UNL     1       0.025  -2.075  -1.206  0.00  0.00    +0.125 A 
ATOM     26  C   UNL     1       0.041  -2.772  -0.006  0.00  0.00    -0.002 A 
ATOM     27  C   UNL     1       0.037  -2.085   1.192  0.00  0.00    +0.023 A 
ATOM     28  C   UNL     1       0.023  -0.702   1.196  0.00  0.00    +0.021 A 
ATOM     29 BR   UNL     1       0.025   0.237   2.838  0.00  0.00    -0.050 Br
BRANCH  26  30
ATOM     30  C   UNL     1       0.061  -4.279  -0.011  0.00  0.00    +0.016 C 
ATOM     31  C   UNL     1       1.321  -4.774   0.702  0.00  0.00    +0.012 C 
ATOM     32  C   UNL     1      -1.177  -4.809   0.715  0.00  0.00    +0.012 C 
ENDBRANCH  26  30
ENDBRANCH  21  25
ENDBRANCH  20  21
ENDBRANCH   1  20
TORSDOF 6
