REMARK  Name = ZINC09440659
REMARK  6 active torsions:
REMARK  status: ('A' for Active; 'I' for Inactive)
REMARK    1  A    between atoms: C_10  and  C_11
REMARK    2  A    between atoms: C_11  and  O_13
REMARK    3  A    between atoms: O_13  and  C_14
REMARK    4  A    between atoms: C_14  and  C_15
REMARK    5  A    between atoms: N_17  and  C_18
REMARK    6  A    between atoms: C_21  and  N_25
REMARK                            x       y       z     vdW  Elec       q    Type
REMARK                         _______ _______ _______ _____ _____    ______ ____
ROOT
ATOM      1  C   UNL     1      -3.702   2.128  -0.187  0.00  0.00    +0.328 C 
ENDROOT
BRANCH   1   2
ATOM      2  C   UNL     1      -2.394   1.385  -0.088  0.00  0.00    +0.255 C 
ATOM      3  O   UNL     1      -2.383   0.173  -0.098  0.00  0.00    -0.272 OA
ATOM      4  N   UNL     1      -1.237   2.069   0.011  0.00  0.00    -0.282 N 
ATOM      5  H   UNL     1      -1.250   3.035   0.100  0.00  0.00    +0.155 HD
BRANCH   4   6
ATOM      6  C   UNL     1      -0.016   1.386  -0.014  0.00  0.00    +0.048 A 
ATOM      7  C   UNL     1       0.075   0.146  -0.633  0.00  0.00    +0.026 A 
ATOM      8  C   UNL     1       1.283  -0.523  -0.661  0.00  0.00    +0.034 A 
ATOM      9  C   UNL     1       2.402   0.040  -0.074  0.00  0.00    +0.127 A 
ATOM     10  C   UNL     1       2.315   1.274   0.543  0.00  0.00    +0.049 A 
ATOM     11  C   UNL     1       1.110   1.949   0.576  0.00  0.00    +0.041 A 
ATOM     12 BR   UNL     1       0.992   3.637   1.419  0.00  0.00    -0.048 Br
BRANCH   9  13
ATOM     13  N   UNL     1       3.694  -0.681  -0.106  0.00  0.00    +0.056 N 
ATOM     14  O   UNL     1       3.772  -1.768  -0.650  0.00  0.00    -0.126 OA
ATOM     15  O   UNL     1       4.680  -0.186   0.410  0.00  0.00    -0.126 OA
ENDBRANCH   9  13
ENDBRANCH   4   6
ENDBRANCH   1   2
BRANCH   1  16
ATOM     16  O   UNL     1      -4.793   1.175  -0.284  0.00  0.00    -0.452 OA
BRANCH  16  17
ATOM     17  C   UNL     1      -6.039   1.679  -0.380  0.00  0.00    +0.340 C 
ATOM     18  O   UNL     1      -6.209   2.883  -0.383  0.00  0.00    -0.245 OA
BRANCH  17  28
ATOM     19  C   UNL     1     -11.116   2.234  -1.111  0.00  0.00    +0.001 A 
ATOM     20  C   UNL     1     -10.048   3.124  -1.020  0.00  0.00    +0.001 A 
ATOM     21  C   UNL     1      -8.777   2.674  -0.818  0.00  0.00    +0.009 A 
ATOM     22  C   UNL     1      -8.541   1.300  -0.693  0.00  0.00    -0.004 A 
ATOM     23  C   UNL     1      -9.624   0.392  -0.790  0.00  0.00    -0.017 A 
ATOM     24  C   UNL     1     -10.922   0.891  -0.999  0.00  0.00    +0.008 A 
ATOM     25  C   UNL     1      -9.383  -0.987  -0.670  0.00  0.00    +0.008 A 
ATOM     26  C   UNL     1      -8.121  -1.455  -0.468  0.00  0.00    +0.001 A 
ATOM     27  C   UNL     1      -7.029  -0.603  -0.372  0.00  0.00    +0.015 A 
ATOM     28  C   UNL     1      -7.195   0.772  -0.481  0.00  0.00    +0.067 A 
ENDBRANCH  17  28
ENDBRANCH  16  17
ENDBRANCH   1  16
TORSDOF 6
