REMARK  Name = ZINC35808902
REMARK  14 active torsions:
REMARK  status: ('A' for Active; 'I' for Inactive)
REMARK    1  A    between atoms: C_1  and  C_2
REMARK    2  A    between atoms: C_2  and  C_3
REMARK    3  A    between atoms: C_3  and  C_5
REMARK    4  A    between atoms: C_3  and  C_11
REMARK    5  A    between atoms: N_13  and  C_14
REMARK    6  A    between atoms: N_13  and  C_20
REMARK    7  A    between atoms: C_14  and  C_15
REMARK    8  A    between atoms: C_15  and  C_16
REMARK    9  A    between atoms: C_16  and  O_17
REMARK   10  A    between atoms: O_17  and  C_18
REMARK   11  A    between atoms: C_18  and  C_19
REMARK   12  A    between atoms: C_20  and  C_21
REMARK   13  A    between atoms: C_31  and  C_33
REMARK   14  A    between atoms: C_38  and  C_39
REMARK                            x       y       z     vdW  Elec       q    Type
REMARK                         _______ _______ _______ _____ _____    ______ ____
ROOT
ATOM      1  C   UNL     1      -3.918   1.754   0.547  0.00  0.00    +0.203 C 
ENDROOT
BRANCH   1   2
ATOM      2  C   UNL     1      -4.905   0.772  -0.030  0.00  0.00    +0.234 C 
ATOM      3  O   UNL     1      -5.152  -0.259   0.560  0.00  0.00    -0.274 OA
ATOM      4  N   UNL     1      -5.513   1.039  -1.203  0.00  0.00    -0.289 N 
ATOM      5  C   UNL     1      -5.217   2.282  -1.930  0.00  0.00    +0.114 C 
ATOM      6  C   UNL     1      -4.543   1.914  -3.261  0.00  0.00    +0.062 C 
ATOM      7  C   UNL     1      -5.269   0.755  -3.861  0.00  0.00    -0.003 A 
ATOM      8  C   UNL     1      -6.138  -0.095  -3.249  0.00  0.00    -0.012 A 
ATOM      9  C   UNL     1      -6.678  -1.111  -4.036  0.00  0.00    +0.013 A 
ATOM     10  C   UNL     1      -6.336  -1.210  -5.341  0.00  0.00    +0.046 A 
ATOM     11  S   UNL     1      -5.204   0.159  -5.530  0.00  0.00    -0.101 S 
ATOM     12  C   UNL     1      -6.477   0.089  -1.776  0.00  0.00    +0.138 C 
BRANCH  12  13
ATOM     13  C   UNL     1      -7.874   0.637  -1.643  0.00  0.00    -0.020 A 
ATOM     14  C   UNL     1      -8.495   1.220  -2.732  0.00  0.00    +0.006 A 
ATOM     15  C   UNL     1      -9.776   1.723  -2.610  0.00  0.00    +0.000 A 
ATOM     16  C   UNL     1     -10.438   1.642  -1.399  0.00  0.00    +0.000 A 
ATOM     17  C   UNL     1      -9.818   1.058  -0.310  0.00  0.00    +0.004 A 
ATOM     18  C   UNL     1      -8.538   0.551  -0.433  0.00  0.00    -0.045 A 
ATOM     19  C   UNL     1      -7.864  -0.090   0.752  0.00  0.00    +0.044 C 
ENDBRANCH  12  13
ENDBRANCH   1   2
BRANCH   1  22
ATOM     20  C   UNL     1      -2.360   0.380   1.821  0.00  0.00    +0.223 C 
ATOM     21  O   UNL     1      -1.983  -0.111   2.864  0.00  0.00    -0.275 OA
ATOM     22  N   UNL     1      -3.401   1.236   1.817  0.00  0.00    -0.292 N 
BRANCH  20  23
ATOM     23  C   UNL     1      -1.664   0.034   0.530  0.00  0.00    +0.105 C 
BRANCH  23  24
ATOM     24  C   UNL     1      -1.578  -1.465   0.393  0.00  0.00    -0.036 A 
ATOM     25  C   UNL     1      -0.911  -2.209   1.347  0.00  0.00    +0.004 A 
ATOM     26  C   UNL     1      -0.832  -3.584   1.221  0.00  0.00    +0.000 A 
ATOM     27  C   UNL     1      -1.420  -4.213   0.141  0.00  0.00    +0.000 A 
ATOM     28  C   UNL     1      -2.088  -3.469  -0.814  0.00  0.00    +0.000 A 
ATOM     29  C   UNL     1      -2.171  -2.095  -0.685  0.00  0.00    +0.004 A 
ENDBRANCH  23  24
BRANCH  23  31
ATOM     30  C   UNL     1      -0.343   2.154   0.549  0.00  0.00    +0.005 C 
ATOM     31  C   UNL     1      -0.254   0.627   0.535  0.00  0.00    +0.014 C 
ENDBRANCH  23  31
ENDBRANCH  20  23
BRANCH  22  32
ATOM     32  C   UNL     1      -4.015   1.649   3.081  0.00  0.00    +0.110 C 
BRANCH  32  33
ATOM     33  C   UNL     1      -3.314   2.906   3.602  0.00  0.00    +0.047 C 
BRANCH  33  34
ATOM     34  C   UNL     1      -3.956   3.337   4.922  0.00  0.00    +0.161 C 
BRANCH  34  35
ATOM     35  O   UNL     1      -3.301   4.510   5.409  0.00  0.00    -0.380 OA
BRANCH  35  36
ATOM     36  C   UNL     1      -3.827   4.999   6.645  0.00  0.00    +0.156 C 
ATOM     37  C   UNL     1      -3.055   6.250   7.068  0.00  0.00    +0.034 C 
ENDBRANCH  35  36
ENDBRANCH  34  35
ENDBRANCH  33  34
ENDBRANCH  32  33
ENDBRANCH  22  32
ENDBRANCH   1  22
TORSDOF 11
