REMARK  Name = ZINC40122900
REMARK  10 active torsions:
REMARK  status: ('A' for Active; 'I' for Inactive)
REMARK    1  A    between atoms: C_1  and  C_2
REMARK    2  A    between atoms: C_2  and  C_3
REMARK    3  A    between atoms: C_2  and  N_4
REMARK    4  A    between atoms: C_5  and  C_7
REMARK    5  A    between atoms: C_7  and  N_8
REMARK    6  A    between atoms: C_11  and  N_14
REMARK    7  A    between atoms: N_14  and  C_15
REMARK    8  A    between atoms: C_18  and  S_24
REMARK    9  A    between atoms: C_20  and  N_21
REMARK   10  A    between atoms: S_24  and  N_27
REMARK                            x       y       z     vdW  Elec       q    Type
REMARK                         _______ _______ _______ _____ _____    ______ ____
ROOT
ATOM      1  C   UNL     1      -4.602  -8.774  -1.371  0.00  0.00    +0.058 A 
ATOM      2  C   UNL     1      -5.614  -8.500  -0.459  0.00  0.00    +0.027 A 
ATOM      3  C   UNL     1      -6.767  -9.260  -0.460  0.00  0.00    +0.030 A 
ATOM      4  C   UNL     1      -6.915 -10.293  -1.368  0.00  0.00    +0.108 A 
ATOM      5  C   UNL     1      -5.910 -10.569  -2.277  0.00  0.00    +0.063 A 
ATOM      6  C   UNL     1      -4.756  -9.808  -2.285  0.00  0.00    +0.149 A 
ENDROOT
BRANCH   6   7
ATOM      7  N   UNL     1      -3.684 -10.100  -3.262  0.00  0.00    +0.058 N 
ATOM      8  O   UNL     1      -3.060  -9.193  -3.763  0.00  0.00    -0.126 OA
ATOM      9  O   UNL     1      -3.431 -11.244  -3.559  0.00  0.00    -0.126 OA
ENDBRANCH   6   7
BRANCH   4  10
ATOM     10  S   UNL     1      -8.387 -11.261  -1.366  0.00  0.00    +0.061 S 
ATOM     11  O   UNL     1      -8.052 -12.512  -1.950  0.00  0.00    -0.153 OA
ATOM     12  O   UNL     1      -8.942 -11.153  -0.062  0.00  0.00    -0.153 OA
BRANCH  10  13
ATOM     13  N   UNL     1      -9.456 -10.528  -2.397  0.00  0.00    -0.177 NA
ATOM     14  C   UNL     1     -10.353  -9.525  -1.868  0.00  0.00    +0.109 C 
ATOM     15  C   UNL     1     -11.655 -10.202  -1.373  0.00  0.00    +0.017 C 
ATOM     16  C   UNL     1     -12.454 -10.669  -2.517  0.00  0.00    +0.001 C 
ATOM     17  C   UNL     1     -11.773 -11.737  -3.366  0.00  0.00    +0.001 C 
ATOM     18  C   UNL     1     -10.878 -11.073  -4.383  0.00  0.00    +0.017 C 
ATOM     19  C   UNL     1      -9.449 -10.922  -3.820  0.00  0.00    +0.109 C 
ENDBRANCH  10  13
ENDBRANCH   4  10
BRANCH   1  20
ATOM     20  N   UNL     1      -3.435  -8.006  -1.373  0.00  0.00    -0.339 N 
ATOM     21  H   UNL     1      -2.696  -8.248  -1.953  0.00  0.00    +0.146 HD
BRANCH  20  25
ATOM     22  N   UNL     1      -2.323  -4.149  -0.088  0.00  0.00    +0.385 N 
ATOM     23  C   UNL     1      -1.742  -5.282   0.643  0.00  0.00    -0.076 C 
ATOM     24  C   UNL     1      -1.851  -6.551  -0.204  0.00  0.00    +0.003 C 
ATOM     25  C   UNL     1      -3.327  -6.835  -0.499  0.00  0.00    +0.067 C 
ATOM     26  C   UNL     1      -3.942  -5.618  -1.195  0.00  0.00    +0.003 C 
ATOM     27  C   UNL     1      -3.755  -4.383  -0.311  0.00  0.00    -0.076 C 
ATOM     28  H   UNL     1      -1.857  -4.051  -0.977  0.00  0.00    -0.081 HD
BRANCH  22  29
ATOM     29  C   UNL     1      -2.146  -2.920   0.696  0.00  0.00    +0.019 C 
BRANCH  29  31
ATOM     30  N   UNL     1      -0.272  -1.522   1.503  0.00  0.00    -0.315 N 
ATOM     31  C   UNL     1      -0.676  -2.611   0.821  0.00  0.00    +0.197 C 
ATOM     32  O   UNL     1       0.143  -3.344   0.308  0.00  0.00    -0.278 OA
ATOM     33  H   UNL     1      -0.926  -0.935   1.913  0.00  0.00    +0.149 HD
BRANCH  30  35
ATOM     34  C   UNL     1       1.346   0.278   1.856  0.00  0.00    +0.027 C 
ATOM     35  C   UNL     1       1.157  -1.222   1.625  0.00  0.00    +0.067 C 
ATOM     36  C   UNL     1       1.742  -1.998   2.807  0.00  0.00    +0.027 C 
ENDBRANCH  30  35
ENDBRANCH  29  31
ENDBRANCH  22  29
ENDBRANCH  20  25
ENDBRANCH   1  20
TORSDOF 8
