REMARK  Name = ZINC13805827
REMARK  7 active torsions:
REMARK  status: ('A' for Active; 'I' for Inactive)
REMARK    1  A    between atoms: C_1  and  C_2
REMARK    2  A    between atoms: C_2  and  O_3
REMARK    3  A    between atoms: O_3  and  C_4
REMARK    4  A    between atoms: C_7  and  N_10
REMARK    5  A    between atoms: C_15  and  C_29
REMARK    6  A    between atoms: N_17  and  C_23
REMARK    7  A    between atoms: C_34  and  O_35
REMARK                            x       y       z     vdW  Elec       q    Type
REMARK                         _______ _______ _______ _____ _____    ______ ____
ROOT
ATOM      1  N   UNL     1       1.137  -5.959   1.753  0.00  0.00    -0.208 N 
ATOM      2  C   UNL     1       1.834  -6.526   2.745  0.00  0.00    +0.235 C 
ATOM      3  O   UNL     1       2.444  -5.926   3.604  0.00  0.00    -0.274 OA
ATOM      4  C   UNL     1       1.741  -8.029   2.627  0.00  0.00    +0.146 C 
ATOM      5  C   UNL     1       3.128  -8.600   2.249  0.00  0.00    +0.161 C 
ATOM      6  N   UNL     1       2.809  -9.516   1.127  0.00  0.00    -0.244 N 
ATOM      7  O   UNL     1       1.798  -8.834   0.383  0.00  0.00    -0.257 OA
ATOM      8  C   UNL     1       0.883  -8.239   1.350  0.00  0.00    +0.249 C 
ATOM      9  C   UNL     1       0.551  -6.827   0.920  0.00  0.00    +0.259 C 
ATOM     10  O   UNL     1      -0.137  -6.528  -0.033  0.00  0.00    -0.272 OA
ENDROOT
BRANCH   5  11
ATOM     11  C   UNL     1       4.053  -7.499   1.799  0.00  0.00    +0.022 A 
ATOM     12  C   UNL     1       4.181  -7.210   0.454  0.00  0.00    +0.029 A 
ATOM     13  C   UNL     1       5.031  -6.201   0.039  0.00  0.00    +0.043 A 
ATOM     14  C   UNL     1       5.755  -5.477   0.971  0.00  0.00    +0.043 A 
ATOM     15  C   UNL     1       5.630  -5.762   2.317  0.00  0.00    +0.084 A 
ATOM     16  C   UNL     1       4.773  -6.771   2.735  0.00  0.00    +0.140 A 
ATOM     17 CL   UNL     1       6.539  -4.855   3.486  0.00  0.00    -0.080 Cl
ATOM     18 CL   UNL     1       5.190  -5.841  -1.651  0.00  0.00    -0.083 Cl
BRANCH  16  19
ATOM     19  O   UNL     1       4.644  -7.050   4.059  0.00  0.00    -0.505 OA
ATOM     20  H   UNL     1       5.269  -7.712   4.385  0.00  0.00    +0.292 HD
ENDBRANCH  16  19
ENDBRANCH   5  11
BRANCH   1  24
ATOM     21  C   UNL     1       0.804  -1.825   1.306  0.00  0.00    +0.121 A 
ATOM     22  C   UNL     1       0.220  -2.453   2.396  0.00  0.00    +0.047 A 
ATOM     23  C   UNL     1       0.330  -3.822   2.545  0.00  0.00    +0.027 A 
ATOM     24  C   UNL     1       1.024  -4.568   1.603  0.00  0.00    +0.044 A 
ATOM     25  C   UNL     1       1.608  -3.939   0.512  0.00  0.00    +0.027 A 
ATOM     26  C   UNL     1       1.493  -2.571   0.361  0.00  0.00    +0.047 A 
BRANCH  21  27
ATOM     27  O   UNL     1       0.695  -0.477   1.160  0.00  0.00    -0.492 OA
BRANCH  27  29
ATOM     28  C   UNL     1      -0.045   1.722   1.837  0.00  0.00    +0.048 C 
ATOM     29  C   UNL     1      -0.029   0.228   2.170  0.00  0.00    +0.225 C 
ENDBRANCH  27  29
ENDBRANCH  21  27
ENDBRANCH   1  24
BRANCH   6  30
ATOM     30  C   UNL     1       3.372 -10.765   0.858  0.00  0.00    +0.065 A 
ATOM     31  C   UNL     1       4.349 -11.284   1.698  0.00  0.00    +0.028 A 
ATOM     32  C   UNL     1       4.904 -12.520   1.429  0.00  0.00    +0.002 A 
ATOM     33  C   UNL     1       4.486 -13.241   0.325  0.00  0.00    +0.000 A 
ATOM     34  C   UNL     1       3.513 -12.728  -0.513  0.00  0.00    +0.002 A 
ATOM     35  C   UNL     1       2.951 -11.495  -0.246  0.00  0.00    +0.028 A 
ENDBRANCH   6  30
TORSDOF 6
