REMARK  Name = ZINC63729679
REMARK  10 active torsions:
REMARK  status: ('A' for Active; 'I' for Inactive)
REMARK    1  A    between atoms: C_1  and  C_2
REMARK    2  A    between atoms: C_4  and  C_26
REMARK    3  A    between atoms: N_11  and  C_12
REMARK    4  A    between atoms: C_12  and  N_13
REMARK    5  A    between atoms: N_13  and  C_14
REMARK    6  A    between atoms: N_13  and  C_23
REMARK    7  A    between atoms: C_14  and  C_15
REMARK    8  A    between atoms: C_18  and  C_21
REMARK    9  A    between atoms: C_23  and  C_24
REMARK   10  A    between atoms: C_23  and  C_25
REMARK                            x       y       z     vdW  Elec       q    Type
REMARK                         _______ _______ _______ _____ _____    ______ ____
ROOT
ATOM      1  N   UNL     1      -1.293  -4.910  -1.786  0.00  0.00    +0.397 N 
ATOM      2  H   UNL     1      -1.477  -3.979  -2.127  0.00  0.00    -0.078 HD
ENDROOT
BRANCH   1   3
ATOM      3  C   UNL     1      -0.038  -5.405  -2.368  0.00  0.00    -0.072 C 
ATOM      4  C   UNL     1       1.056  -4.351  -2.195  0.00  0.00    -0.013 C 
ATOM      5  C   UNL     1       0.379  -6.695  -1.659  0.00  0.00    -0.013 C 
ENDBRANCH   1   3
BRANCH   1   6
ATOM      6  C   UNL     1      -1.175  -4.881  -0.322  0.00  0.00    +0.071 C 
BRANCH   6  17
ATOM      7  C   UNL     1      -0.813   1.809   0.318  0.00  0.00    +0.066 C 
ATOM      8  C   UNL     1      -0.774   0.305   0.220  0.00  0.00    +0.044 A 
ATOM      9  C   UNL     1      -1.887  -0.392  -0.256  0.00  0.00    +0.046 A 
ATOM     10  C   UNL     1      -1.835  -1.750  -0.338  0.00  0.00    +0.043 A 
ATOM     11  N   UNL     1      -0.708  -2.388   0.042  0.00  0.00    -0.223 N 
ATOM     12  C   UNL     1       0.366  -1.681   0.504  0.00  0.00    +0.253 A 
ATOM     13  N   UNL     1       0.313  -0.348   0.579  0.00  0.00    -0.216 NA
ATOM     14  N   UNL     1       1.331  -2.551   0.806  0.00  0.00    -0.185 NA
ATOM     15  C   UNL     1       0.915  -3.792   0.555  0.00  0.00    +0.197 A 
ATOM     16  S   UNL     1       1.833  -5.217   0.797  0.00  0.00    -0.010 S 
ATOM     17  N   UNL     1      -0.346  -3.742   0.079  0.00  0.00    -0.271 N 
ATOM     18  C   UNL     1      -3.020  -2.529  -0.847  0.00  0.00    +0.066 C 
ENDBRANCH   6  17
ENDBRANCH   1   6
BRANCH   1  19
ATOM     19  C   UNL     1      -2.396  -5.800  -2.171  0.00  0.00    -0.040 C 
BRANCH  19  20
ATOM     20  C   UNL     1      -2.530  -5.814  -3.672  0.00  0.00    -0.064 A 
ATOM     21  C   UNL     1      -3.241  -4.813  -4.310  0.00  0.00    +0.003 A 
ATOM     22  C   UNL     1      -3.367  -4.819  -5.683  0.00  0.00    +0.019 A 
ATOM     23  C   UNL     1      -2.775  -5.839  -6.431  0.00  0.00    +0.052 A 
ATOM     24  C   UNL     1      -2.058  -6.846  -5.781  0.00  0.00    +0.019 A 
ATOM     25  C   UNL     1      -1.936  -6.824  -4.407  0.00  0.00    +0.003 A 
BRANCH  23  26
ATOM     26  C   UNL     1      -2.902  -5.853  -7.857  0.00  0.00    +0.099 C 
ATOM     27  N   UNL     1      -3.003  -5.863  -8.988  0.00  0.00    -0.191 NA
ENDBRANCH  23  26
ENDBRANCH  19  20
ENDBRANCH   1  19
TORSDOF 6
