REMARK  Name = ZINC28629400
REMARK  8 active torsions:
REMARK  status: ('A' for Active; 'I' for Inactive)
REMARK    1  A    between atoms: C_1  and  C_2
REMARK    2  A    between atoms: C_2  and  C_3
REMARK    3  A    between atoms: C_2  and  C_4
REMARK    4  A    between atoms: C_7  and  C_10
REMARK    5  A    between atoms: C_12  and  C_27
REMARK    6  A    between atoms: C_14  and  C_19
REMARK    7  A    between atoms: C_14  and  O_26
REMARK    8  A    between atoms: C_27  and  C_29
REMARK                            x       y       z     vdW  Elec       q    Type
REMARK                         _______ _______ _______ _____ _____    ______ ____
ROOT
ATOM      1  C   UNL     1       5.463   3.203   0.020  0.00  0.00    +0.120 C 
ATOM      2  C   UNL     1       5.815   3.390  -1.460  0.00  0.00    +0.144 C 
ATOM      3  C   UNL     1       7.238   3.950  -1.555  0.00  0.00    +0.172 C 
ATOM      4  N   UNL     1       7.324   5.181  -0.767  0.00  0.00    -0.267 N 
ATOM      5  C   UNL     1       6.547   5.376   0.308  0.00  0.00    +0.302 C 
ATOM      6  O   UNL     1       6.665   6.412   0.934  0.00  0.00    -0.253 OA
ATOM      7  N   UNL     1       5.644   4.474   0.722  0.00  0.00    -0.292 N 
ATOM      8  H   UNL     1       8.036   5.969  -1.054  0.00  0.00    +0.153 HD
ATOM      9  H   UNL     1       5.034   4.705   1.607  0.00  0.00    +0.151 HD
ENDROOT
BRANCH   3  10
ATOM     10  C   UNL     1       7.568   4.250  -2.995  0.00  0.00    +0.003 A 
ATOM     11  C   UNL     1       8.062   3.251  -3.813  0.00  0.00    +0.009 A 
ATOM     12  C   UNL     1       8.359   3.523  -5.135  0.00  0.00    +0.020 A 
ATOM     13  C   UNL     1       8.174   4.799  -5.636  0.00  0.00    +0.041 A 
ATOM     14  C   UNL     1       7.685   5.800  -4.816  0.00  0.00    +0.020 A 
ATOM     15  C   UNL     1       7.382   5.525  -3.495  0.00  0.00    +0.009 A 
ATOM     16 CL   UNL     1       8.554   5.145  -7.294  0.00  0.00    -0.084 Cl
ENDBRANCH   3  10
BRANCH   1  20
ATOM     17  C   UNL     1       1.395   1.946   0.372  0.00  0.00    -0.045 A 
ATOM     18  C   UNL     1       1.697   3.292   0.274  0.00  0.00    +0.004 A 
ATOM     19  C   UNL     1       3.014   3.699   0.165  0.00  0.00    +0.006 A 
ATOM     20  C   UNL     1       4.027   2.759   0.144  0.00  0.00    -0.026 A 
ATOM     21  C   UNL     1       3.725   1.414   0.236  0.00  0.00    +0.006 A 
ATOM     22  C   UNL     1       2.409   1.007   0.350  0.00  0.00    +0.004 A 
BRANCH  17  24
ATOM     23  C   UNL     1      -0.828   1.976  -0.727  0.00  0.00    +0.012 C 
ATOM     24  C   UNL     1      -0.040   1.503   0.497  0.00  0.00    +0.013 C 
ATOM     25  C   UNL     1      -0.652   2.107   1.762  0.00  0.00    +0.012 C 
ENDBRANCH  17  24
ENDBRANCH   1  20
BRANCH   3  26
ATOM     26  O   UNL     1       8.164   2.990  -1.043  0.00  0.00    -0.367 OA
ATOM     27  H   UNL     1       9.240   3.216  -1.029  0.00  0.00    +0.212 HD
ENDBRANCH   3  26
BRANCH   2  28
ATOM     28  C   UNL     1       4.847   4.357  -2.092  0.00  0.00    +0.245 C 
ATOM     29  O   UNL     1       4.752   5.483  -1.665  0.00  0.00    -0.287 OA
BRANCH  28  30
ATOM     30  C   UNL     1       3.997   3.919  -3.256  0.00  0.00    +0.451 C 
ATOM     31  F   UNL     1       3.253   5.007  -3.726  0.00  0.00    -0.163 F 
ATOM     32  F   UNL     1       4.820   3.440  -4.281  0.00  0.00    -0.163 F 
ATOM     33  F   UNL     1       3.127   2.904  -2.844  0.00  0.00    -0.163 F 
ENDBRANCH  28  30
ENDBRANCH   2  28
TORSDOF 6
