REMARK  Name = ZINC04981632
REMARK  5 active torsions:
REMARK  status: ('A' for Active; 'I' for Inactive)
REMARK    1  A    between atoms: C_1  and  N_40
REMARK    2  A    between atoms: C_9  and  O_22
REMARK    3  A    between atoms: C_11  and  C_14
REMARK    4  A    between atoms: C_17  and  O_21
REMARK    5  A    between atoms: C_18  and  O_20
REMARK                            x       y       z     vdW  Elec       q    Type
REMARK                         _______ _______ _______ _____ _____    ______ ____
ROOT
ATOM      1  C   UNL     1       3.248  -0.321   8.307  0.00  0.00    -0.096 C 
ATOM      2  C   UNL     1       3.393   1.301   6.515  0.00  0.00    -0.074 C 
ATOM      3  C   UNL     1       3.940   1.511   5.100  0.00  0.00    +0.018 C 
ATOM      4  C   UNL     1       3.202   0.567   4.158  0.00  0.00    -0.027 A 
ATOM      5  C   UNL     1       2.520  -0.491   4.659  0.00  0.00    -0.021 A 
ATOM      6  S   UNL     1       1.829  -1.299   3.242  0.00  0.00    -0.080 S 
ATOM      7  C   UNL     1       2.434  -0.262   2.023  0.00  0.00    +0.080 A 
ATOM      8  C   UNL     1       3.165   0.713   2.716  0.00  0.00    +0.067 A 
ATOM      9  C   UNL     1       3.813   1.778   1.908  0.00  0.00    +0.220 C 
ATOM     10  N   UNL     1       3.501   1.857   0.646  0.00  0.00    -0.223 NA
ATOM     11  C   UNL     1       2.489   1.043  -0.016  0.00  0.00    +0.224 C 
ATOM     12  N   UNL     1       2.317  -0.260   0.654  0.00  0.00    -0.313 N 
ATOM     13  C   UNL     1       2.397  -0.868   6.102  0.00  0.00    -0.036 C 
ATOM     14  H   UNL     1       2.130  -1.070   0.155  0.00  0.00    +0.149 HD
ATOM     15  N   UNL     1       3.446  -0.136   6.853  0.00  0.00    +0.381 N 
ATOM     16  H   UNL     1       4.366  -0.507   6.591  0.00  0.00    -0.082 HD
ENDROOT
BRANCH  11  17
ATOM     17  C   UNL     1       1.176   1.782   0.000  0.00  0.00    -0.002 A 
ATOM     18  C   UNL     1      -0.013   1.076   0.008  0.00  0.00    +0.011 A 
ATOM     19  C   UNL     1      -1.220   1.749   0.017  0.00  0.00    +0.049 A 
ATOM     20  C   UNL     1      -1.240   3.135   0.030  0.00  0.00    +0.158 A 
ATOM     21  C   UNL     1      -0.044   3.845   0.023  0.00  0.00    +0.159 A 
ATOM     22  C   UNL     1       1.163   3.164   0.008  0.00  0.00    +0.056 A 
BRANCH  21  23
ATOM     23  O   UNL     1      -0.059   5.205   0.030  0.00  0.00    -0.503 OA
ATOM     24  H   UNL     1      -0.072   5.603  -0.852  0.00  0.00    +0.292 HD
ENDBRANCH  21  23
BRANCH  20  25
ATOM     25  O   UNL     1      -2.427   3.799   0.044  0.00  0.00    -0.503 OA
ATOM     26  H   UNL     1      -2.779   3.995  -0.835  0.00  0.00    +0.292 HD
ENDBRANCH  20  25
ENDBRANCH  11  17
BRANCH   9  27
ATOM     27  O   UNL     1       4.697   2.637   2.466  0.00  0.00    -0.492 OA
ATOM     28  H   UNL     1       5.056   3.288   1.848  0.00  0.00    +0.294 HD
ENDBRANCH   9  27
TORSDOF 4
