REMARK  Name = ZINC08612203
REMARK  8 active torsions:
REMARK  status: ('A' for Active; 'I' for Inactive)
REMARK    1  A    between atoms: C_1  and  C_2
REMARK    2  A    between atoms: C_2  and  O_3
REMARK    3  A    between atoms: O_3  and  C_4
REMARK    4  A    between atoms: C_7  and  C_10
REMARK    5  A    between atoms: C_10  and  C_12
REMARK    6  A    between atoms: C_13  and  N_21
REMARK    7  A    between atoms: C_22  and  C_24
REMARK    8  A    between atoms: C_31  and  C_35
REMARK                            x       y       z     vdW  Elec       q    Type
REMARK                         _______ _______ _______ _____ _____    ______ ____
ROOT
ATOM      1  C   UNL     1       2.194  -6.568   2.661  0.00  0.00    +0.197 A 
ATOM      2  C   UNL     1       2.191  -7.905   3.008  0.00  0.00    +0.091 A 
ATOM      3  C   UNL     1       2.734  -7.964   4.370  0.00  0.00    +0.042 A 
ATOM      4  C   UNL     1       2.984  -9.002   5.270  0.00  0.00    +0.013 A 
ATOM      5  C   UNL     1       3.510  -8.720   6.500  0.00  0.00    +0.001 A 
ATOM      6  C   UNL     1       3.796  -7.410   6.858  0.00  0.00    +0.004 A 
ATOM      7  C   UNL     1       3.555  -6.372   5.984  0.00  0.00    +0.047 A 
ATOM      8  C   UNL     1       3.021  -6.635   4.727  0.00  0.00    +0.138 A 
ATOM      9  O   UNL     1       2.692  -5.843   3.687  0.00  0.00    -0.450 OA
ENDROOT
BRANCH   2  10
ATOM     10  N   UNL     1       1.762  -8.971   2.230  0.00  0.00    -0.275 N 
ATOM     11  C   UNL     1       2.271 -10.202   2.435  0.00  0.00    +0.284 C 
ATOM     12  O   UNL     1       3.153 -10.366   3.255  0.00  0.00    -0.266 OA
ATOM     13  H   UNL     1       1.097  -8.830   1.539  0.00  0.00    +0.155 HD
BRANCH  11  14
ATOM     14  C   UNL     1       1.755 -11.355   1.662  0.00  0.00    +0.194 A 
ATOM     15  C   UNL     1       2.283 -12.582   1.895  0.00  0.00    +0.103 A 
ATOM     16  C   UNL     1       1.775 -13.719   1.109  0.00  0.00    +0.193 A 
ATOM     17  O   UNL     1       2.028 -14.873   1.406  0.00  0.00    -0.287 OA
ATOM     18  C   UNL     1       0.940 -13.377  -0.060  0.00  0.00    +0.064 A 
ATOM     19  C   UNL     1       0.611 -14.328  -1.024  0.00  0.00    +0.015 A 
ATOM     20  C   UNL     1      -0.160 -13.967  -2.095  0.00  0.00    +0.004 A 
ATOM     21  C   UNL     1      -0.613 -12.662  -2.224  0.00  0.00    -0.047 A 
ATOM     22  C   UNL     1      -0.299 -11.709  -1.279  0.00  0.00    +0.050 A 
ATOM     23  C   UNL     1       0.480 -12.054  -0.179  0.00  0.00    +0.140 A 
ATOM     24  O   UNL     1       0.782 -11.142   0.765  0.00  0.00    -0.450 OA
ATOM     25  C   UNL     1      -1.458 -12.282  -3.412  0.00  0.00    +0.044 C 
ENDBRANCH  11  14
ENDBRANCH   2  10
BRANCH   1  26
ATOM     26  C   UNL     1       1.752  -6.040   1.423  0.00  0.00    +0.230 C 
ATOM     27  O   UNL     1       1.237  -6.774   0.597  0.00  0.00    -0.283 OA
BRANCH  26  31
ATOM     28  C   UNL     1       2.216  -1.901   0.589  0.00  0.00    +0.121 A 
ATOM     29  C   UNL     1       1.752  -2.759  -0.400  0.00  0.00    +0.046 A 
ATOM     30  C   UNL     1       1.600  -4.102  -0.134  0.00  0.00    +0.015 A 
ATOM     31  C   UNL     1       1.913  -4.601   1.133  0.00  0.00    +0.026 A 
ATOM     32  C   UNL     1       2.380  -3.735   2.125  0.00  0.00    +0.015 A 
ATOM     33  C   UNL     1       2.534  -2.394   1.849  0.00  0.00    +0.046 A 
BRANCH  28  34
ATOM     34  O   UNL     1       2.365  -0.579   0.323  0.00  0.00    -0.492 OA
BRANCH  34  36
ATOM     35  C   UNL     1       2.252   1.369  -1.103  0.00  0.00    +0.048 C 
ATOM     36  C   UNL     1       2.020  -0.139  -0.992  0.00  0.00    +0.225 C 
ENDBRANCH  34  36
ENDBRANCH  28  34
ENDBRANCH  26  31
ENDBRANCH   1  26
TORSDOF 6
