REMARK  Name = ZINC67205239
REMARK  10 active torsions:
REMARK  status: ('A' for Active; 'I' for Inactive)
REMARK    1  A    between atoms: C_1  and  C_2
REMARK    2  A    between atoms: C_2  and  C_3
REMARK    3  A    between atoms: C_6  and  C_9
REMARK    4  A    between atoms: C_11  and  C_31
REMARK    5  A    between atoms: C_12  and  C_17
REMARK    6  A    between atoms: C_17  and  N_18
REMARK    7  A    between atoms: N_21  and  C_24
REMARK    8  A    between atoms: C_31  and  O_33
REMARK    9  A    between atoms: O_33  and  C_34
REMARK   10  A    between atoms: C_34  and  C_35
REMARK                            x       y       z     vdW  Elec       q    Type
REMARK                         _______ _______ _______ _____ _____    ______ ____
ROOT
ATOM      1  C   UNL     1      -5.410  -1.904   0.070  0.00  0.00    +0.144 C 
ATOM      2  C   UNL     1      -5.298  -3.411  -0.047  0.00  0.00    +0.079 C 
ATOM      3  C   UNL     1      -5.898  -4.006  -1.101  0.00  0.00    +0.038 C 
ATOM      4  N   UNL     1      -6.582  -3.273  -2.028  0.00  0.00    -0.271 N 
ATOM      5  C   UNL     1      -6.712  -1.942  -1.974  0.00  0.00    +0.304 C 
ATOM      6  O   UNL     1      -7.340  -1.377  -2.848  0.00  0.00    -0.252 OA
ATOM      7  N   UNL     1      -6.168  -1.209  -0.984  0.00  0.00    -0.288 N 
ATOM      8  H   UNL     1      -6.996  -3.744  -2.768  0.00  0.00    +0.156 HD
ATOM      9  H   UNL     1      -6.275  -0.245  -0.964  0.00  0.00    +0.151 HD
ENDROOT
BRANCH   1  13
ATOM     10  C   UNL     1      -1.454  -0.293   0.127  0.00  0.00    -0.048 A 
ATOM     11  C   UNL     1      -2.125  -0.521   1.314  0.00  0.00    +0.004 A 
ATOM     12  C   UNL     1      -3.405  -1.042   1.296  0.00  0.00    +0.006 A 
ATOM     13  C   UNL     1      -4.014  -1.335   0.090  0.00  0.00    -0.022 A 
ATOM     14  C   UNL     1      -3.344  -1.107  -1.097  0.00  0.00    +0.006 A 
ATOM     15  C   UNL     1      -2.065  -0.582  -1.079  0.00  0.00    +0.004 A 
BRANCH  10  17
ATOM     16  C   UNL     1      -0.129   1.803   0.110  0.00  0.00    +0.009 C 
ATOM     17  C   UNL     1      -0.058   0.275   0.148  0.00  0.00    +0.032 C 
ENDBRANCH  10  17
ENDBRANCH   1  13
BRANCH   2  18
ATOM     18  C   UNL     1      -4.589  -4.168   0.914  0.00  0.00    +0.339 C 
ATOM     19  O   UNL     1      -5.080  -4.376   2.008  0.00  0.00    -0.245 OA
BRANCH  18  20
ATOM     20  O   UNL     1      -3.368  -4.661   0.619  0.00  0.00    -0.462 OA
BRANCH  20  21
ATOM     21  C   UNL     1      -2.709  -5.417   1.637  0.00  0.00    +0.229 C 
ATOM     22  C   UNL     1      -1.348  -5.888   1.122  0.00  0.00    +0.048 C 
ENDBRANCH  20  21
ENDBRANCH  18  20
ENDBRANCH   2  18
BRANCH   3  23
ATOM     23  C   UNL     1      -5.811  -5.502  -1.255  0.00  0.00    +0.136 C 
BRANCH  23  24
ATOM     24  N   UNL     1      -7.155  -6.085  -1.145  0.00  0.00    -0.294 NA
ATOM     25  C   UNL     1      -7.701  -5.897   0.205  0.00  0.00    +0.103 C 
ATOM     26  C   UNL     1      -9.164  -6.353   0.229  0.00  0.00    +0.120 C 
ATOM     27  N   UNL     1      -9.233  -7.729  -0.284  0.00  0.00    -0.327 N 
ATOM     28  C   UNL     1      -8.586  -8.026  -1.571  0.00  0.00    +0.120 C 
ATOM     29  C   UNL     1      -7.146  -7.504  -1.524  0.00  0.00    +0.103 C 
BRANCH  27  30
ATOM     30  C   UNL     1      -9.895  -8.730   0.433  0.00  0.00    +0.030 A 
ATOM     31  C   UNL     1     -10.604  -8.408   1.584  0.00  0.00    +0.024 A 
ATOM     32  C   UNL     1     -11.258  -9.398   2.290  0.00  0.00    +0.022 A 
ATOM     33  C   UNL     1     -11.206 -10.710   1.854  0.00  0.00    +0.041 A 
ATOM     34  C   UNL     1     -10.500 -11.034   0.708  0.00  0.00    +0.022 A 
ATOM     35  C   UNL     1      -9.850 -10.047  -0.006  0.00  0.00    +0.024 A 
ATOM     36 CL   UNL     1     -12.028 -11.953   2.745  0.00  0.00    -0.084 Cl
ENDBRANCH  27  30
ENDBRANCH  23  24
ENDBRANCH   3  23
TORSDOF 8
