REMARK  Name = ZINC01460219
REMARK  9 active torsions:
REMARK  status: ('A' for Active; 'I' for Inactive)
REMARK    1  A    between atoms: C_1  and  C_2
REMARK    2  A    between atoms: C_2  and  O_3
REMARK    3  A    between atoms: O_3  and  C_4
REMARK    4  A    between atoms: C_4  and  C_6
REMARK    5  A    between atoms: C_7  and  N_34
REMARK    6  A    between atoms: C_11  and  C_33
REMARK    7  A    between atoms: C_26  and  C_31
REMARK    8  A    between atoms: C_26  and  C_32
REMARK    9  A    between atoms: C_28  and  C_30
REMARK                            x       y       z     vdW  Elec       q    Type
REMARK                         _______ _______ _______ _____ _____    ______ ____
ROOT
ATOM      1  C   UNL     1       3.353   0.523  -1.415  0.00  0.00    +0.117 C 
ATOM      2  C   UNL     1       4.685   0.262  -1.347  0.00  0.00    +0.196 C 
ATOM      3  O   UNL     1       5.286  -0.062  -0.191  0.00  0.00    -0.441 OA
ATOM      4  C   UNL     1       4.686   0.213   0.984  0.00  0.00    +0.145 A 
ATOM      5  C   UNL     1       5.435   0.242   2.183  0.00  0.00    +0.088 A 
ATOM      6  C   UNL     1       4.816   0.516   3.345  0.00  0.00    +0.110 A 
ATOM      7  O   UNL     1       3.505   0.767   3.414  0.00  0.00    -0.427 OA
ATOM      8  C   UNL     1       2.761   0.751   2.300  0.00  0.00    +0.345 A 
ATOM      9  O   UNL     1       1.565   0.983   2.374  0.00  0.00    -0.245 OA
ATOM     10  C   UNL     1       3.333   0.474   1.054  0.00  0.00    +0.103 A 
ATOM     11  C   UNL     1       2.490   0.461  -0.188  0.00  0.00    +0.145 C 
ATOM     12  C   UNL     1       1.595  -0.736  -0.221  0.00  0.00    -0.001 A 
ATOM     13  C   UNL     1       1.805  -2.098  -0.248  0.00  0.00    +0.007 A 
ATOM     14  C   UNL     1       0.675  -2.912  -0.276  0.00  0.00    +0.001 A 
ATOM     15  C   UNL     1      -0.614  -2.398  -0.278  0.00  0.00    +0.006 A 
ATOM     16  C   UNL     1      -0.828  -1.041  -0.251  0.00  0.00    -0.023 A 
ATOM     17  C   UNL     1       0.304  -0.226  -0.221  0.00  0.00    +0.045 A 
ATOM     18  N   UNL     1       0.288   1.165  -0.189  0.00  0.00    -0.264 N 
ATOM     19  C   UNL     1       1.540   1.649  -0.172  0.00  0.00    +0.240 C 
ATOM     20  O   UNL     1       1.855   2.820  -0.148  0.00  0.00    -0.274 OA
ATOM     21  C   UNL     1      -0.994   1.893  -0.172  0.00  0.00    +0.037 C 
ATOM     22  C   UNL     1      -2.055   0.990   0.465  0.00  0.00    +0.033 C 
ATOM     23  C   UNL     1      -2.164  -0.359  -0.254  0.00  0.00    +0.020 C 
ATOM     24  C   UNL     1      -3.187  -1.238   0.468  0.00  0.00    +0.012 C 
ATOM     25  C   UNL     1      -0.846   3.177   0.646  0.00  0.00    +0.032 C 
ATOM     26  C   UNL     1      -1.409   2.237  -1.604  0.00  0.00    +0.032 C 
ATOM     27  C   UNL     1       5.629   0.541   4.614  0.00  0.00    +0.086 C 
ENDROOT
BRANCH   2  28
ATOM     28  N   UNL     1       5.434   0.330  -2.491  0.00  0.00    -0.329 N 
ATOM     29  H   UNL     1       5.030   0.635  -3.318  0.00  0.00    +0.145 HD
ATOM     30  H   UNL     1       6.370   0.073  -2.473  0.00  0.00    +0.145 HD
ENDBRANCH   2  28
BRANCH   1  31
ATOM     31  C   UNL     1       2.776   0.856  -2.650  0.00  0.00    +0.342 C 
ATOM     32  O   UNL     1       2.162   0.015  -3.281  0.00  0.00    -0.245 OA
BRANCH  31  33
ATOM     33  O   UNL     1       2.902   2.109  -3.138  0.00  0.00    -0.462 OA
BRANCH  33  35
ATOM     34  C   UNL     1       2.356   3.895  -4.671  0.00  0.00    +0.048 C 
ATOM     35  C   UNL     1       2.192   2.410  -4.341  0.00  0.00    +0.229 C 
ENDBRANCH  33  35
ENDBRANCH  31  33
ENDBRANCH   1  31
TORSDOF 4
