REMARK  Name = ZINC24777969
REMARK  15 active torsions:
REMARK  status: ('A' for Active; 'I' for Inactive)
REMARK    1  A    between atoms: C_1  and  C_2
REMARK    2  A    between atoms: C_2  and  O_3
REMARK    3  A    between atoms: O_3  and  C_4
REMARK    4  A    between atoms: C_7  and  C_13
REMARK    5  A    between atoms: C_9  and  O_10
REMARK    6  A    between atoms: O_10  and  C_11
REMARK    7  A    between atoms: C_11  and  C_12
REMARK    8  A    between atoms: C_13  and  C_15
REMARK    9  A    between atoms: C_13  and  N_18
REMARK   10  A    between atoms: C_15  and  C_16
REMARK   11  A    between atoms: C_15  and  C_17
REMARK   12  A    between atoms: N_18  and  C_19
REMARK   13  A    between atoms: C_19  and  C_20
REMARK   14  A    between atoms: N_22  and  N_23
REMARK   15  A    between atoms: C_29  and  C_32
REMARK                            x       y       z     vdW  Elec       q    Type
REMARK                         _______ _______ _______ _____ _____    ______ ____
ROOT
ATOM      1  N   UNL     1      -3.743   1.982   0.001  0.00  0.00    +0.389 N 
ATOM      2  H   UNL     1      -4.024   3.044   0.046  0.00  0.00    -0.084 HD
ATOM      3  H   UNL     1      -3.135   1.726   0.881  0.00  0.00    -0.084 HD
ENDROOT
BRANCH   1   4
ATOM      4  C   UNL     1      -4.956   1.154  -0.015  0.00  0.00    -0.038 C 
BRANCH   4   8
ATOM      5  C   UNL     1      -8.045   3.200  -2.151  0.00  0.00    +0.162 A 
ATOM      6  C   UNL     1      -7.206   3.901  -1.300  0.00  0.00    +0.049 A 
ATOM      7  C   UNL     1      -6.212   3.236  -0.607  0.00  0.00    +0.006 A 
ATOM      8  C   UNL     1      -6.045   1.873  -0.769  0.00  0.00    -0.057 A 
ATOM      9  C   UNL     1      -6.879   1.167  -1.617  0.00  0.00    +0.051 A 
ATOM     10  C   UNL     1      -7.880   1.827  -2.310  0.00  0.00    +0.162 A 
BRANCH   5  11
ATOM     11  O   UNL     1      -9.027   3.852  -2.830  0.00  0.00    -0.489 OA
BRANCH  11  13
ATOM     12  C   UNL     1     -10.289   5.814  -3.459  0.00  0.00    +0.048 C 
ATOM     13  C   UNL     1      -9.137   5.260  -2.618  0.00  0.00    +0.226 C 
ENDBRANCH  11  13
ENDBRANCH   5  11
BRANCH  10  14
ATOM     14  O   UNL     1      -8.701   1.135  -3.145  0.00  0.00    -0.489 OA
BRANCH  14  15
ATOM     15  C   UNL     1      -8.474  -0.272  -3.259  0.00  0.00    +0.226 C 
ATOM     16  C   UNL     1      -9.486  -0.875  -4.234  0.00  0.00    +0.048 C 
ENDBRANCH  14  15
ENDBRANCH  10  14
ENDBRANCH   4   8
BRANCH   4  17
ATOM     17  C   UNL     1      -5.415   0.895   1.421  0.00  0.00    -0.027 C 
ATOM     18  C   UNL     1      -4.370   0.045   2.146  0.00  0.00    +0.006 C 
ATOM     19  C   UNL     1      -5.583   2.229   2.151  0.00  0.00    +0.006 C 
ENDBRANCH   4  17
ENDBRANCH   1   4
BRANCH   1  20
ATOM     20  C   UNL     1      -2.938   1.759  -1.208  0.00  0.00    +0.017 C 
BRANCH  20  21
ATOM     21  C   UNL     1      -1.727   2.656  -1.177  0.00  0.00    +0.213 C 
ATOM     22  O   UNL     1      -1.552   3.406  -0.241  0.00  0.00    -0.276 OA
ATOM     23  N   UNL     1      -0.839   2.624  -2.190  0.00  0.00    -0.225 N 
ATOM     24  H   UNL     1      -0.995   1.940  -3.038  0.00  0.00    +0.173 HD
BRANCH  23  25
ATOM     25  N   UNL     1       0.284   3.462  -2.164  0.00  0.00    -0.137 N 
ATOM     26  C   UNL     1       1.537   3.042  -1.895  0.00  0.00    +0.263 C 
ATOM     27  O   UNL     1       1.894   1.911  -1.640  0.00  0.00    -0.271 OA
ATOM     28  C   UNL     1       2.404   4.277  -1.980  0.00  0.00    +0.114 C 
ATOM     29  C   UNL     1       3.449   4.118  -3.079  0.00  0.00    +0.035 C 
ATOM     30  C   UNL     1       4.298   5.389  -3.168  0.00  0.00    +0.006 C 
ATOM     31  C   UNL     1       4.982   5.639  -1.823  0.00  0.00    -0.014 C 
ATOM     32  C   UNL     1       3.920   5.821  -0.736  0.00  0.00    +0.006 C 
ATOM     33  C   UNL     1       3.070   4.552  -0.637  0.00  0.00    +0.035 C 
ATOM     34  C   UNL     1       5.840   6.903  -1.914  0.00  0.00    +0.007 C 
ATOM     35  N   UNL     1       1.462   5.351  -2.318  0.00  0.00    -0.284 N 
ATOM     36  C   UNL     1       0.247   4.777  -2.409  0.00  0.00    +0.326 C 
ATOM     37  O   UNL     1      -0.769   5.386  -2.681  0.00  0.00    -0.251 OA
ATOM     38  H   UNL     1       1.824   6.382  -2.441  0.00  0.00    +0.151 HD
ENDBRANCH  23  25
ENDBRANCH  20  21
ENDBRANCH   1  20
TORSDOF 10
