REMARK  Name = ZINC59394431
REMARK  8 active torsions:
REMARK  status: ('A' for Active; 'I' for Inactive)
REMARK    1  A    between atoms: C_3  and  C_11
REMARK    2  A    between atoms: C_5  and  C_7
REMARK    3  A    between atoms: C_11  and  N_12
REMARK    4  A    between atoms: C_15  and  N_18
REMARK    5  A    between atoms: N_18  and  C_19
REMARK    6  A    between atoms: C_22  and  N_29
REMARK    7  A    between atoms: C_24  and  S_25
REMARK    8  A    between atoms: S_25  and  N_28
REMARK                            x       y       z     vdW  Elec       q    Type
REMARK                         _______ _______ _______ _____ _____    ______ ____
ROOT
ATOM      1  N   UNL     1       4.106   2.426   1.360  0.00  0.00    +0.382 N 
ATOM      2  C   UNL     1       3.132   3.295   2.031  0.00  0.00    -0.077 C 
ATOM      3  C   UNL     1       3.537   3.486   3.494  0.00  0.00    +0.003 C 
ATOM      4  C   UNL     1       4.925   4.131   3.554  0.00  0.00    +0.067 C 
ATOM      5  C   UNL     1       5.918   3.254   2.787  0.00  0.00    +0.003 C 
ATOM      6  C   UNL     1       5.425   3.071   1.350  0.00  0.00    -0.077 C 
ATOM      7  H   UNL     1       4.166   1.548   1.852  0.00  0.00    -0.081 HD
ENDROOT
BRANCH   4   8
ATOM      8  N   UNL     1       5.351   4.248   4.950  0.00  0.00    -0.340 N 
ATOM      9  H   UNL     1       4.989   3.647   5.620  0.00  0.00    +0.146 HD
BRANCH   8  10
ATOM     10  C   UNL     1       6.279   5.226   5.318  0.00  0.00    +0.054 A 
ATOM     11  C   UNL     1       6.794   6.091   4.361  0.00  0.00    +0.027 A 
ATOM     12  C   UNL     1       7.711   7.056   4.728  0.00  0.00    +0.034 A 
ATOM     13  C   UNL     1       8.116   7.162   6.046  0.00  0.00    +0.128 A 
ATOM     14  C   UNL     1       7.606   6.302   7.001  0.00  0.00    +0.063 A 
ATOM     15  C   UNL     1       6.684   5.338   6.642  0.00  0.00    +0.128 A 
BRANCH  15  16
ATOM     16  S   UNL     1       6.029   4.247   7.860  0.00  0.00    +0.058 S 
ATOM     17  O   UNL     1       6.148   2.932   7.335  0.00  0.00    -0.153 OA
ATOM     18  O   UNL     1       6.609   4.627   9.100  0.00  0.00    -0.153 OA
BRANCH  16  19
ATOM     19  N   UNL     1       4.408   4.563   7.980  0.00  0.00    -0.203 NA
ATOM     20  H   UNL     1       4.005   5.250   7.425  0.00  0.00    +0.144 HD
ATOM     21  H   UNL     1       3.860   4.062   8.604  0.00  0.00    +0.144 HD
ENDBRANCH  16  19
ENDBRANCH  15  16
BRANCH  13  22
ATOM     22  N   UNL     1       9.099   8.198   6.436  0.00  0.00    +0.056 N 
ATOM     23  O   UNL     1       9.546   8.950   5.602  0.00  0.00    -0.126 OA
ATOM     24  O   UNL     1       9.454   8.291   7.588  0.00  0.00    -0.126 OA
ENDBRANCH  13  22
ENDBRANCH   8  10
ENDBRANCH   4   8
BRANCH   1  25
ATOM     25  C   UNL     1       3.672   2.182  -0.022  0.00  0.00    -0.043 C 
BRANCH  25  28
ATOM     26  C   UNL     1      -0.017   1.378   0.010  0.00  0.00    +0.001 A 
ATOM     27  C   UNL     1       1.171   2.085   0.002  0.00  0.00    +0.002 A 
ATOM     28  C   UNL     1       2.377   1.411  -0.013  0.00  0.00    -0.063 A 
ATOM     29  C   UNL     1       2.396   0.028  -0.020  0.00  0.00    +0.014 A 
ATOM     30  C   UNL     1       1.209  -0.679  -0.012  0.00  0.00    +0.055 A 
ATOM     31  C   UNL     1       0.002  -0.004   0.002  0.00  0.00    +0.012 A 
BRANCH  30  32
ATOM     32  C   UNL     1       1.229  -2.186  -0.020  0.00  0.00    +0.417 C 
ATOM     33  F   UNL     1       1.249  -2.660   1.296  0.00  0.00    -0.166 F 
ATOM     34  F   UNL     1       0.086  -2.664  -0.671  0.00  0.00    -0.166 F 
ATOM     35  F   UNL     1       2.371  -2.633  -0.694  0.00  0.00    -0.166 F 
ENDBRANCH  30  32
ENDBRANCH  25  28
ENDBRANCH   1  25
TORSDOF 8
