REMARK  Name = ZINC63772677
REMARK  12 active torsions:
REMARK  status: ('A' for Active; 'I' for Inactive)
REMARK    1  A    between atoms: C_1  and  C_2
REMARK    2  A    between atoms: C_2  and  O_3
REMARK    3  A    between atoms: O_3  and  C_4
REMARK    4  A    between atoms: C_7  and  S_10
REMARK    5  A    between atoms: S_10  and  N_13
REMARK    6  A    between atoms: N_13  and  C_14
REMARK    7  A    between atoms: C_14  and  C_16
REMARK    8  A    between atoms: C_14  and  C_26
REMARK    9  A    between atoms: C_16  and  C_17
REMARK   10  A    between atoms: N_28  and  C_29
REMARK   11  A    between atoms: C_33  and  C_36
REMARK   12  A    between atoms: C_34  and  C_35
REMARK                            x       y       z     vdW  Elec       q    Type
REMARK                         _______ _______ _______ _____ _____    ______ ____
ROOT
ATOM      1  C   UNL     1      -0.563  -6.329  -4.171  0.00  0.00    +0.166 C 
ENDROOT
BRANCH   1   2
ATOM      2  C   UNL     1      -1.510  -7.241  -4.908  0.00  0.00    +0.236 C 
ATOM      3  O   UNL     1      -1.937  -8.238  -4.366  0.00  0.00    -0.274 OA
ATOM      4  N   UNL     1      -1.882  -6.948  -6.170  0.00  0.00    -0.284 N 
ATOM      5  H   UNL     1      -1.494  -6.184  -6.625  0.00  0.00    +0.155 HD
BRANCH   4   6
ATOM      6  C   UNL     1      -2.828  -7.746  -6.823  0.00  0.00    +0.037 A 
ATOM      7  C   UNL     1      -2.961  -9.086  -6.484  0.00  0.00    +0.023 A 
ATOM      8  C   UNL     1      -3.896  -9.871  -7.131  0.00  0.00    +0.002 A 
ATOM      9  C   UNL     1      -4.698  -9.323  -8.116  0.00  0.00    +0.004 A 
ATOM     10  C   UNL     1      -4.567  -7.989  -8.456  0.00  0.00    -0.046 A 
ATOM     11  C   UNL     1      -3.639  -7.198  -7.808  0.00  0.00    -0.026 A 
ATOM     12  C   UNL     1      -3.503  -5.742  -8.174  0.00  0.00    +0.046 C 
ATOM     13  C   UNL     1      -5.443  -7.397  -9.530  0.00  0.00    +0.044 C 
ENDBRANCH   4   6
ENDBRANCH   1   2
BRANCH   1  14
ATOM     14  N   UNL     1      -0.317  -6.863  -2.829  0.00  0.00    -0.178 NA
ATOM     15  H   UNL     1      -0.927  -6.653  -2.104  0.00  0.00    +0.149 HD
BRANCH  14  16
ATOM     16  S   UNL     1       1.002  -7.824  -2.549  0.00  0.00    +0.059 S 
ATOM     17  O   UNL     1       1.008  -8.812  -3.570  0.00  0.00    -0.153 OA
ATOM     18  O   UNL     1       0.977  -8.156  -1.168  0.00  0.00    -0.153 OA
BRANCH  16  22
ATOM     19  C   UNL     1       4.683  -5.268  -3.200  0.00  0.00    +0.121 A 
ATOM     20  C   UNL     1       4.051  -5.274  -1.965  0.00  0.00    +0.047 A 
ATOM     21  C   UNL     1       2.928  -6.054  -1.769  0.00  0.00    +0.032 A 
ATOM     22  C   UNL     1       2.434  -6.830  -2.802  0.00  0.00    +0.105 A 
ATOM     23  C   UNL     1       3.063  -6.826  -4.034  0.00  0.00    +0.032 A 
ATOM     24  C   UNL     1       4.183  -6.043  -4.237  0.00  0.00    +0.047 A 
BRANCH  19  25
ATOM     25  O   UNL     1       5.788  -4.501  -3.395  0.00  0.00    -0.492 OA
BRANCH  25  27
ATOM     26  C   UNL     1       7.491  -2.938  -2.691  0.00  0.00    +0.048 C 
ATOM     27  C   UNL     1       6.247  -3.730  -2.284  0.00  0.00    +0.225 C 
ENDBRANCH  25  27
ENDBRANCH  19  25
ENDBRANCH  16  22
ENDBRANCH  14  16
ENDBRANCH   1  14
BRANCH   1  28
ATOM     28  C   UNL     1      -1.182  -4.934  -4.059  0.00  0.00    +0.063 C 
BRANCH  28  29
ATOM     29  C   UNL     1      -0.192  -3.996  -3.418  0.00  0.00    -0.040 C 
ATOM     30  C   UNL     1       0.678  -3.175  -4.050  0.00  0.00    -0.001 A 
ATOM     31  C   UNL     1       0.954  -2.921  -5.469  0.00  0.00    +0.010 A 
ATOM     32  C   UNL     1       1.907  -2.022  -5.801  0.00  0.00    +0.001 A 
ATOM     33  C   UNL     1       2.637  -1.327  -4.826  0.00  0.00    +0.002 A 
ATOM     34  C   UNL     1       2.441  -1.507  -3.503  0.00  0.00    +0.026 A 
ATOM     35  C   UNL     1       1.462  -2.429  -3.040  0.00  0.00    +0.043 A 
ATOM     36  N   UNL     1       1.091  -2.775  -1.831  0.00  0.00    -0.380 N 
ATOM     37  C   UNL     1       0.025  -3.776  -1.937  0.00  0.00    +0.144 C 
ATOM     38  H   UNL     1       1.458  -2.424  -1.004  0.00  0.00    +0.160 HD
ENDBRANCH  28  29
ENDBRANCH   1  28
TORSDOF 9
