REMARK  Name = ZINC63270675
REMARK  11 active torsions:
REMARK  status: ('A' for Active; 'I' for Inactive)
REMARK    1  A    between atoms: C_1  and  C_2
REMARK    2  A    between atoms: C_5  and  C_8
REMARK    3  A    between atoms: N_10  and  C_11
REMARK    4  A    between atoms: C_11  and  C_12
REMARK    5  A    between atoms: C_11  and  C_15
REMARK    6  A    between atoms: C_12  and  C_13
REMARK    7  A    between atoms: C_12  and  C_14
REMARK    8  A    between atoms: N_17  and  N_18
REMARK    9  A    between atoms: N_21  and  C_22
REMARK   10  A    between atoms: C_22  and  C_23
REMARK   11  A    between atoms: C_22  and  C_24
REMARK                            x       y       z     vdW  Elec       q    Type
REMARK                         _______ _______ _______ _____ _____    ______ ____
ROOT
ATOM      1  C   UNL     1      -0.320  -6.877   1.165  0.00  0.00    +0.163 C 
ENDROOT
BRANCH   1   4
ATOM      2  C   UNL     1       0.065  -5.036  -0.384  0.00  0.00    +0.245 C 
ATOM      3  O   UNL     1      -0.220  -5.784  -1.299  0.00  0.00    -0.270 OA
ATOM      4  N   UNL     1       0.045  -5.486   0.886  0.00  0.00    -0.300 N 
ATOM      5  H   UNL     1       0.272  -4.888   1.616  0.00  0.00    +0.150 HD
BRANCH   2  10
ATOM      6  C   UNL     1       1.496   0.430  -1.479  0.00  0.00    +0.044 C 
ATOM      7  C   UNL     1       1.121  -1.002  -1.192  0.00  0.00    -0.050 A 
ATOM      8  C   UNL     1       0.798  -1.851  -2.235  0.00  0.00    +0.004 A 
ATOM      9  C   UNL     1       0.454  -3.163  -1.980  0.00  0.00    +0.013 A 
ATOM     10  C   UNL     1       0.433  -3.632  -0.665  0.00  0.00    +0.037 A 
ATOM     11  C   UNL     1       0.760  -2.769   0.382  0.00  0.00    +0.013 A 
ATOM     12  C   UNL     1       1.107  -1.462   0.113  0.00  0.00    +0.004 A 
ENDBRANCH   2  10
ENDBRANCH   1   4
BRANCH   1  13
ATOM     13  C   UNL     1       0.295  -7.305   2.472  0.00  0.00    +0.250 C 
ATOM     14  O   UNL     1       0.683  -6.470   3.262  0.00  0.00    -0.272 OA
ATOM     15  N   UNL     1       0.414  -8.616   2.764  0.00  0.00    -0.232 N 
ATOM     16  H   UNL     1       0.038  -9.281   2.167  0.00  0.00    +0.173 HD
BRANCH  15  17
ATOM     17  N   UNL     1       1.079  -9.016   3.930  0.00  0.00    -0.218 N 
ATOM     18  C   UNL     1       1.197 -10.326   4.222  0.00  0.00    +0.316 C 
ATOM     19  O   UNL     1       1.774 -10.674   5.234  0.00  0.00    -0.251 OA
ATOM     20  N   UNL     1       0.676 -11.252   3.392  0.00  0.00    -0.296 N 
ATOM     21  H   UNL     1       1.454  -8.350   4.528  0.00  0.00    +0.174 HD
ATOM     22  H   UNL     1       0.215 -10.974   2.585  0.00  0.00    +0.151 HD
BRANCH  20  23
ATOM     23  C   UNL     1       0.805 -12.676   3.710  0.00  0.00    +0.068 C 
ATOM     24  C   UNL     1      -0.328 -13.094   4.649  0.00  0.00    +0.027 C 
ATOM     25  C   UNL     1       0.725 -13.495   2.420  0.00  0.00    +0.027 C 
ENDBRANCH  20  23
ENDBRANCH  15  17
ENDBRANCH   1  13
BRANCH   1  26
ATOM     26  C   UNL     1      -1.842  -6.997   1.254  0.00  0.00    +0.012 C 
ATOM     27  C   UNL     1      -2.371  -6.013   2.299  0.00  0.00    +0.009 C 
ATOM     28  C   UNL     1      -2.460  -6.675  -0.109  0.00  0.00    +0.009 C 
ENDBRANCH   1  26
TORSDOF 6
