REMARK  Name = ZINC27020223
REMARK  6 active torsions:
REMARK  status: ('A' for Active; 'I' for Inactive)
REMARK    1  A    between atoms: C_2  and  C_3
REMARK    2  A    between atoms: C_3  and  N_4
REMARK    3  A    between atoms: C_5  and  C_16
REMARK    4  A    between atoms: N_9  and  C_10
REMARK    5  A    between atoms: C_19  and  S_22
REMARK    6  A    between atoms: S_22  and  N_25
REMARK                            x       y       z     vdW  Elec       q    Type
REMARK                         _______ _______ _______ _____ _____    ______ ____
ROOT
ATOM      1  N   UNL     1      -1.269   6.681  -0.059  0.00  0.00    -0.317 N 
ATOM      2  C   UNL     1      -0.081   6.010   0.045  0.00  0.00    +0.058 A 
ATOM      3  C   UNL     1       1.071   6.705   0.137  0.00  0.00    +0.075 A 
ATOM      4  S   UNL     1       0.495   8.394   0.087  0.00  0.00    -0.059 S 
ATOM      5  C   UNL     1      -1.253   8.055  -0.055  0.00  0.00    +0.152 A 
ATOM      6  N   UNL     1      -2.262   8.901  -0.139  0.00  0.00    -0.336 N 
ATOM      7  H   UNL     1      -3.296   8.526  -0.140  0.00  0.00    +0.168 HD
ENDROOT
BRANCH   6   8
ATOM      8  C   UNL     1      -2.022  10.245  -0.226  0.00  0.00    +0.041 A 
ATOM      9  C   UNL     1      -1.834  11.001   0.934  0.00  0.00    +0.025 A 
ATOM     10  C   UNL     1      -1.587  12.354   0.838  0.00  0.00    +0.002 A 
ATOM     11  C   UNL     1      -1.536  12.966  -0.402  0.00  0.00    +0.000 A 
ATOM     12  C   UNL     1      -1.728  12.224  -1.555  0.00  0.00    +0.002 A 
ATOM     13  C   UNL     1      -1.970  10.869  -1.475  0.00  0.00    +0.025 A 
ENDBRANCH   6   8
BRANCH   2  14
ATOM     14  C   UNL     1      -0.060   4.531   0.049  0.00  0.00    -0.001 A 
ATOM     15  C   UNL     1       0.599   3.843   1.069  0.00  0.00    +0.012 A 
ATOM     16  C   UNL     1       0.615   2.463   1.068  0.00  0.00    +0.029 A 
ATOM     17  C   UNL     1      -0.021   1.762   0.059  0.00  0.00    +0.106 A 
ATOM     18  C   UNL     1      -0.672   2.438  -0.958  0.00  0.00    +0.029 A 
ATOM     19  C   UNL     1      -0.699   3.818  -0.966  0.00  0.00    +0.012 A 
BRANCH  17  20
ATOM     20  S   UNL     1       0.003   0.000   0.065  0.00  0.00    +0.061 S 
ATOM     21  O   UNL     1      -0.198  -0.413  -1.280  0.00  0.00    -0.153 OA
ATOM     22  O   UNL     1       1.143  -0.388   0.819  0.00  0.00    -0.153 OA
BRANCH  20  23
ATOM     23  N   UNL     1      -1.324  -0.505   0.918  0.00  0.00    -0.177 NA
ATOM     24  C   UNL     1      -1.365  -0.760   2.365  0.00  0.00    +0.109 C 
ATOM     25  C   UNL     1      -2.794  -1.232   2.706  0.00  0.00    +0.018 C 
ATOM     26  C   UNL     1      -3.315  -1.767   1.346  0.00  0.00    +0.018 C 
ATOM     27  C   UNL     1      -2.657  -0.779   0.351  0.00  0.00    +0.109 C 
ENDBRANCH  20  23
ENDBRANCH  17  20
ENDBRANCH   2  14
BRANCH   1  28
ATOM     28  C   UNL     1      -2.534   5.949  -0.168  0.00  0.00    +0.151 C 
BRANCH  28  30
ATOM     29  C   UNL     1      -4.221   5.931   1.597  0.00  0.00    +0.005 C 
ATOM     30  C   UNL     1      -3.020   5.579   1.210  0.00  0.00    -0.013 C 
ENDBRANCH  28  30
ENDBRANCH   1  28
TORSDOF 6
