REMARK  Name = ZINC39682477
REMARK  9 active torsions:
REMARK  status: ('A' for Active; 'I' for Inactive)
REMARK    1  A    between atoms: C_1  and  S_2
REMARK    2  A    between atoms: S_2  and  C_3
REMARK    3  A    between atoms: C_3  and  C_4
REMARK    4  A    between atoms: C_4  and  C_5
REMARK    5  A    between atoms: C_9  and  C_18
REMARK    6  A    between atoms: N_20  and  C_21
REMARK    7  A    between atoms: C_21  and  C_23
REMARK    8  A    between atoms: C_21  and  C_27
REMARK    9  A    between atoms: C_23  and  C_24
REMARK                            x       y       z     vdW  Elec       q    Type
REMARK                         _______ _______ _______ _____ _____    ______ ____
ROOT
ATOM      1  C   UNL     1       1.399  -2.310   2.285  0.00  0.00    +0.216 C 
ATOM      2  O   UNL     1       1.743  -1.368   2.967  0.00  0.00    -0.276 OA
ATOM      3  N   UNL     1       1.644  -3.568   2.702  0.00  0.00    -0.300 N 
ATOM      4  C   UNL     1       1.309  -4.836   2.011  0.00  0.00    +0.121 C 
ATOM      5  C   UNL     1       2.529  -5.751   2.260  0.00  0.00    +0.100 C 
ATOM      6  C   UNL     1       3.181  -5.197   3.537  0.00  0.00    -0.004 C 
ATOM      7  C   UNL     1       2.317  -3.997   3.952  0.00  0.00    +0.115 C 
ATOM      8  C   UNL     1       4.606  -4.737   3.247  0.00  0.00    -0.010 C 
ATOM      9  C   UNL     1       5.253  -4.244   4.544  0.00  0.00    -0.082 C 
ATOM     10  N   UNL     1       5.259  -5.328   5.533  0.00  0.00    +0.379 N 
ATOM     11  C   UNL     1       3.881  -5.702   5.876  0.00  0.00    -0.082 C 
ATOM     12  C   UNL     1       3.177  -6.256   4.635  0.00  0.00    -0.010 C 
ATOM     13  H   UNL     1       5.737  -6.130   5.149  0.00  0.00    -0.086 HD
ATOM     14  H   UNL     1       5.740  -5.020   6.365  0.00  0.00    -0.086 HD
ENDROOT
BRANCH   5  15
ATOM     15  C   UNL     1       2.082  -7.175   2.470  0.00  0.00    +0.219 C 
ATOM     16  O   UNL     1       1.020  -7.403   3.010  0.00  0.00    -0.275 OA
ATOM     17  N   UNL     1       2.862  -8.194   2.060  0.00  0.00    -0.308 N 
ATOM     18  H   UNL     1       3.742  -8.014   1.694  0.00  0.00    +0.149 HD
BRANCH  17  19
ATOM     19  C   UNL     1       2.381  -9.573   2.166  0.00  0.00    +0.114 C 
BRANCH  19  20
ATOM     20  C   UNL     1       2.729 -10.124   3.525  0.00  0.00    -0.027 A 
ATOM     21  C   UNL     1       3.953  -9.829   4.097  0.00  0.00    +0.005 A 
ATOM     22  C   UNL     1       4.272 -10.334   5.343  0.00  0.00    +0.000 A 
ATOM     23  C   UNL     1       3.368 -11.133   6.018  0.00  0.00    +0.000 A 
ATOM     24  C   UNL     1       2.145 -11.427   5.446  0.00  0.00    +0.000 A 
ATOM     25  C   UNL     1       1.823 -10.919   4.201  0.00  0.00    +0.005 A 
ENDBRANCH  19  20
BRANCH  19  26
ATOM     26  C   UNL     1       3.044 -10.429   1.084  0.00  0.00    +0.152 C 
BRANCH  26  27
ATOM     27  C   UNL     1       2.586  -9.964  -0.275  0.00  0.00    +0.358 C 
ATOM     28  O   UNL     1       1.863  -8.987  -0.373  0.00  0.00    -0.246 OA
ATOM     29  O   UNL     1       2.938 -10.566  -1.275  0.00  0.00    -0.246 OA
ENDBRANCH  26  27
ENDBRANCH  19  26
ENDBRANCH  17  19
ENDBRANCH   5  15
BRANCH   1  30
ATOM     30  C   UNL     1       0.698  -2.074   0.973  0.00  0.00    +0.106 C 
BRANCH  30  31
ATOM     31  C   UNL     1       0.545  -0.570   0.739  0.00  0.00    +0.078 C 
BRANCH  31  33
ATOM     32  C   UNL     1      -0.401   1.521  -0.966  0.00  0.00    +0.084 C 
ATOM     33  S   UNL     1      -0.300  -0.286  -0.841  0.00  0.00    -0.164 S 
ENDBRANCH  31  33
ENDBRANCH  30  31
ENDBRANCH   1  30
TORSDOF 8
