REMARK  Name = ZINC25443685
REMARK  8 active torsions:
REMARK  status: ('A' for Active; 'I' for Inactive)
REMARK    1  A    between atoms: C_1  and  N_2
REMARK    2  A    between atoms: N_2  and  C_3
REMARK    3  A    between atoms: N_2  and  C_4
REMARK    4  A    between atoms: C_4  and  C_11
REMARK    5  A    between atoms: C_11  and  N_12
REMARK    6  A    between atoms: C_13  and  C_15
REMARK    7  A    between atoms: N_20  and  S_22
REMARK    8  A    between atoms: S_22  and  C_25
REMARK                            x       y       z     vdW  Elec       q    Type
REMARK                         _______ _______ _______ _____ _____    ______ ____
ROOT
ATOM      1  N   UNL     1      -4.593   1.522   1.583  0.00  0.00    -0.316 N 
ATOM      2  C   UNL     1      -3.531   1.275   0.792  0.00  0.00    +0.217 C 
ATOM      3  O   UNL     1      -3.676   1.196  -0.410  0.00  0.00    -0.275 OA
ATOM      4  H   UNL     1      -4.462   1.594   2.673  0.00  0.00    +0.149 HD
ENDROOT
BRANCH   2   5
ATOM      5  C   UNL     1      -2.164   1.097   1.400  0.00  0.00    +0.091 C 
ATOM      6  C   UNL     1      -2.185  -0.090   2.366  0.00  0.00    +0.015 C 
ATOM      7  C   UNL     1      -0.803  -0.253   3.011  0.00  0.00    +0.018 C 
ATOM      8  C   UNL     1       0.232  -0.534   1.917  0.00  0.00    +0.109 C 
ATOM      9  N   UNL     1       0.158   0.529   0.906  0.00  0.00    -0.176 NA
ATOM     10  C   UNL     1      -1.142   0.829   0.290  0.00  0.00    +0.122 C 
BRANCH   9  11
ATOM     11  S   UNL     1       1.513   1.375   0.470  0.00  0.00    +0.061 S 
ATOM     12  O   UNL     1       1.066   2.623  -0.043  0.00  0.00    -0.153 OA
ATOM     13  O   UNL     1       2.420   1.280   1.560  0.00  0.00    -0.153 OA
BRANCH  11  14
ATOM     14  C   UNL     1       2.253   0.513  -0.877  0.00  0.00    +0.106 A 
ATOM     15  C   UNL     1       3.198  -0.466  -0.635  0.00  0.00    +0.031 A 
ATOM     16  C   UNL     1       3.776  -1.146  -1.691  0.00  0.00    +0.040 A 
ATOM     17  C   UNL     1       3.415  -0.839  -2.992  0.00  0.00    +0.124 A 
ATOM     18  C   UNL     1       2.472   0.146  -3.233  0.00  0.00    +0.040 A 
ATOM     19  C   UNL     1       1.892   0.821  -2.176  0.00  0.00    +0.031 A 
ATOM     20  F   UNL     1       3.982  -1.499  -4.025  0.00  0.00    -0.205 F 
ENDBRANCH  11  14
ENDBRANCH   9  11
ENDBRANCH   2   5
BRANCH   1  21
ATOM     21  C   UNL     1      -5.923   1.696   0.993  0.00  0.00    +0.092 C 
BRANCH  21  22
ATOM     22  C   UNL     1      -6.963   1.825   2.107  0.00  0.00    -0.050 C 
ATOM     23  C   UNL     1      -8.227   1.114   1.703  0.00  0.00    -0.010 C 
ATOM     24  C   UNL     1      -8.390   1.030   0.171  0.00  0.00    -0.001 C 
ATOM     25  C   UNL     1      -7.995   2.335  -0.547  0.00  0.00    -0.000 C 
ATOM     26  C   UNL     1      -8.488   3.561   0.173  0.00  0.00    -0.000 C 
ATOM     27  C   UNL     1      -7.365   4.069   1.101  0.00  0.00    -0.001 C 
ATOM     28  C   UNL     1      -7.288   3.314   2.343  0.00  0.00    -0.010 C 
BRANCH  22  30
ATOM     29  C   UNL     1      -7.372   1.429   4.460  0.00  0.00    -0.096 C 
ATOM     30  N   UNL     1      -6.438   1.232   3.344  0.00  0.00    +0.381 N 
ATOM     31  C   UNL     1      -6.133  -0.193   3.157  0.00  0.00    -0.096 C 
ATOM     32  H   UNL     1      -5.499   1.748   3.594  0.00  0.00    -0.082 HD
ENDBRANCH  22  30
ENDBRANCH  21  22
ENDBRANCH   1  21
TORSDOF 6
