REMARK  Name = ZINC27985711
REMARK  6 active torsions:
REMARK  status: ('A' for Active; 'I' for Inactive)
REMARK    1  A    between atoms: C_1  and  C_2
REMARK    2  A    between atoms: C_12  and  C_14
REMARK    3  A    between atoms: N_16  and  C_17
REMARK    4  A    between atoms: N_16  and  C_23
REMARK    5  A    between atoms: C_17  and  C_18
REMARK    6  A    between atoms: C_23  and  C_24
REMARK                            x       y       z     vdW  Elec       q    Type
REMARK                         _______ _______ _______ _____ _____    ______ ____
ROOT
ATOM      1  C   UNL     1      -4.827   0.792   0.267  0.00  0.00    +0.283 C 
ATOM      2  O   UNL     1      -5.930   1.297   0.343  0.00  0.00    -0.267 OA
ATOM      3  N   UNL     1      -4.702  -0.505  -0.078  0.00  0.00    -0.285 N 
ENDROOT
BRANCH   1  15
ATOM      4  C   UNL     1       2.410   0.867   1.169  0.00  0.00    +0.045 C 
ATOM      5  C   UNL     1       1.106   1.623   1.139  0.00  0.00    -0.029 A 
ATOM      6  C   UNL     1      -0.067   0.947   0.885  0.00  0.00    +0.051 A 
ATOM      7  C   UNL     1      -1.274   1.638   0.851  0.00  0.00    +0.140 A 
ATOM      8  C   UNL     1      -1.278   3.023   1.089  0.00  0.00    +0.065 A 
ATOM      9  C   UNL     1      -0.084   3.696   1.346  0.00  0.00    +0.035 A 
ATOM     10  C   UNL     1       1.101   2.993   1.369  0.00  0.00    +0.045 A 
ATOM     11 CL   UNL     1       2.593   3.822   1.688  0.00  0.00    -0.083 Cl
ATOM     12  C   UNL     1      -2.568   3.738   1.055  0.00  0.00    +0.193 A 
ATOM     13  O   UNL     1      -2.638   4.939   1.249  0.00  0.00    -0.287 OA
ATOM     14  C   UNL     1      -3.764   2.934   0.759  0.00  0.00    +0.103 A 
ATOM     15  C   UNL     1      -3.620   1.603   0.553  0.00  0.00    +0.194 A 
ATOM     16  O   UNL     1      -2.428   0.990   0.598  0.00  0.00    -0.450 OA
ENDBRANCH   1  15
BRANCH   3  17
ATOM     17  C   UNL     1      -3.379  -1.135  -0.088  0.00  0.00    +0.182 C 
BRANCH  17  18
ATOM     18  C   UNL     1      -3.025  -1.581   1.307  0.00  0.00    +0.122 A 
ATOM     19  C   UNL     1      -3.308  -2.781   1.846  0.00  0.00    +0.046 A 
ATOM     20  C   UNL     1      -2.795  -2.770   3.163  0.00  0.00    +0.041 A 
ATOM     21  C   UNL     1      -2.235  -1.562   3.353  0.00  0.00    +0.195 A 
ATOM     22  O   UNL     1      -2.378  -0.846   2.226  0.00  0.00    -0.466 OA
ENDBRANCH  17  18
ENDBRANCH   3  17
BRANCH   3  23
ATOM     23  C   UNL     1      -5.888  -1.284  -0.443  0.00  0.00    +0.140 C 
BRANCH  23  24
ATOM     24  C   UNL     1      -6.128  -1.171  -1.950  0.00  0.00    +0.136 C 
ATOM     25  C   UNL     1      -7.374  -1.988  -2.344  0.00  0.00    +0.035 C 
ATOM     26  C   UNL     1      -8.318  -0.948  -2.995  0.00  0.00    +0.031 C 
ATOM     27  C   UNL     1      -7.334   0.182  -3.391  0.00  0.00    +0.160 C 
ATOM     28  O   UNL     1      -6.385   0.198  -2.303  0.00  0.00    -0.375 OA
ENDBRANCH  23  24
ENDBRANCH   3  23
TORSDOF 5
