REMARK  Name = ZINC64050491
REMARK  10 active torsions:
REMARK  status: ('A' for Active; 'I' for Inactive)
REMARK    1  A    between atoms: C_1  and  C_2
REMARK    2  A    between atoms: C_2  and  N_3
REMARK    3  A    between atoms: C_7  and  C_16
REMARK    4  A    between atoms: C_11  and  C_15
REMARK    5  A    between atoms: C_16  and  O_18
REMARK    6  A    between atoms: O_18  and  C_19
REMARK    7  A    between atoms: C_19  and  C_21
REMARK    8  A    between atoms: C_19  and  C_22
REMARK    9  A    between atoms: C_22  and  C_24
REMARK   10  A    between atoms: C_32  and  C_34
REMARK                            x       y       z     vdW  Elec       q    Type
REMARK                         _______ _______ _______ _____ _____    ______ ____
ROOT
ATOM      1  C   UNL     1      -2.261  -1.437  -5.909  0.00  0.00    +0.340 C 
ATOM      2  O   UNL     1      -1.761  -2.087  -6.806  0.00  0.00    -0.245 OA
ENDROOT
BRANCH   1   7
ATOM      3  N   UNL     1       0.666  -0.415  -1.188  0.00  0.00    -0.268 N 
ATOM      4  C   UNL     1      -0.063  -0.658  -2.353  0.00  0.00    +0.057 A 
ATOM      5  C   UNL     1      -1.355  -0.169  -2.493  0.00  0.00    +0.026 A 
ATOM      6  C   UNL     1      -2.068  -0.420  -3.646  0.00  0.00    +0.017 A 
ATOM      7  C   UNL     1      -1.494  -1.167  -4.678  0.00  0.00    +0.061 A 
ATOM      8  C   UNL     1      -0.192  -1.660  -4.541  0.00  0.00    +0.039 A 
ATOM      9  C   UNL     1       0.516  -1.402  -3.386  0.00  0.00    +0.050 A 
ATOM     10  N   UNL     1       1.828  -1.873  -3.224  0.00  0.00    -0.332 N 
ATOM     11  C   UNL     1       2.739  -1.089  -2.376  0.00  0.00    +0.154 C 
ATOM     12  C   UNL     1       1.995  -0.625  -1.151  0.00  0.00    +0.240 C 
ATOM     13  O   UNL     1       2.601  -0.442  -0.116  0.00  0.00    -0.273 OA
ATOM     14  C   UNL     1       3.244   0.127  -3.156  0.00  0.00    +0.038 C 
ATOM     15  H   UNL     1       2.124  -2.689  -3.656  0.00  0.00    +0.147 HD
BRANCH   3  17
ATOM     16  C   UNL     1      -0.036   1.609  -0.010  0.00  0.00    +0.025 C 
ATOM     17  C   UNL     1      -0.023   0.080   0.006  0.00  0.00    +0.110 C 
ENDBRANCH   3  17
ENDBRANCH   1   7
BRANCH   1  18
ATOM     18  O   UNL     1      -3.515  -0.962  -6.039  0.00  0.00    -0.450 OA
BRANCH  18  19
ATOM     19  C   UNL     1      -4.199  -1.261  -7.257  0.00  0.00    +0.244 C 
ATOM     20  C   UNL     1      -3.924  -0.157  -8.281  0.00  0.00    +0.061 C 
BRANCH  19  21
ATOM     21  C   UNL     1      -5.681  -1.345  -6.995  0.00  0.00    +0.202 C 
ATOM     22  O   UNL     1      -6.138  -0.916  -5.954  0.00  0.00    -0.288 OA
BRANCH  21  23
ATOM     23  C   UNL     1      -6.537  -1.921  -7.957  0.00  0.00    +0.030 C 
ATOM     24  C   UNL     1      -6.171  -2.528  -9.145  0.00  0.00    +0.007 A 
ATOM     25  C   UNL     1      -4.919  -2.763  -9.760  0.00  0.00    +0.010 A 
ATOM     26  C   UNL     1      -4.854  -3.394 -10.954  0.00  0.00    +0.001 A 
ATOM     27  C   UNL     1      -5.998  -3.841 -11.634  0.00  0.00    +0.002 A 
ATOM     28  C   UNL     1      -7.240  -3.666 -11.133  0.00  0.00    +0.026 A 
ATOM     29  C   UNL     1      -7.401  -2.987  -9.837  0.00  0.00    +0.043 A 
ATOM     30  N   UNL     1      -8.457  -2.691  -9.135  0.00  0.00    -0.377 N 
ATOM     31  C   UNL     1      -8.046  -2.011  -7.903  0.00  0.00    +0.111 C 
ATOM     32  C   UNL     1      -8.655  -0.608  -7.851  0.00  0.00    +0.035 C 
ATOM     33  H   UNL     1      -9.372  -2.893  -9.386  0.00  0.00    +0.160 HD
ENDBRANCH  21  23
ENDBRANCH  19  21
ENDBRANCH  18  19
ENDBRANCH   1  18
TORSDOF 6
