REMARK  Name = ZINC16067643
REMARK  8 active torsions:
REMARK  status: ('A' for Active; 'I' for Inactive)
REMARK    1  A    between atoms: C_1  and  C_2
REMARK    2  A    between atoms: C_2  and  C_4
REMARK    3  A    between atoms: C_2  and  S_19
REMARK    4  A    between atoms: C_16  and  C_17
REMARK    5  A    between atoms: C_16  and  C_18
REMARK    6  A    between atoms: S_19  and  C_20
REMARK    7  A    between atoms: C_23  and  C_26
REMARK    8  A    between atoms: N_24  and  N_25
REMARK                            x       y       z     vdW  Elec       q    Type
REMARK                         _______ _______ _______ _____ _____    ______ ____
ROOT
ATOM      1  C   UNL     1       0.191  -1.780   3.922  0.00  0.00    +0.029 C 
ATOM      2  C   UNL     1       1.264  -0.738   3.597  0.00  0.00    +0.137 C 
ENDROOT
BRANCH   2   3
ATOM      3  C   UNL     1       0.786   0.138   2.467  0.00  0.00    +0.234 C 
ATOM      4  O   UNL     1       0.868  -0.252   1.321  0.00  0.00    -0.274 OA
ATOM      5  N   UNL     1       0.269   1.355   2.730  0.00  0.00    -0.255 N 
ATOM      6  C   UNL     1       0.170   1.830   4.047  0.00  0.00    +0.059 A 
ATOM      7  C   UNL     1       0.007   0.961   5.111  0.00  0.00    +0.025 A 
ATOM      8  C   UNL     1      -0.091   1.461   6.397  0.00  0.00    +0.002 A 
ATOM      9  C   UNL     1      -0.027   2.824   6.620  0.00  0.00    +0.002 A 
ATOM     10  C   UNL     1       0.138   3.699   5.561  0.00  0.00    +0.025 A 
ATOM     11  C   UNL     1       0.239   3.207   4.269  0.00  0.00    +0.055 A 
ATOM     12  N   UNL     1       0.411   4.073   3.185  0.00  0.00    -0.282 N 
ATOM     13  C   UNL     1       0.233   3.640   1.923  0.00  0.00    +0.241 C 
ATOM     14  O   UNL     1       0.430   4.398   0.996  0.00  0.00    -0.273 OA
ATOM     15  C   UNL     1      -0.209   2.226   1.647  0.00  0.00    +0.113 C 
ATOM     16  C   UNL     1       0.379   1.757   0.315  0.00  0.00    +0.042 C 
ATOM     17  C   UNL     1      -1.737   2.169   1.581  0.00  0.00    +0.042 C 
ATOM     18  H   UNL     1       0.662   4.997   3.344  0.00  0.00    +0.155 HD
ENDBRANCH   2   3
BRANCH   2  19
ATOM     19  S   UNL     1       2.791  -1.577   3.106  0.00  0.00    -0.072 S 
BRANCH  19  20
ATOM     20  C   UNL     1       3.195  -2.386   4.618  0.00  0.00    +0.209 A 
ATOM     21  N   UNL     1       2.510  -2.333   5.738  0.00  0.00    -0.121 NA
ATOM     22  N   UNL     1       3.087  -3.040   6.643  0.00  0.00    -0.127 NA
ATOM     23  C   UNL     1       4.176  -3.589   6.156  0.00  0.00    +0.183 A 
ATOM     24  N   UNL     1       4.275  -3.191   4.842  0.00  0.00    -0.224 N 
BRANCH  23  25
ATOM     25  C   UNL     1       5.114  -4.471   6.880  0.00  0.00    +0.039 A 
ATOM     26  C   UNL     1       6.490  -4.254   6.793  0.00  0.00    +0.014 A 
ATOM     27  C   UNL     1       7.361  -5.077   7.476  0.00  0.00    +0.021 A 
ATOM     28  C   UNL     1       6.873  -6.126   8.238  0.00  0.00    +0.042 A 
ATOM     29  C   UNL     1       5.510  -6.351   8.324  0.00  0.00    +0.040 A 
ATOM     30  C   UNL     1       4.628  -5.530   7.650  0.00  0.00    +0.053 A 
ATOM     31 CL   UNL     1       2.919  -5.814   7.759  0.00  0.00    -0.083 Cl
ATOM     32 CL   UNL     1       7.976  -7.163   9.088  0.00  0.00    -0.083 Cl
ENDBRANCH  23  25
BRANCH  24  33
ATOM     33  N   UNL     1       5.252  -3.530   3.949  0.00  0.00    -0.295 N 
ATOM     34  H   UNL     1       6.051  -2.919   4.038  0.00  0.00    +0.163 HD
ATOM     35  H   UNL     1       5.522  -4.496   4.057  0.00  0.00    +0.163 HD
ENDBRANCH  24  33
ENDBRANCH  19  20
ENDBRANCH   2  19
TORSDOF 5
