REMARK  Name = ZINC51170978
REMARK  7 active torsions:
REMARK  status: ('A' for Active; 'I' for Inactive)
REMARK    1  A    between atoms: C_1  and  C_2
REMARK    2  A    between atoms: C_4  and  C_19
REMARK    3  A    between atoms: C_5  and  C_9
REMARK    4  A    between atoms: C_6  and  C_8
REMARK    5  A    between atoms: C_13  and  C_15
REMARK    6  A    between atoms: C_15  and  O_17
REMARK    7  A    between atoms: O_17  and  C_18
REMARK                            x       y       z     vdW  Elec       q    Type
REMARK                         _______ _______ _______ _____ _____    ______ ____
ROOT
ATOM      1  C   UNL     1       1.264  -3.966   0.134  0.00  0.00    +0.140 A 
ATOM      2  N   UNL     1       1.490  -4.681   1.278  0.00  0.00    -0.344 N 
ATOM      3  H   UNL     1       1.259  -4.407   2.179  0.00  0.00    +0.167 HD
ATOM      4  C   UNL     1       2.092  -5.839   0.922  0.00  0.00    +0.119 A 
ATOM      5  C   UNL     1       2.227  -5.819  -0.438  0.00  0.00    +0.166 A 
ATOM      6  N   UNL     1       1.704  -4.658  -0.888  0.00  0.00    -0.221 NA
ENDROOT
BRANCH   1  11
ATOM      7  C   UNL     1      -1.229   1.214  -0.147  0.00  0.00    +0.044 C 
ATOM      8  C   UNL     1      -0.576  -0.142  -0.073  0.00  0.00    -0.050 A 
ATOM      9  C   UNL     1       0.052  -0.665  -1.189  0.00  0.00    +0.007 A 
ATOM     10  C   UNL     1       0.652  -1.907  -1.128  0.00  0.00    -0.039 A 
ATOM     11  C   UNL     1       0.624  -2.634   0.062  0.00  0.00    +0.023 A 
ATOM     12  C   UNL     1      -0.012  -2.100   1.184  0.00  0.00    -0.039 A 
ATOM     13  C   UNL     1      -0.603  -0.856   1.112  0.00  0.00    +0.007 A 
ATOM     14  C   UNL     1      -0.047  -2.880   2.474  0.00  0.00    +0.044 C 
ATOM     15  C   UNL     1       1.335  -2.476  -2.345  0.00  0.00    +0.044 C 
ENDBRANCH   1  11
BRANCH   5  16
ATOM     16  C   UNL     1       2.830  -6.876  -1.265  0.00  0.00    +0.359 C 
ATOM     17  O   UNL     1       3.265  -7.883  -0.742  0.00  0.00    -0.243 OA
BRANCH  16  18
ATOM     18  O   UNL     1       2.901  -6.727  -2.603  0.00  0.00    -0.463 OA
ATOM     19  C   UNL     1       3.499  -7.793  -3.343  0.00  0.00    +0.280 C 
ENDBRANCH  16  18
ENDBRANCH   5  16
TORSDOF 3
