REMARK  Name = ZINC62008800
REMARK  4 active torsions:
REMARK  status: ('A' for Active; 'I' for Inactive)
REMARK    1  A    between atoms: C_6  and  N_7
REMARK    2  A    between atoms: C_8  and  C_10
REMARK    3  A    between atoms: N_12  and  C_13
REMARK    4  A    between atoms: C_18  and  C_19
REMARK                            x       y       z     vdW  Elec       q    Type
REMARK                         _______ _______ _______ _____ _____    ______ ____
ROOT
ATOM      1  N   UNL     1      -1.199  -0.720   0.009  0.00  0.00    -0.278 N 
ATOM      2  C   UNL     1      -2.372  -0.066   0.125  0.00  0.00    +0.303 C 
ATOM      3  O   UNL     1      -2.393   1.147   0.132  0.00  0.00    -0.265 OA
ATOM      4  H   UNL     1      -1.188  -1.686  -0.073  0.00  0.00    +0.155 HD
ENDROOT
BRANCH   1  10
ATOM      5  C   UNL     1       0.122   1.155   0.764  0.00  0.00    +0.025 A 
ATOM      6  C   UNL     1       1.308   1.861   0.763  0.00  0.00    +0.025 A 
ATOM      7  C   UNL     1       2.382   1.413   0.005  0.00  0.00    +0.037 A 
ATOM      8  C   UNL     1       2.262   0.253  -0.751  0.00  0.00    -0.024 A 
ATOM      9  C   UNL     1       1.077  -0.453  -0.751  0.00  0.00    +0.028 A 
ATOM     10  C   UNL     1       0.002  -0.004   0.008  0.00  0.00    +0.034 A 
ATOM     11  C   UNL     1       3.430  -0.230  -1.572  0.00  0.00    +0.046 C 
ATOM     12  C   UNL     1       4.216   0.970  -2.099  0.00  0.00    +0.101 C 
ATOM     13  C   UNL     1       4.488   1.938  -0.978  0.00  0.00    +0.218 C 
ATOM     14  O   UNL     1       5.532   2.554  -0.958  0.00  0.00    -0.275 OA
ATOM     15  N   UNL     1       3.586   2.127   0.002  0.00  0.00    -0.285 N 
ATOM     16  H   UNL     1       3.770   2.763   0.711  0.00  0.00    +0.155 HD
ENDBRANCH   1  10
BRANCH   2  17
ATOM     17  C   UNL     1      -3.647  -0.836   0.245  0.00  0.00    +0.300 C 
ATOM     18  O   UNL     1      -3.626  -2.049   0.238  0.00  0.00    -0.265 OA
ATOM     19  N   UNL     1      -4.820  -0.182   0.361  0.00  0.00    -0.304 N 
ATOM     20  H   UNL     1      -4.836   0.788   0.367  0.00  0.00    +0.149 HD
BRANCH  19  21
ATOM     21  C   UNL     1      -6.070  -0.937   0.479  0.00  0.00    +0.085 C 
ATOM     22  C   UNL     1      -6.302  -1.313   1.944  0.00  0.00    +0.023 C 
ATOM     23  C   UNL     1      -6.393  -0.041   2.789  0.00  0.00    +0.002 C 
ATOM     24  C   UNL     1      -7.557   0.820   2.292  0.00  0.00    +0.001 C 
ATOM     25  C   UNL     1      -7.324   1.196   0.828  0.00  0.00    +0.014 C 
ATOM     26  C   UNL     1      -7.234  -0.076  -0.017  0.00  0.00    +0.113 C 
BRANCH  26  27
ATOM     27  C   UNL     1      -7.001   0.300  -1.482  0.00  0.00    +0.395 C 
ATOM     28  F   UNL     1      -6.918  -0.863  -2.255  0.00  0.00    -0.170 F 
ATOM     29  F   UNL     1      -8.065   1.087  -1.936  0.00  0.00    -0.170 F 
ATOM     30  F   UNL     1      -5.807   1.021  -1.595  0.00  0.00    -0.170 F 
ENDBRANCH  26  27
ENDBRANCH  19  21
ENDBRANCH   2  17
TORSDOF 4
