REMARK  Name = ZINC04501942
REMARK  5 active torsions:
REMARK  status: ('A' for Active; 'I' for Inactive)
REMARK    1  A    between atoms: C_1  and  C_2
REMARK    2  A    between atoms: C_3  and  C_27
REMARK    3  A    between atoms: C_10  and  C_13
REMARK    4  A    between atoms: C_16  and  C_18
REMARK    5  A    between atoms: C_21  and  N_24
REMARK                            x       y       z     vdW  Elec       q    Type
REMARK                         _______ _______ _______ _____ _____    ______ ____
ROOT
ATOM      1  C   UNL     1      -2.854   4.971   0.936  0.00  0.00    +0.045 C 
ATOM      2  C   UNL     1      -2.598   3.568   0.447  0.00  0.00    -0.027 A 
ATOM      3  C   UNL     1      -3.589   2.819  -0.072  0.00  0.00    -0.008 A 
ATOM      4  S   UNL     1      -2.775   1.286  -0.485  0.00  0.00    -0.078 S 
ATOM      5  C   UNL     1      -1.187   1.670   0.017  0.00  0.00    +0.080 A 
ATOM      6  C   UNL     1      -1.281   2.981   0.519  0.00  0.00    +0.068 A 
ATOM      7  C   UNL     1      -0.045   3.599   1.052  0.00  0.00    +0.248 C 
ATOM      8  O   UNL     1      -0.074   4.657   1.653  0.00  0.00    -0.270 OA
ATOM      9  N   UNL     1       1.115   2.940   0.845  0.00  0.00    -0.287 N 
ATOM     10  C   UNL     1       1.233   1.757  -0.000  0.00  0.00    +0.227 C 
ATOM     11  N   UNL     1      -0.011   0.966   0.007  0.00  0.00    -0.314 N 
ATOM     12  C   UNL     1      -5.038   3.187  -0.258  0.00  0.00    +0.052 C 
ATOM     13  H   UNL     1       1.914   3.272   1.283  0.00  0.00    +0.151 HD
ATOM     14  H   UNL     1       0.002  -0.004   0.002  0.00  0.00    +0.149 HD
ENDROOT
BRANCH  10  15
ATOM     15  C   UNL     1       1.534   2.188  -1.412  0.00  0.00    +0.144 A 
ATOM     16  C   UNL     1       2.182   3.315  -1.768  0.00  0.00    +0.049 A 
ATOM     17  C   UNL     1       2.248   3.326  -3.176  0.00  0.00    +0.050 A 
ATOM     18  C   UNL     1       1.631   2.193  -3.606  0.00  0.00    +0.135 A 
ATOM     19  O   UNL     1       1.208   1.511  -2.525  0.00  0.00    -0.456 OA
BRANCH  18  20
ATOM     20  C   UNL     1       1.459   1.780  -5.014  0.00  0.00    +0.017 A 
ATOM     21  C   UNL     1       1.948   2.585  -6.045  0.00  0.00    +0.014 A 
ATOM     22  C   UNL     1       1.789   2.191  -7.358  0.00  0.00    +0.033 A 
ATOM     23  C   UNL     1       1.137   1.006  -7.654  0.00  0.00    +0.126 A 
ATOM     24  C   UNL     1       0.646   0.207  -6.637  0.00  0.00    +0.033 A 
ATOM     25  C   UNL     1       0.802   0.587  -5.320  0.00  0.00    +0.014 A 
BRANCH  23  26
ATOM     26  N   UNL     1       0.966   0.593  -9.065  0.00  0.00    +0.056 N 
ATOM     27  O   UNL     1       0.393  -0.450  -9.328  0.00  0.00    -0.126 OA
ATOM     28  O   UNL     1       1.398   1.294  -9.962  0.00  0.00    -0.126 OA
ENDBRANCH  23  26
ENDBRANCH  18  20
ENDBRANCH  10  15
TORSDOF 3
