REMARK  Name = ZINC65247458
REMARK  6 active torsions:
REMARK  status: ('A' for Active; 'I' for Inactive)
REMARK    1  A    between atoms: C_1  and  C_2
REMARK    2  A    between atoms: C_6  and  N_9
REMARK    3  A    between atoms: C_7  and  C_8
REMARK    4  A    between atoms: C_10  and  C_12
REMARK    5  A    between atoms: C_12  and  C_13
REMARK    6  A    between atoms: C_23  and  C_25
REMARK                            x       y       z     vdW  Elec       q    Type
REMARK                         _______ _______ _______ _____ _____    ______ ____
ROOT
ATOM      1  C   UNL     1      -0.211  -6.399   3.398  0.00  0.00    +0.222 C 
ATOM      2  N   UNL     1      -1.416  -6.693   2.601  0.00  0.00    -0.174 NA
ATOM      3  N   UNL     1      -2.493  -7.032   3.097  0.00  0.00    -0.082 NA
ATOM      4  C   UNL     1      -2.705  -7.139   4.434  0.00  0.00    +0.276 C 
ATOM      5  O   UNL     1      -3.737  -7.580   4.882  0.00  0.00    -0.270 OA
ATOM      6  C   UNL     1      -1.589  -6.680   5.322  0.00  0.00    +0.192 C 
ATOM      7  N   UNL     1      -0.332  -7.133   4.639  0.00  0.00    -0.187 NA
ATOM      8  N   UNL     1       0.561  -7.017   5.648  0.00  0.00    -0.275 N 
ATOM      9  C   UNL     1      -0.099  -7.559   6.778  0.00  0.00    +0.047 C 
ATOM     10  C   UNL     1      -1.453  -7.379   6.647  0.00  0.00    +0.027 C 
ATOM     11  H   UNL     1       1.456  -6.646   5.607  0.00  0.00    +0.167 HD
ENDROOT
BRANCH   9  12
ATOM     12  C   UNL     1       0.570  -8.204   7.932  0.00  0.00    -0.003 A 
ATOM     13  C   UNL     1      -0.189  -8.707   8.988  0.00  0.00    +0.010 A 
ATOM     14  C   UNL     1       0.439  -9.307  10.060  0.00  0.00    +0.001 A 
ATOM     15  C   UNL     1       1.819  -9.410  10.088  0.00  0.00    +0.000 A 
ATOM     16  C   UNL     1       2.576  -8.912   9.043  0.00  0.00    +0.001 A 
ATOM     17  C   UNL     1       1.959  -8.316   7.963  0.00  0.00    +0.010 A 
ENDBRANCH   9  12
BRANCH   1  18
ATOM     18  C   UNL     1      -0.129  -4.898   3.686  0.00  0.00    +0.142 C 
BRANCH  18  20
ATOM     19  N   UNL     1       0.052  -2.797   2.393  0.00  0.00    -0.285 N 
ATOM     20  C   UNL     1      -0.031  -4.143   2.385  0.00  0.00    +0.221 C 
ATOM     21  O   UNL     1      -0.028  -4.745   1.333  0.00  0.00    -0.275 OA
ATOM     22  H   UNL     1       0.130  -2.321   3.234  0.00  0.00    +0.155 HD
BRANCH  19  28
ATOM     23  C   UNL     1       1.206   1.236  -0.172  0.00  0.00    +0.044 C 
ATOM     24  C   UNL     1       0.577  -0.131  -0.084  0.00  0.00    -0.046 A 
ATOM     25  C   UNL     1      -0.027  -0.686  -1.198  0.00  0.00    +0.004 A 
ATOM     26  C   UNL     1      -0.605  -1.940  -1.122  0.00  0.00    +0.002 A 
ATOM     27  C   UNL     1      -0.580  -2.642   0.067  0.00  0.00    +0.023 A 
ATOM     28  C   UNL     1       0.026  -2.088   1.187  0.00  0.00    +0.037 A 
ATOM     29  C   UNL     1       0.610  -0.831   1.106  0.00  0.00    -0.026 A 
ATOM     30  C   UNL     1       1.274  -0.228   2.317  0.00  0.00    +0.046 C 
ENDBRANCH  19  28
ENDBRANCH  18  20
ENDBRANCH   1  18
TORSDOF 4
