REMARK  Name = ZINC59790841
REMARK  11 active torsions:
REMARK  status: ('A' for Active; 'I' for Inactive)
REMARK    1  A    between atoms: C_1  and  C_2
REMARK    2  A    between atoms: C_2  and  C_3
REMARK    3  A    between atoms: C_3  and  C_5
REMARK    4  A    between atoms: C_3  and  S_6
REMARK    5  A    between atoms: S_6  and  C_7
REMARK    6  A    between atoms: C_13  and  C_15
REMARK    7  A    between atoms: C_15  and  S_16
REMARK    8  A    between atoms: S_16  and  C_17
REMARK    9  A    between atoms: C_20  and  C_23
REMARK   10  A    between atoms: N_21  and  N_22
REMARK   11  A    between atoms: C_26  and  N_29
REMARK                            x       y       z     vdW  Elec       q    Type
REMARK                         _______ _______ _______ _____ _____    ______ ____
ROOT
ATOM      1  C   UNL     1     -12.353  -3.617  -0.198  0.00  0.00    +0.209 A 
ATOM      2  N   UNL     1     -12.955  -3.279   0.921  0.00  0.00    -0.121 NA
ATOM      3  N   UNL     1     -14.189  -3.634   0.883  0.00  0.00    -0.127 NA
ATOM      4  C   UNL     1     -14.452  -4.220  -0.261  0.00  0.00    +0.182 A 
ATOM      5  N   UNL     1     -13.286  -4.223  -0.991  0.00  0.00    -0.224 N 
ENDROOT
BRANCH   4   6
ATOM      6  C   UNL     1     -15.756  -4.770  -0.688  0.00  0.00    +0.021 A 
ATOM      7  C   UNL     1     -15.828  -5.639  -1.777  0.00  0.00    +0.014 A 
ATOM      8  C   UNL     1     -17.049  -6.149  -2.170  0.00  0.00    +0.033 A 
ATOM      9  C   UNL     1     -18.200  -5.799  -1.487  0.00  0.00    +0.126 A 
ATOM     10  C   UNL     1     -18.136  -4.938  -0.406  0.00  0.00    +0.033 A 
ATOM     11  C   UNL     1     -16.921  -4.426   0.001  0.00  0.00    +0.014 A 
BRANCH   9  12
ATOM     12  N   UNL     1     -19.506  -6.349  -1.915  0.00  0.00    +0.056 N 
ATOM     13  O   UNL     1     -19.566  -7.102  -2.859  0.00  0.00    -0.126 OA
ATOM     14  O   UNL     1     -20.514  -6.045  -1.320  0.00  0.00    -0.126 OA
ENDBRANCH   9  12
ENDBRANCH   4   6
BRANCH   5  15
ATOM     15  N   UNL     1     -13.098  -4.729  -2.246  0.00  0.00    -0.295 N 
ATOM     16  H   UNL     1     -12.822  -5.698  -2.208  0.00  0.00    +0.163 HD
ATOM     17  H   UNL     1     -13.926  -4.611  -2.810  0.00  0.00    +0.163 HD
ENDBRANCH   5  15
BRANCH   1  18
ATOM     18  S   UNL     1     -10.662  -3.335  -0.602  0.00  0.00    -0.075 S 
BRANCH  18  19
ATOM     19  C   UNL     1      -9.993  -2.503   0.865  0.00  0.00    +0.173 C 
BRANCH  19  26
ATOM     20  C   UNL     1      -3.900  -0.616   1.373  0.00  0.00    +0.160 A 
ATOM     21  N   UNL     1      -4.480  -1.227   0.350  0.00  0.00    -0.133 NA
ATOM     22  N   UNL     1      -5.699  -1.551   0.370  0.00  0.00    -0.125 NA
ATOM     23  C   UNL     1      -6.473  -1.301   1.413  0.00  0.00    +0.189 A 
ATOM     24  S   UNL     1      -5.290  -0.507   2.497  0.00  0.00    -0.024 S 
ATOM     25  N   UNL     1      -7.823  -1.580   1.612  0.00  0.00    -0.263 N 
ATOM     26  C   UNL     1      -8.533  -2.200   0.649  0.00  0.00    +0.229 C 
ATOM     27  O   UNL     1      -7.996  -2.515  -0.392  0.00  0.00    -0.275 OA
ATOM     28  H   UNL     1      -8.253  -1.328   2.445  0.00  0.00    +0.157 HD
BRANCH  20  29
ATOM     29  S   UNL     1      -2.236  -0.073   1.573  0.00  0.00    -0.094 S 
BRANCH  29  30
ATOM     30  C   UNL     1      -1.433  -0.534   0.013  0.00  0.00    +0.050 C 
ATOM     31  C   UNL     1      -1.416  -2.058  -0.121  0.00  0.00    +0.019 C 
BRANCH  30  33
ATOM     32  C   UNL     1      -0.019   1.526   0.010  0.00  0.00    +0.005 C 
ATOM     33  C   UNL     1       0.002  -0.004   0.002  0.00  0.00    +0.011 C 
ENDBRANCH  30  33
ENDBRANCH  29  30
ENDBRANCH  20  29
ENDBRANCH  19  26
ENDBRANCH  18  19
ENDBRANCH   1  18
TORSDOF 9
