REMARK  Name = ZINC14752110
REMARK  7 active torsions:
REMARK  status: ('A' for Active; 'I' for Inactive)
REMARK    1  A    between atoms: C_1  and  O_2
REMARK    2  A    between atoms: O_2  and  C_3
REMARK    3  A    between atoms: C_3  and  C_4
REMARK    4  A    between atoms: C_4  and  N_5
REMARK    5  A    between atoms: N_8  and  C_22
REMARK    6  A    between atoms: C_16  and  N_56
REMARK    7  A    between atoms: C_22  and  C_23
REMARK                            x       y       z     vdW  Elec       q    Type
REMARK                         _______ _______ _______ _____ _____    ______ ____
ROOT
ATOM      1  N   UNL     1      -0.263  -0.154   2.221  0.00  0.00    -0.269 N 
ATOM      2  C   UNL     1      -0.464  -1.399   2.696  0.00  0.00    +0.312 C 
ATOM      3  O   UNL     1      -1.192  -1.654   3.636  0.00  0.00    -0.252 OA
ATOM      4  N   UNL     1       0.228  -2.322   2.018  0.00  0.00    -0.220 N 
ATOM      5  C   UNL     1       0.955  -1.769   1.025  0.00  0.00    +0.247 C 
ATOM      6  O   UNL     1       1.680  -2.341   0.240  0.00  0.00    -0.273 OA
ATOM      7  C   UNL     1       0.674  -0.286   1.098  0.00  0.00    +0.112 C 
ATOM      8  C   UNL     1       0.029   0.199  -0.196  0.00  0.00    +0.017 C 
ATOM      9  C   UNL     1      -0.219   1.708  -0.104  0.00  0.00    -0.076 C 
ATOM     10  C   UNL     1       1.647   1.987   1.419  0.00  0.00    -0.076 C 
ATOM     11  C   UNL     1       1.958   0.488   1.378  0.00  0.00    +0.017 C 
ATOM     12  N   UNL     1       1.073   2.392   0.118  0.00  0.00    +0.382 N 
ATOM     13  H   UNL     1       1.724   2.125  -0.630  0.00  0.00    -0.081 HD
ENDROOT
BRANCH  12  14
ATOM     14  C   UNL     1       0.880   3.856   0.086  0.00  0.00    -0.058 C 
ATOM     15  C   UNL     1       2.232   4.515   0.318  0.00  0.00    -0.004 C 
ATOM     16  C   UNL     1       2.691   5.426  -0.842  0.00  0.00    +0.067 C 
ATOM     17  S   UNL     1       1.080   5.816  -1.653  0.00  0.00    -0.162 S 
ATOM     18  C   UNL     1       0.228   4.225  -1.265  0.00  0.00    +0.054 C 
ENDBRANCH  12  14
BRANCH   1  19
ATOM     19  C   UNL     1      -0.859   1.085   2.726  0.00  0.00    +0.138 C 
BRANCH  19  20
ATOM     20  C   UNL     1      -0.376   1.338   4.155  0.00  0.00    +0.178 C 
BRANCH  20  22
ATOM     21  C   UNL     1       1.596   1.770   5.447  0.00  0.00    +0.194 C 
ATOM     22  O   UNL     1       1.040   1.524   4.154  0.00  0.00    -0.381 OA
ENDBRANCH  20  22
ENDBRANCH  19  20
ENDBRANCH   1  19
BRANCH   4  23
ATOM     23  C   UNL     1       0.199  -3.757   2.316  0.00  0.00    +0.154 C 
BRANCH  23  24
ATOM     24  C   UNL     1      -0.905  -4.412   1.526  0.00  0.00    -0.011 A 
ATOM     25  C   UNL     1      -2.181  -4.520   2.059  0.00  0.00    +0.008 A 
ATOM     26  C   UNL     1      -3.166  -5.126   1.295  0.00  0.00    +0.020 A 
ATOM     27  C   UNL     1      -2.844  -5.608   0.041  0.00  0.00    +0.111 A 
ATOM     28  N   UNL     1      -1.619  -5.492  -0.432  0.00  0.00    -0.263 NA
ATOM     29  C   UNL     1      -0.658  -4.917   0.265  0.00  0.00    +0.116 A 
ENDBRANCH  23  24
ENDBRANCH   4  23
TORSDOF 6
