REMARK  Name = ZINC39237412
REMARK  11 active torsions:
REMARK  status: ('A' for Active; 'I' for Inactive)
REMARK    1  A    between atoms: C_1  and  C_2
REMARK    2  A    between atoms: C_3  and  C_34
REMARK    3  A    between atoms: C_4  and  C_19
REMARK    4  A    between atoms: C_5  and  C_18
REMARK    5  A    between atoms: C_6  and  C_17
REMARK    6  A    between atoms: C_7  and  C_8
REMARK    7  A    between atoms: C_8  and  O_9
REMARK    8  A    between atoms: O_9  and  C_10
REMARK    9  A    between atoms: C_21  and  C_32
REMARK   10  A    between atoms: C_22  and  N_31
REMARK   11  A    between atoms: C_27  and  C_30
REMARK                            x       y       z     vdW  Elec       q    Type
REMARK                         _______ _______ _______ _____ _____    ______ ____
ROOT
ATOM      1  C   UNL     1      -1.742   0.651  -1.014  0.00  0.00    +0.044 C 
ATOM      2  C   UNL     1      -0.749  -0.465  -0.819  0.00  0.00    -0.041 A 
ATOM      3  C   UNL     1      -0.331  -1.216  -1.903  0.00  0.00    -0.043 A 
ATOM      4  C   UNL     1       0.580  -2.240  -1.724  0.00  0.00    -0.029 A 
ATOM      5  C   UNL     1       1.075  -2.513  -0.462  0.00  0.00    -0.043 A 
ATOM      6  C   UNL     1       0.658  -1.762   0.621  0.00  0.00    -0.041 A 
ATOM      7  C   UNL     1      -0.250  -0.735   0.442  0.00  0.00    -0.004 A 
ATOM      8  C   UNL     1       1.197  -2.059   1.996  0.00  0.00    +0.044 C 
ATOM      9  C   UNL     1       2.068  -3.629  -0.268  0.00  0.00    +0.044 C 
ATOM     10  C   UNL     1      -0.871  -0.918  -3.278  0.00  0.00    +0.044 C 
ENDROOT
BRANCH   4  11
ATOM     11  C   UNL     1       1.034  -3.059  -2.905  0.00  0.00    +0.098 C 
ATOM     12  C   UNL     1       1.127  -2.187  -4.144  0.00  0.00    +0.097 C 
ATOM     13  C   UNL     1       0.260  -2.317  -5.169  0.00  0.00    +0.195 C 
ATOM     14  O   UNL     1      -0.749  -3.203  -5.261  0.00  0.00    -0.448 OA
ATOM     15  C   UNL     1      -1.239  -3.769  -4.044  0.00  0.00    +0.343 C 
ATOM     16  C   UNL     1       0.014  -4.114  -3.229  0.00  0.00    +0.030 C 
ATOM     17  C   UNL     1      -0.084  -5.396  -2.976  0.00  0.00    +0.066 C 
ATOM     18  N   UNL     1      -1.167  -5.920  -3.605  0.00  0.00    -0.155 NA
ATOM     19  N   UNL     1      -1.857  -5.083  -4.244  0.00  0.00    -0.138 NA
ATOM     20  C   UNL     1       0.871  -6.178  -2.111  0.00  0.00    +0.067 C 
BRANCH  13  21
ATOM     21  N   UNL     1       0.422  -1.456  -6.226  0.00  0.00    -0.329 N 
ATOM     22  H   UNL     1       1.134  -0.798  -6.210  0.00  0.00    +0.145 HD
ATOM     23  H   UNL     1      -0.175  -1.507  -6.989  0.00  0.00    +0.145 HD
ENDBRANCH  13  21
BRANCH  12  24
ATOM     24  C   UNL     1       2.163  -1.201  -4.227  0.00  0.00    +0.101 C 
ATOM     25  N   UNL     1       2.984  -0.419  -4.292  0.00  0.00    -0.191 NA
ENDBRANCH  12  24
ENDBRANCH   4  11
BRANCH   7  26
ATOM     26  C   UNL     1      -0.701   0.087   1.621  0.00  0.00    +0.265 C 
BRANCH  26  27
ATOM     27  O   UNL     1      -1.855  -0.516   2.210  0.00  0.00    -0.487 OA
BRANCH  27  28
ATOM     28  C   UNL     1      -2.391   0.105   3.294  0.00  0.00    +0.121 A 
ATOM     29  C   UNL     1      -1.821   1.274   3.776  0.00  0.00    +0.048 A 
ATOM     30  C   UNL     1      -2.367   1.904   4.878  0.00  0.00    +0.042 A 
ATOM     31  C   UNL     1      -3.483   1.369   5.500  0.00  0.00    +0.124 A 
ATOM     32  C   UNL     1      -4.052   0.203   5.019  0.00  0.00    +0.042 A 
ATOM     33  C   UNL     1      -3.512  -0.426   3.914  0.00  0.00    +0.048 A 
ATOM     34  F   UNL     1      -4.016   1.987   6.577  0.00  0.00    -0.205 F 
ENDBRANCH  27  28
ENDBRANCH  26  27
ENDBRANCH   7  26
TORSDOF 6
