REMARK  Name = ZINC12531267
REMARK  9 active torsions:
REMARK  status: ('A' for Active; 'I' for Inactive)
REMARK    1  A    between atoms: C_1  and  C_2
REMARK    2  A    between atoms: C_2  and  C_3
REMARK    3  A    between atoms: C_3  and  C_5
REMARK    4  A    between atoms: C_3  and  N_6
REMARK    5  A    between atoms: C_10  and  C_29
REMARK    6  A    between atoms: C_11  and  N_19
REMARK    7  A    between atoms: C_15  and  N_17
REMARK    8  A    between atoms: C_21  and  C_28
REMARK    9  A    between atoms: C_24  and  C_27
REMARK                            x       y       z     vdW  Elec       q    Type
REMARK                         _______ _______ _______ _____ _____    ______ ____
ROOT
ATOM      1  N   UNL     1       1.414   1.707   1.273  0.00  0.00    -0.253 N 
ATOM      2  C   UNL     1       2.267   0.649   0.974  0.00  0.00    +0.134 A 
ATOM      3  C   UNL     1       1.532  -0.496   0.715  0.00  0.00    +0.011 A 
ATOM      4  C   UNL     1       2.187  -1.678   0.392  0.00  0.00    +0.016 A 
ATOM      5  C   UNL     1       1.492  -2.932   0.104  0.00  0.00    +0.100 A 
ATOM      6  C   UNL     1       2.275  -4.054  -0.210  0.00  0.00    +0.142 A 
ATOM      7  N   UNL     1       3.600  -3.979  -0.243  0.00  0.00    -0.216 NA
ATOM      8  C   UNL     1       4.275  -2.872   0.010  0.00  0.00    +0.129 A 
ATOM      9  C   UNL     1       3.606  -1.677   0.337  0.00  0.00    +0.063 A 
ATOM     10  C   UNL     1       4.282  -0.475   0.614  0.00  0.00    +0.129 A 
ATOM     11  N   UNL     1       3.603   0.615   0.915  0.00  0.00    -0.216 NA
ATOM     12  N   UNL     1       5.652  -2.887  -0.047  0.00  0.00    -0.343 N 
ATOM     13  C   UNL     1       0.078  -0.118   0.866  0.00  0.00    +0.135 C 
ATOM     14  C   UNL     1       0.120   1.351   1.234  0.00  0.00    +0.226 C 
ATOM     15  O   UNL     1      -0.834   2.070   1.446  0.00  0.00    -0.275 OA
ATOM     16  H   UNL     1       6.221  -1.970   0.162  0.00  0.00    +0.144 HD
ATOM     17  H   UNL     1       6.182  -3.817  -0.302  0.00  0.00    +0.144 HD
ENDROOT
BRANCH   6  18
ATOM     18  N   UNL     1       1.656  -5.257  -0.490  0.00  0.00    -0.309 N 
ATOM     19  C   UNL     1       2.436  -6.386   0.039  0.00  0.00    +0.138 C 
ATOM     20  C   UNL     1       1.686  -7.691  -0.239  0.00  0.00    +0.133 C 
ATOM     21  O   UNL     1       1.449  -7.809  -1.645  0.00  0.00    -0.371 OA
ATOM     22  C   UNL     1       0.692  -6.726  -2.193  0.00  0.00    +0.133 C 
ATOM     23  C   UNL     1       1.431  -5.411  -1.934  0.00  0.00    +0.138 C 
ATOM     24  C   UNL     1       0.524  -6.932  -3.700  0.00  0.00    +0.039 C 
ATOM     25  C   UNL     1       2.529  -8.876   0.237  0.00  0.00    +0.039 C 
ENDBRANCH   6  18
BRANCH  10  26
ATOM     26  N   UNL     1       5.664  -0.437   0.570  0.00  0.00    -0.343 N 
ATOM     27  H   UNL     1       6.195   0.502   0.786  0.00  0.00    +0.144 HD
ATOM     28  H   UNL     1       6.232  -1.345   0.320  0.00  0.00    +0.144 HD
ENDBRANCH  10  26
BRANCH   1  29
ATOM     29  C   UNL     1       1.877   3.059   1.595  0.00  0.00    +0.080 C 
ATOM     30  C   UNL     1       1.307   4.049   0.577  0.00  0.00    +0.028 C 
BRANCH  29  32
ATOM     31  C   UNL     1       2.070   2.528   4.029  0.00  0.00    +0.006 C 
ATOM     32  C   UNL     1       1.401   3.440   2.998  0.00  0.00    +0.019 C 
ENDBRANCH  29  32
ENDBRANCH   1  29
BRANCH   5  33
ATOM     33  C   UNL     1       0.062  -3.012   0.139  0.00  0.00    +0.103 C 
ATOM     34  N   UNL     1      -1.071  -3.076   0.167  0.00  0.00    -0.191 NA
ENDBRANCH   5  33
TORSDOF 5
