REMARK  Name = ZINC48301624
REMARK  10 active torsions:
REMARK  status: ('A' for Active; 'I' for Inactive)
REMARK    1  A    between atoms: C_1  and  C_2
REMARK    2  A    between atoms: C_2  and  N_3
REMARK    3  A    between atoms: C_6  and  C_9
REMARK    4  A    between atoms: C_9  and  N_10
REMARK    5  A    between atoms: C_15  and  C_17
REMARK    6  A    between atoms: C_17  and  C_18
REMARK    7  A    between atoms: C_18  and  N_19
REMARK    8  A    between atoms: N_19  and  S_20
REMARK    9  A    between atoms: S_20  and  C_23
REMARK   10  A    between atoms: C_24  and  C_26
REMARK                            x       y       z     vdW  Elec       q    Type
REMARK                         _______ _______ _______ _____ _____    ______ ____
ROOT
ATOM      1  N   UNL     1       4.961  -2.925  -2.860  0.00  0.00    +0.385 N 
ATOM      2  C   UNL     1       5.493  -3.218  -1.524  0.00  0.00    -0.078 C 
ATOM      3  C   UNL     1       5.761  -4.719  -1.395  0.00  0.00    -0.019 C 
ATOM      4  C   UNL     1       6.781  -5.143  -2.455  0.00  0.00    -0.003 C 
ATOM      5  C   UNL     1       6.249  -4.765  -3.841  0.00  0.00    -0.015 C 
ATOM      6  C   UNL     1       5.963  -3.263  -3.879  0.00  0.00    -0.067 C 
ATOM      7  H   UNL     1       4.128  -3.472  -3.015  0.00  0.00    -0.081 HD
ENDROOT
BRANCH   1   8
ATOM      8  C   UNL     1       4.633  -1.496  -2.953  0.00  0.00    -0.021 C 
BRANCH   8  12
ATOM      9  N   UNL     1      -0.050  -1.167  -1.534  0.00  0.00    -0.251 N 
ATOM     10  C   UNL     1       1.327  -1.047  -1.387  0.00  0.00    +0.167 A 
ATOM     11  N   UNL     1       2.270  -1.338  -2.257  0.00  0.00    -0.231 NA
ATOM     12  C   UNL     1       3.546  -1.166  -1.963  0.00  0.00    +0.034 A 
ATOM     13  C   UNL     1       3.834  -0.679  -0.731  0.00  0.00    +0.070 A 
ATOM     14  S   UNL     1       2.192  -0.488  -0.056  0.00  0.00    -0.060 S 
ATOM     15  C   UNL     1      -0.567  -1.640  -2.685  0.00  0.00    +0.218 C 
ATOM     16  O   UNL     1       0.170  -2.049  -3.557  0.00  0.00    -0.276 OA
ATOM     17  C   UNL     1      -2.059  -1.661  -2.889  0.00  0.00    +0.110 C 
BRANCH   9  19
ATOM     18  C   UNL     1      -1.232   0.720  -0.521  0.00  0.00    +0.025 C 
ATOM     19  C   UNL     1      -0.940  -0.780  -0.436  0.00  0.00    +0.112 C 
ENDBRANCH   9  19
ENDBRANCH   8  12
ENDBRANCH   1   8
BRANCH   6  20
ATOM     20  C   UNL     1       5.431  -2.881  -5.262  0.00  0.00    +0.002 C 
BRANCH  20  21
ATOM     21  C   UNL     1       6.497  -3.177  -6.318  0.00  0.00    +0.104 C 
BRANCH  21  22
ATOM     22  N   UNL     1       6.036  -2.700  -7.625  0.00  0.00    -0.195 NA
ATOM     23  H   UNL     1       5.102  -2.475  -7.757  0.00  0.00    +0.148 HD
BRANCH  22  24
ATOM     24  S   UNL     1       7.110  -2.544  -8.875  0.00  0.00    +0.027 S 
ATOM     25  O   UNL     1       6.336  -2.045  -9.958  0.00  0.00    -0.158 OA
ATOM     26  O   UNL     1       8.182  -1.781  -8.339  0.00  0.00    -0.158 OA
ATOM     27  C   UNL     1       7.662  -4.235  -9.229  0.00  0.00    +0.214 C 
ENDBRANCH  22  24
ENDBRANCH  21  22
ENDBRANCH  20  21
ENDBRANCH   6  20
TORSDOF 7
