REMARK  Name = ZINC34758133
REMARK  9 active torsions:
REMARK  status: ('A' for Active; 'I' for Inactive)
REMARK    1  A    between atoms: C_1  and  C_2
REMARK    2  A    between atoms: C_2  and  N_3
REMARK    3  A    between atoms: N_3  and  C_4
REMARK    4  A    between atoms: C_4  and  C_5
REMARK    5  A    between atoms: C_6  and  C_8
REMARK    6  A    between atoms: C_8  and  N_9
REMARK    7  A    between atoms: C_17  and  C_26
REMARK    8  A    between atoms: C_18  and  C_25
REMARK    9  A    between atoms: C_22  and  C_24
REMARK                            x       y       z     vdW  Elec       q    Type
REMARK                         _______ _______ _______ _____ _____    ______ ____
ROOT
ATOM      1  N   UNL     1      -2.717  -1.526   3.144  0.00  0.00    +0.387 N 
ATOM      2  C   UNL     1      -3.413  -2.808   3.310  0.00  0.00    -0.059 C 
ATOM      3  C   UNL     1      -4.177  -2.805   4.638  0.00  0.00    +0.088 C 
ATOM      4  N   UNL     1      -3.232  -2.483   5.719  0.00  0.00    -0.318 N 
ATOM      5  C   UNL     1      -2.374  -1.299   5.559  0.00  0.00    +0.088 C 
ATOM      6  C   UNL     1      -1.695  -1.373   4.187  0.00  0.00    -0.059 C 
ATOM      7  C   UNL     1      -3.153  -3.271   6.853  0.00  0.00    +0.133 A 
ATOM      8  C   UNL     1      -4.066  -3.082   7.926  0.00  0.00    +0.051 A 
ATOM      9  C   UNL     1      -5.158  -2.134   8.061  0.00  0.00    -0.028 A 
ATOM     10  C   UNL     1      -5.897  -2.140   9.181  0.00  0.00    -0.008 A 
ATOM     11  S   UNL     1      -5.167  -3.443  10.154  0.00  0.00    -0.074 S 
ATOM     12  C   UNL     1      -3.889  -3.944   9.030  0.00  0.00    +0.114 A 
ATOM     13  N   UNL     1      -2.937  -4.856   9.045  0.00  0.00    -0.225 NA
ATOM     14  C   UNL     1      -2.119  -4.983   8.018  0.00  0.00    +0.129 A 
ATOM     15  N   UNL     1      -2.230  -4.214   6.950  0.00  0.00    -0.217 NA
ATOM     16  C   UNL     1      -1.039  -6.033   8.062  0.00  0.00    +0.088 C 
ATOM     17  C   UNL     1      -7.065  -1.255   9.532  0.00  0.00    +0.052 C 
ATOM     18  C   UNL     1      -5.457  -1.154   6.956  0.00  0.00    +0.045 C 
ATOM     19  H   UNL     1      -3.384  -0.772   3.215  0.00  0.00    -0.081 HD
ENDROOT
BRANCH   1  20
ATOM     20  C   UNL     1      -2.076  -1.486   1.823  0.00  0.00    +0.019 C 
BRANCH  20  22
ATOM     21  N   UNL     1      -2.777  -1.492  -0.549  0.00  0.00    -0.304 N 
ATOM     22  C   UNL     1      -3.134  -1.520   0.750  0.00  0.00    +0.199 C 
ATOM     23  O   UNL     1      -4.306  -1.571   1.056  0.00  0.00    -0.278 OA
BRANCH  21  25
ATOM     24  C   UNL     1      -0.927   0.033  -1.033  0.00  0.00    +0.024 C 
ATOM     25  C   UNL     1      -1.360  -1.430  -0.919  0.00  0.00    +0.104 C 
ENDBRANCH  21  25
BRANCH  21  26
ATOM     26  C   UNL     1      -3.805  -1.524  -1.592  0.00  0.00    +0.104 C 
ATOM     27  C   UNL     1      -4.103  -2.977  -1.970  0.00  0.00    +0.024 C 
ENDBRANCH  21  26
ENDBRANCH  20  22
ENDBRANCH   1  20
TORSDOF 4
