REMARK  Name = ZINC12009839
REMARK  6 active torsions:
REMARK  status: ('A' for Active; 'I' for Inactive)
REMARK    1  A    between atoms: C_1  and  C_2
REMARK    2  A    between atoms: C_5  and  O_8
REMARK    3  A    between atoms: O_8  and  C_9
REMARK    4  A    between atoms: C_9  and  C_10
REMARK    5  A    between atoms: N_12  and  C_13
REMARK    6  A    between atoms: C_15  and  C_29
REMARK                            x       y       z     vdW  Elec       q    Type
REMARK                         _______ _______ _______ _____ _____    ______ ____
ROOT
ATOM      1  C   UNL     1       1.299  -0.402  -0.013  0.00  0.00    +0.132 A 
ATOM      2  C   UNL     1       0.002  -0.004   0.002  0.00  0.00    +0.077 A 
ATOM      3  C   UNL     1      -0.017   1.407   0.010  0.00  0.00    +0.130 A 
ATOM      4  N   UNL     1       1.229   1.835   0.000  0.00  0.00    -0.159 NA
ATOM      5  N   UNL     1       2.077   0.721  -0.014  0.00  0.00    -0.184 N 
ATOM      6  C   UNL     1       3.458   0.752  -0.026  0.00  0.00    +0.234 A 
ATOM      7  N   UNL     1       4.099   1.952  -0.032  0.00  0.00    -0.291 N 
ATOM      8  H   UNL     1       3.589   2.777  -0.027  0.00  0.00    +0.172 HD
ATOM      9  C   UNL     1       5.448   1.988  -0.038  0.00  0.00    +0.256 A 
ATOM     10  O   UNL     1       6.041   3.054  -0.038  0.00  0.00    -0.267 OA
ATOM     11  C   UNL     1       6.159   0.772  -0.051  0.00  0.00    +0.038 A 
ATOM     12  C   UNL     1       5.464  -0.400  -0.050  0.00  0.00    +0.053 A 
ATOM     13  N   UNL     1       4.129  -0.378  -0.038  0.00  0.00    -0.217 NA
ATOM     14  C   UNL     1       6.424  -1.570  -0.065  0.00  0.00    +0.056 C 
ATOM     15  C   UNL     1       7.777  -0.975  -0.511  0.00  0.00    +0.011 C 
ATOM     16  C   UNL     1       7.646   0.498  -0.066  0.00  0.00    +0.043 C 
ENDROOT
BRANCH   3  17
ATOM     17  C   UNL     1      -1.226   2.257   0.020  0.00  0.00    +0.155 A 
ATOM     18  C   UNL     1      -1.245   3.617   0.033  0.00  0.00    +0.051 A 
ATOM     19  C   UNL     1      -2.600   4.003   0.036  0.00  0.00    +0.042 A 
ATOM     20  C   UNL     1      -3.333   2.873   0.035  0.00  0.00    +0.196 A 
ATOM     21  O   UNL     1      -2.500   1.820   0.025  0.00  0.00    -0.461 OA
ENDBRANCH   3  17
BRANCH   1  24
ATOM     22  C   UNL     1       0.873  -2.737  -0.021  0.00  0.00    +0.256 C 
ATOM     23  O   UNL     1      -0.318  -2.508  -0.007  0.00  0.00    -0.272 OA
ATOM     24  N   UNL     1       1.756  -1.718  -0.024  0.00  0.00    -0.267 N 
ATOM     25  H   UNL     1       2.708  -1.901  -0.034  0.00  0.00    +0.156 HD
BRANCH  22  26
ATOM     26  C   UNL     1       1.367  -4.161  -0.033  0.00  0.00    +0.324 C 
BRANCH  26  27
ATOM     27  O   UNL     1       0.250  -5.052  -0.026  0.00  0.00    -0.483 OA
BRANCH  27  32
ATOM     28  C   UNL     1       1.381 -10.570  -0.066  0.00  0.00    +0.044 C 
ATOM     29  C   UNL     1       1.079  -9.093  -0.056  0.00  0.00    -0.050 A 
ATOM     30  C   UNL     1      -0.234  -8.658  -0.040  0.00  0.00    +0.007 A 
ATOM     31  C   UNL     1      -0.514  -7.305  -0.031  0.00  0.00    +0.046 A 
ATOM     32  C   UNL     1       0.523  -6.383  -0.036  0.00  0.00    +0.121 A 
ATOM     33  C   UNL     1       1.839  -6.823  -0.057  0.00  0.00    +0.046 A 
ATOM     34  C   UNL     1       2.114  -8.177  -0.061  0.00  0.00    +0.007 A 
ENDBRANCH  27  32
ENDBRANCH  26  27
ENDBRANCH  22  26
ENDBRANCH   1  24
TORSDOF 5
