REMARK  Name = ZINC19125644
REMARK  10 active torsions:
REMARK  status: ('A' for Active; 'I' for Inactive)
REMARK    1  A    between atoms: C_1  and  C_2
REMARK    2  A    between atoms: C_9  and  O_32
REMARK    3  A    between atoms: C_18  and  C_19
REMARK    4  A    between atoms: C_18  and  N_61
REMARK    5  A    between atoms: C_19  and  C_21
REMARK    6  A    between atoms: C_19  and  O_31
REMARK    7  A    between atoms: C_24  and  O_29
REMARK    8  A    between atoms: C_25  and  O_27
REMARK    9  A    between atoms: O_27  and  C_28
REMARK   10  A    between atoms: O_29  and  C_30
REMARK                            x       y       z     vdW  Elec       q    Type
REMARK                         _______ _______ _______ _____ _____    ______ ____
ROOT
ATOM      1  C   UNL     1       1.101   7.174   7.404  0.00  0.00    +0.045 C 
ATOM      2  C   UNL     1       1.228   5.672   7.378  0.00  0.00    -0.029 A 
ATOM      3  C   UNL     1       1.450   5.019   6.183  0.00  0.00    +0.050 A 
ATOM      4  C   UNL     1       1.568   3.633   6.154  0.00  0.00    +0.127 A 
ATOM      5  C   UNL     1       1.459   2.910   7.329  0.00  0.00    +0.024 A 
ATOM      6  C   UNL     1       1.239   3.571   8.526  0.00  0.00    +0.030 A 
ATOM      7  C   UNL     1       1.123   4.948   8.552  0.00  0.00    +0.044 A 
ATOM      8 CL   UNL     1       0.846   5.768  10.057  0.00  0.00    -0.083 Cl
ATOM      9  C   UNL     1       1.569   1.407   7.340  0.00  0.00    +0.152 C 
ATOM     10  C   UNL     1       2.241   0.930   6.049  0.00  0.00    +0.084 C 
ATOM     11  C   UNL     1       1.558   1.623   4.865  0.00  0.00    +0.110 C 
ATOM     12  O   UNL     1       1.792   3.027   4.958  0.00  0.00    -0.485 OA
ATOM     13  C   UNL     1       0.054   1.343   4.906  0.00  0.00    +0.029 C 
ATOM     14  C   UNL     1      -0.612   1.983   3.686  0.00  0.00    -0.075 C 
ATOM     15  C   UNL     1       1.412   1.734   2.376  0.00  0.00    -0.075 C 
ATOM     16  C   UNL     1       2.140   1.087   3.556  0.00  0.00    +0.029 C 
ATOM     17  N   UNL     1      -0.027   1.402   2.459  0.00  0.00    +0.382 N 
ATOM     18  H   UNL     1      -0.131   0.381   2.491  0.00  0.00    -0.082 HD
ENDROOT
BRANCH   9  19
ATOM     19  O   UNL     1       2.352   0.996   8.463  0.00  0.00    -0.387 OA
ATOM     20  H   UNL     1       1.984   1.261   9.317  0.00  0.00    +0.210 HD
ENDBRANCH   9  19
BRANCH  17  21
ATOM     21  C   UNL     1      -0.733   1.918   1.269  0.00  0.00    -0.042 C 
BRANCH  21  22
ATOM     22  C   UNL     1      -0.034   1.401   0.010  0.00  0.00    +0.128 C 
BRANCH  22  23
ATOM     23  C   UNL     1      -0.780   1.875  -1.210  0.00  0.00    -0.017 A 
ATOM     24  C   UNL     1      -1.926   1.217  -1.617  0.00  0.00    +0.010 A 
ATOM     25  C   UNL     1      -2.614   1.649  -2.736  0.00  0.00    +0.050 A 
ATOM     26  C   UNL     1      -2.156   2.744  -3.452  0.00  0.00    +0.162 A 
ATOM     27  C   UNL     1      -1.003   3.406  -3.042  0.00  0.00    +0.162 A 
ATOM     28  C   UNL     1      -0.321   2.971  -1.917  0.00  0.00    +0.055 A 
BRANCH  27  29
ATOM     29  O   UNL     1      -0.549   4.481  -3.741  0.00  0.00    -0.491 OA
ATOM     30  C   UNL     1       0.640   5.112  -3.262  0.00  0.00    +0.277 C 
ENDBRANCH  27  29
BRANCH  26  31
ATOM     31  O   UNL     1      -2.831   3.170  -4.553  0.00  0.00    -0.491 OA
ATOM     32  C   UNL     1      -4.007   2.441  -4.914  0.00  0.00    +0.277 C 
ENDBRANCH  26  31
ENDBRANCH  22  23
BRANCH  22  33
ATOM     33  O   UNL     1      -0.013  -0.028   0.030  0.00  0.00    -0.389 OA
ATOM     34  H   UNL     1      -0.890  -0.434   0.056  0.00  0.00    +0.210 HD
ENDBRANCH  22  33
ENDBRANCH  21  22
ENDBRANCH  17  21
TORSDOF 7
