REMARK  Name = ZINC20850463
REMARK  7 active torsions:
REMARK  status: ('A' for Active; 'I' for Inactive)
REMARK    1  A    between atoms: C_1  and  C_2
REMARK    2  A    between atoms: C_2  and  C_34
REMARK    3  A    between atoms: C_6  and  C_24
REMARK    4  A    between atoms: C_11  and  S_13
REMARK    5  A    between atoms: S_13  and  C_14
REMARK    6  A    between atoms: C_14  and  C_15
REMARK    7  A    between atoms: C_15  and  C_17
REMARK                            x       y       z     vdW  Elec       q    Type
REMARK                         _______ _______ _______ _____ _____    ______ ____
ROOT
ATOM      1  C   UNL     1       8.196   5.892  -2.975  0.00  0.00    +0.011 C 
ATOM      2  C   UNL     1       8.673   6.549  -1.679  0.00  0.00    -0.023 C 
ATOM      3  C   UNL     1       7.531   6.572  -0.661  0.00  0.00    +0.058 C 
ATOM      4  C   UNL     1       7.102   5.157  -0.349  0.00  0.00    +0.020 C 
ATOM      5  C   UNL     1       7.990   4.141  -0.379  0.00  0.00    +0.041 C 
ATOM      6  C   UNL     1       7.596   2.719  -0.045  0.00  0.00    +0.177 C 
ATOM      7  N   UNL     1       6.144   2.592  -0.040  0.00  0.00    -0.220 N 
ATOM      8  C   UNL     1       5.303   3.654  -0.030  0.00  0.00    +0.219 A 
ATOM      9  N   UNL     1       4.078   3.202  -0.019  0.00  0.00    -0.187 NA
ATOM     10  C   UNL     1       4.096   1.861  -0.027  0.00  0.00    +0.211 A 
ATOM     11  N   UNL     1       5.345   1.449  -0.036  0.00  0.00    -0.141 NA
ATOM     12  N   UNL     1       5.780   4.955  -0.034  0.00  0.00    -0.287 N 
ATOM     13  C   UNL     1       9.335   4.369  -0.723  0.00  0.00    +0.164 C 
ATOM     14  O   UNL     1      10.113   3.435  -0.728  0.00  0.00    -0.292 OA
ATOM     15  C   UNL     1       9.832   5.740  -1.086  0.00  0.00    +0.086 C 
ATOM     16  C   UNL     1       9.136   7.979  -1.966  0.00  0.00    +0.011 C 
ATOM     17  H   UNL     1       5.134   5.812   0.205  0.00  0.00    +0.155 HD
ENDROOT
BRANCH   6  18
ATOM     18  C   UNL     1       8.135   2.358   1.315  0.00  0.00    -0.000 A 
ATOM     19  C   UNL     1       7.748   3.083   2.427  0.00  0.00    +0.007 A 
ATOM     20  C   UNL     1       8.242   2.752   3.675  0.00  0.00    +0.000 A 
ATOM     21  C   UNL     1       9.123   1.695   3.812  0.00  0.00    +0.001 A 
ATOM     22  C   UNL     1       9.510   0.969   2.701  0.00  0.00    +0.020 A 
ATOM     23  C   UNL     1       9.012   1.297   1.453  0.00  0.00    +0.046 A 
ATOM     24 CL   UNL     1       9.492   0.381   0.058  0.00  0.00    -0.083 Cl
ENDBRANCH   6  18
BRANCH  10  25
ATOM     25  S   UNL     1       2.675   0.820  -0.019  0.00  0.00    -0.076 S 
BRANCH  25  26
ATOM     26  C   UNL     1       1.280   1.980   0.001  0.00  0.00    +0.157 C 
BRANCH  26  27
ATOM     27  C   UNL     1      -0.014   1.208   0.009  0.00  0.00    +0.173 C 
ATOM     28  O   UNL     1       0.002  -0.004   0.002  0.00  0.00    -0.291 OA
BRANCH  27  29
ATOM     29  C   UNL     1      -1.299   1.927   0.019  0.00  0.00    +0.018 A 
ATOM     30  C   UNL     1      -1.322   3.325   0.032  0.00  0.00    +0.011 A 
ATOM     31  C   UNL     1      -2.529   3.991   0.037  0.00  0.00    +0.001 A 
ATOM     32  C   UNL     1      -3.716   3.279   0.039  0.00  0.00    +0.000 A 
ATOM     33  C   UNL     1      -3.702   1.895   0.030  0.00  0.00    +0.001 A 
ATOM     34  C   UNL     1      -2.502   1.215   0.021  0.00  0.00    +0.011 A 
ENDBRANCH  27  29
ENDBRANCH  26  27
ENDBRANCH  25  26
ENDBRANCH  10  25
TORSDOF 5
