REMARK  Name = ZINC02908758
REMARK  7 active torsions:
REMARK  status: ('A' for Active; 'I' for Inactive)
REMARK    1  A    between atoms: C_1  and  C_2
REMARK    2  A    between atoms: C_2  and  C_3
REMARK    3  A    between atoms: C_5  and  C_17
REMARK    4  A    between atoms: C_5  and  O_24
REMARK    5  A    between atoms: C_8  and  C_10
REMARK    6  A    between atoms: C_15  and  O_16
REMARK    7  A    between atoms: C_20  and  C_23
REMARK                            x       y       z     vdW  Elec       q    Type
REMARK                         _______ _______ _______ _____ _____    ______ ____
ROOT
ATOM      1  C   UNL     1      -0.176   1.193   2.665  0.00  0.00    +0.023 C 
ATOM      2  C   UNL     1       0.771   1.862   3.287  0.00  0.00    +0.054 C 
ATOM      3  C   UNL     1       1.334   0.960   4.362  0.00  0.00    +0.199 C 
ATOM      4  N   UNL     1       0.564  -0.289   4.238  0.00  0.00    -0.179 N 
ATOM      5  N   UNL     1      -0.341  -0.074   3.189  0.00  0.00    -0.263 N 
ATOM      6  C   UNL     1       0.698  -1.405   4.981  0.00  0.00    +0.269 C 
ATOM      7  O   UNL     1       1.582  -1.480   5.813  0.00  0.00    -0.268 OA
ATOM      8  H   UNL     1      -0.989  -0.724   2.874  0.00  0.00    +0.170 HD
ENDROOT
BRANCH   3   9
ATOM      9  C   UNL     1       1.128   1.571   5.724  0.00  0.00    +0.008 A 
ATOM     10  C   UNL     1       0.008   1.244   6.466  0.00  0.00    +0.009 A 
ATOM     11  C   UNL     1      -0.179   1.802   7.717  0.00  0.00    +0.004 A 
ATOM     12  C   UNL     1       0.748   2.694   8.222  0.00  0.00    -0.050 A 
ATOM     13  C   UNL     1       1.865   3.025   7.478  0.00  0.00    +0.004 A 
ATOM     14  C   UNL     1       2.055   2.464   6.229  0.00  0.00    +0.009 A 
ATOM     15  C   UNL     1       0.542   3.306   9.584  0.00  0.00    +0.044 C 
ENDBRANCH   3   9
BRANCH   6  16
ATOM     16  C   UNL     1      -0.229  -2.537   4.787  0.00  0.00    +0.080 A 
ATOM     17  C   UNL     1      -0.641  -2.893   3.500  0.00  0.00    +0.017 A 
ATOM     18  C   UNL     1      -1.502  -3.955   3.325  0.00  0.00    +0.001 A 
ATOM     19  C   UNL     1      -1.970  -4.664   4.419  0.00  0.00    +0.004 A 
ATOM     20  C   UNL     1      -1.574  -4.319   5.696  0.00  0.00    +0.046 A 
ATOM     21  C   UNL     1      -0.704  -3.257   5.891  0.00  0.00    +0.129 A 
BRANCH  21  22
ATOM     22  O   UNL     1      -0.315  -2.916   7.145  0.00  0.00    -0.506 OA
ATOM     23  H   UNL     1      -0.889  -2.266   7.572  0.00  0.00    +0.292 HD
ENDBRANCH  21  22
ENDBRANCH   6  16
BRANCH   1  25
ATOM     24  C   UNL     1      -0.356   1.319   0.195  0.00  0.00    +0.010 C 
ATOM     25  C   UNL     1      -0.988   1.746   1.522  0.00  0.00    +0.048 C 
ENDBRANCH   1  25
BRANCH   3  26
ATOM     26  O   UNL     1       2.723   0.714   4.130  0.00  0.00    -0.363 OA
ATOM     27  H   UNL     1       3.271   1.511   4.148  0.00  0.00    +0.213 HD
ENDBRANCH   3  26
TORSDOF 5
