REMARK  Name = ZINC01983946
REMARK  11 active torsions:
REMARK  status: ('A' for Active; 'I' for Inactive)
REMARK    1  A    between atoms: C_1  and  C_2
REMARK    2  A    between atoms: C_2  and  O_3
REMARK    3  A    between atoms: O_3  and  C_4
REMARK    4  A    between atoms: C_4  and  C_6
REMARK    5  A    between atoms: C_10  and  N_11
REMARK    6  A    between atoms: C_12  and  C_14
REMARK    7  A    between atoms: C_15  and  C_16
REMARK    8  A    between atoms: C_18  and  O_25
REMARK    9  A    between atoms: C_19  and  O_23
REMARK   10  A    between atoms: O_23  and  C_24
REMARK   11  A    between atoms: O_25  and  C_26
REMARK                            x       y       z     vdW  Elec       q    Type
REMARK                         _______ _______ _______ _____ _____    ______ ____
ROOT
ATOM      1  N   UNL     1       2.341   3.288  -0.004  0.00  0.00    -0.276 N 
ATOM      2  C   UNL     1       1.633   4.435   0.009  0.00  0.00    +0.241 C 
ATOM      3  O   UNL     1       0.417   4.400   0.021  0.00  0.00    -0.270 OA
ATOM      4  H   UNL     1       3.440   3.320  -0.014  0.00  0.00    +0.156 HD
ENDROOT
BRANCH   1   9
ATOM      5  C   UNL     1       2.232   0.793  -0.015  0.00  0.00    +0.091 A 
ATOM      6  C   UNL     1       1.312  -0.332  -0.012  0.00  0.00    -0.021 A 
ATOM      7  C   UNL     1       0.002  -0.004   0.002  0.00  0.00    -0.004 A 
ATOM      8  S   UNL     1      -0.022   1.766   0.012  0.00  0.00    -0.077 S 
ATOM      9  C   UNL     1       1.684   2.070  -0.003  0.00  0.00    +0.087 A 
ATOM     10  C   UNL     1      -1.164  -0.944   0.007  0.00  0.00    +0.043 C 
ATOM     11  C   UNL     1      -0.662  -2.341  -0.384  0.00  0.00    +0.005 C 
ATOM     12  C   UNL     1       0.589  -2.663   0.439  0.00  0.00    +0.005 C 
ATOM     13  C   UNL     1       1.756  -1.790  -0.024  0.00  0.00    +0.037 C 
BRANCH   5  14
ATOM     14  C   UNL     1       3.682   0.589  -0.030  0.00  0.00    +0.342 C 
ATOM     15  O   UNL     1       4.274   0.510  -1.090  0.00  0.00    -0.245 OA
BRANCH  14  16
ATOM     16  O   UNL     1       4.361   0.488   1.130  0.00  0.00    -0.461 OA
BRANCH  16  18
ATOM     17  C   UNL     1       6.389   0.198   2.446  0.00  0.00    +0.048 C 
ATOM     18  C   UNL     1       5.796   0.287   1.039  0.00  0.00    +0.229 C 
ENDBRANCH  16  18
ENDBRANCH  14  16
ENDBRANCH   5  14
ENDBRANCH   1   9
BRANCH   2  19
ATOM     19  C   UNL     1       2.327   5.722   0.008  0.00  0.00    +0.068 C 
ATOM     20  C   UNL     1       1.618   6.871   0.021  0.00  0.00    +0.013 C 
BRANCH  20  21
ATOM     21  C   UNL     1       2.316   8.165   0.020  0.00  0.00    -0.020 A 
ATOM     22  C   UNL     1       1.583   9.358   0.027  0.00  0.00    +0.057 A 
ATOM     23  C   UNL     1       2.244  10.570   0.032  0.00  0.00    +0.163 A 
ATOM     24  C   UNL     1       3.638  10.605   0.018  0.00  0.00    +0.175 A 
ATOM     25  C   UNL     1       4.366   9.423   0.005  0.00  0.00    +0.064 A 
ATOM     26  C   UNL     1       3.715   8.208   0.006  0.00  0.00    +0.027 A 
ATOM     27 BR   UNL     1       6.256   9.479  -0.013  0.00  0.00    -0.046 Br
BRANCH  24  28
ATOM     28  O   UNL     1       4.285  11.800   0.017  0.00  0.00    -0.490 OA
ATOM     29  C   UNL     1       4.581  12.376  -1.257  0.00  0.00    +0.277 C 
ENDBRANCH  24  28
BRANCH  23  30
ATOM     30  O   UNL     1       1.534  11.730   0.044  0.00  0.00    -0.491 OA
ATOM     31  C   UNL     1       0.110  11.620   0.057  0.00  0.00    +0.277 C 
ENDBRANCH  23  30
ENDBRANCH  20  21
ENDBRANCH   2  19
TORSDOF 8
