REMARK  Name = ZINC14457484
REMARK  9 active torsions:
REMARK  status: ('A' for Active; 'I' for Inactive)
REMARK    1  A    between atoms: C_1  and  C_2
REMARK    2  A    between atoms: C_2  and  C_3
REMARK    3  A    between atoms: C_3  and  C_4
REMARK    4  A    between atoms: C_4  and  N_5
REMARK    5  A    between atoms: C_6  and  C_8
REMARK    6  A    between atoms: C_21  and  C_24
REMARK    7  A    between atoms: C_27  and  O_31
REMARK    8  A    between atoms: C_28  and  O_30
REMARK    9  A    between atoms: O_31  and  C_32
REMARK                            x       y       z     vdW  Elec       q    Type
REMARK                         _______ _______ _______ _____ _____    ______ ____
ROOT
ATOM      1  C   UNL     1      -1.513   2.087   0.083  0.00  0.00    +0.037 A 
ATOM      2  C   UNL     1      -0.358   1.299   0.081  0.00  0.00    +0.015 A 
ATOM      3  C   UNL     1       0.876   1.904   0.058  0.00  0.00    +0.024 A 
ATOM      4  C   UNL     1       0.976   3.293   0.045  0.00  0.00    +0.031 A 
ATOM      5  C   UNL     1      -0.165   4.087   0.055  0.00  0.00    -0.019 A 
ATOM      6  C   UNL     1      -1.407   3.478   0.076  0.00  0.00    +0.019 A 
ATOM      7  C   UNL     1      -0.099   5.568   0.062  0.00  0.00    +0.049 C 
ATOM      8  C   UNL     1      -0.465   6.138  -1.311  0.00  0.00    -0.023 C 
ATOM      9  C   UNL     1       0.265   7.193  -1.579  0.00  0.00    -0.030 C 
ATOM     10  C   UNL     1       1.214   7.488  -0.434  0.00  0.00    +0.033 C 
ATOM     11  C   UNL     1       1.317   6.123   0.309  0.00  0.00    +0.029 C 
ATOM     12  C   UNL     1       2.348   5.273  -0.438  0.00  0.00    +0.105 C 
ATOM     13  N   UNL     1       2.238   3.884   0.018  0.00  0.00    -0.336 N 
ATOM     14  H   UNL     1       3.024   3.388   0.295  0.00  0.00    +0.147 HD
ENDROOT
BRANCH  12  15
ATOM     15  C   UNL     1       2.080   5.341  -1.919  0.00  0.00    -0.023 A 
ATOM     16  C   UNL     1       1.230   4.424  -2.509  0.00  0.00    +0.009 A 
ATOM     17  C   UNL     1       0.976   4.486  -3.866  0.00  0.00    +0.050 A 
ATOM     18  C   UNL     1       1.584   5.460  -4.641  0.00  0.00    +0.161 A 
ATOM     19  C   UNL     1       2.445   6.379  -4.049  0.00  0.00    +0.159 A 
ATOM     20  C   UNL     1       2.690   6.316  -2.686  0.00  0.00    +0.054 A 
BRANCH  19  21
ATOM     21  O   UNL     1       3.043   7.338  -4.805  0.00  0.00    -0.503 OA
ATOM     22  H   UNL     1       3.898   7.073  -5.172  0.00  0.00    +0.292 HD
ENDBRANCH  19  21
BRANCH  18  23
ATOM     23  O   UNL     1       1.341   5.519  -5.978  0.00  0.00    -0.491 OA
ATOM     24  C   UNL     1       0.446   4.543  -6.517  0.00  0.00    +0.277 C 
ENDBRANCH  18  23
ENDBRANCH  12  15
BRANCH   1  26
ATOM     25  N   UNL     1      -2.944   0.104   0.112  0.00  0.00    -0.311 N 
ATOM     26  C   UNL     1      -2.842   1.448   0.100  0.00  0.00    +0.244 C 
ATOM     27  O   UNL     1      -3.847   2.134   0.102  0.00  0.00    -0.270 OA
ATOM     28  H   UNL     1      -2.143  -0.443   0.110  0.00  0.00    +0.149 HD
BRANCH  25  29
ATOM     29  C   UNL     1      -4.264  -0.531   0.128  0.00  0.00    +0.104 C 
BRANCH  29  30
ATOM     30  C   UNL     1      -4.099  -2.052   0.140  0.00  0.00    +0.018 C 
BRANCH  30  32
ATOM     31  C   UNL     1      -5.313  -4.235   0.168  0.00  0.00    +0.004 C 
ATOM     32  C   UNL     1      -5.478  -2.714   0.157  0.00  0.00    -0.002 C 
ENDBRANCH  30  32
ENDBRANCH  29  30
ENDBRANCH  25  29
ENDBRANCH   1  26
TORSDOF 7
