REMARK  Name = ZINC22291629
REMARK  9 active torsions:
REMARK  status: ('A' for Active; 'I' for Inactive)
REMARK    1  A    between atoms: C_1  and  C_2
REMARK    2  A    between atoms: N_5  and  C_8
REMARK    3  A    between atoms: C_8  and  C_9
REMARK    4  A    between atoms: C_15  and  C_17
REMARK    5  A    between atoms: C_17  and  C_19
REMARK    6  A    between atoms: C_17  and  N_23
REMARK    7  A    between atoms: C_19  and  C_20
REMARK    8  A    between atoms: C_20  and  C_21
REMARK    9  A    between atoms: C_20  and  C_22
REMARK                            x       y       z     vdW  Elec       q    Type
REMARK                         _______ _______ _______ _____ _____    ______ ____
ROOT
ATOM      1  C   UNL     1      -0.143  -4.380   2.730  0.00  0.00    +0.034 A 
ATOM      2  C   UNL     1      -0.911  -4.617   3.822  0.00  0.00    +0.070 A 
ATOM      3  S   UNL     1       0.338  -5.073   5.014  0.00  0.00    -0.060 S 
ATOM      4  C   UNL     1       1.682  -4.917   4.013  0.00  0.00    +0.165 A 
ATOM      5  N   UNL     1       1.160  -4.547   2.864  0.00  0.00    -0.231 NA
ATOM      6  N   UNL     1       3.020  -5.131   4.325  0.00  0.00    -0.263 N 
ATOM      7  C   UNL     1       3.369  -5.517   5.568  0.00  0.00    +0.240 C 
ATOM      8  O   UNL     1       2.516  -5.677   6.415  0.00  0.00    -0.273 OA
ATOM      9  H   UNL     1       3.702  -5.003   3.647  0.00  0.00    +0.157 HD
ENDROOT
BRANCH   1  10
ATOM     10  C   UNL     1      -0.750  -3.952   1.419  0.00  0.00    -0.022 C 
BRANCH  10  15
ATOM     11  C   UNL     1      -0.019   1.526   0.010  0.00  0.00    +0.007 C 
ATOM     12  C   UNL     1       0.002  -0.004   0.002  0.00  0.00    -0.018 C 
ATOM     13  C   UNL     1      -1.434  -0.536   0.023  0.00  0.00    -0.016 C 
ATOM     14  C   UNL     1      -1.405  -2.064   0.095  0.00  0.00    -0.078 C 
ATOM     15  N   UNL     1      -0.707  -2.487   1.315  0.00  0.00    +0.383 N 
ATOM     16  C   UNL     1       0.691  -2.042   1.269  0.00  0.00    -0.078 C 
ATOM     17  C   UNL     1       0.743  -0.513   1.242  0.00  0.00    -0.016 C 
ATOM     18  H   UNL     1      -1.162  -2.082   2.119  0.00  0.00    -0.081 HD
ENDBRANCH  10  15
ENDBRANCH   1  10
BRANCH   7  19
ATOM     19  C   UNL     1       4.819  -5.749   5.905  0.00  0.00    +0.170 C 
BRANCH  19  20
ATOM     20  N   UNL     1       4.935  -6.158   7.308  0.00  0.00    -0.230 N 
ATOM     21  C   UNL     1       4.516  -5.392   8.333  0.00  0.00    +0.227 C 
ATOM     22  O   UNL     1       3.827  -4.398   8.254  0.00  0.00    -0.275 OA
ATOM     23  C   UNL     1       5.074  -6.015   9.624  0.00  0.00    +0.091 C 
ATOM     24  C   UNL     1       6.452  -5.374   9.804  0.00  0.00    +0.040 C 
ATOM     25  C   UNL     1       7.459  -6.296  10.398  0.00  0.00    -0.030 C 
ATOM     26  C   UNL     1       7.346  -7.582  10.446  0.00  0.00    -0.030 C 
ATOM     27  C   UNL     1       6.145  -8.320   9.944  0.00  0.00    +0.040 C 
ATOM     28  C   UNL     1       5.185  -7.475   9.158  0.00  0.00    +0.091 C 
ATOM     29  C   UNL     1       5.467  -7.340   7.690  0.00  0.00    +0.227 C 
ATOM     30  O   UNL     1       6.057  -8.133   6.988  0.00  0.00    -0.275 OA
ENDBRANCH  19  20
BRANCH  19  31
ATOM     31  C   UNL     1       5.608  -4.457   5.684  0.00  0.00    +0.035 C 
BRANCH  31  32
ATOM     32  C   UNL     1       7.098  -4.724   5.906  0.00  0.00    -0.015 C 
ATOM     33  C   UNL     1       7.606  -5.696   4.840  0.00  0.00    +0.007 C 
ATOM     34  C   UNL     1       7.872  -3.409   5.808  0.00  0.00    +0.007 C 
ENDBRANCH  31  32
ENDBRANCH  19  31
ENDBRANCH   7  19
TORSDOF 6
