REMARK  Name = ZINC06570002
REMARK  7 active torsions:
REMARK  status: ('A' for Active; 'I' for Inactive)
REMARK    1  A    between atoms: C_1  and  C_2
REMARK    2  A    between atoms: C_2  and  N_3
REMARK    3  A    between atoms: N_3  and  C_4
REMARK    4  A    between atoms: N_3  and  C_6
REMARK    5  A    between atoms: C_4  and  C_5
REMARK    6  A    between atoms: C_11  and  C_17
REMARK    7  A    between atoms: C_17  and  C_19
REMARK                            x       y       z     vdW  Elec       q    Type
REMARK                         _______ _______ _______ _____ _____    ______ ____
ROOT
ATOM      1  C   UNL     1       2.037  -0.803   1.280  0.00  0.00    +0.033 A 
ATOM      2  C   UNL     1       2.721  -0.465   0.109  0.00  0.00    +0.024 A 
ATOM      3  C   UNL     1       4.068  -0.645   0.020  0.00  0.00    +0.013 A 
ATOM      4  C   UNL     1       4.777  -1.182   1.108  0.00  0.00    +0.018 A 
ATOM      5  C   UNL     1       6.170  -1.407   1.016  0.00  0.00    +0.030 A 
ATOM      6  C   UNL     1       6.789  -2.121   2.037  0.00  0.00    +0.107 A 
ATOM      7  C   UNL     1       5.933  -2.620   3.128  0.00  0.00    +0.348 A 
ATOM      8  O   UNL     1       6.252  -3.595   3.784  0.00  0.00    -0.244 OA
ATOM      9  O   UNL     1       4.780  -1.957   3.376  0.00  0.00    -0.422 OA
ATOM     10  C   UNL     1       4.095  -1.495   2.302  0.00  0.00    +0.141 A 
ATOM     11  C   UNL     1       2.725  -1.309   2.375  0.00  0.00    +0.070 A 
ENDROOT
BRANCH   6  12
ATOM     12  C   UNL     1       8.239  -2.369   2.028  0.00  0.00    +0.207 C 
ATOM     13  O   UNL     1       8.727  -3.093   1.179  0.00  0.00    -0.286 OA
BRANCH  12  14
ATOM     14  C   UNL     1       9.100  -1.742   3.045  0.00  0.00    +0.107 A 
ATOM     15  C   UNL     1      10.479  -1.902   3.022  0.00  0.00    +0.030 A 
ATOM     16  C   UNL     1      11.239  -1.294   4.053  0.00  0.00    +0.018 A 
ATOM     17  C   UNL     1      12.639  -1.250   3.975  0.00  0.00    +0.011 A 
ATOM     18  C   UNL     1      13.354  -0.624   4.955  0.00  0.00    +0.001 A 
ATOM     19  C   UNL     1      12.708  -0.036   6.034  0.00  0.00    +0.004 A 
ATOM     20  C   UNL     1      11.333  -0.085   6.142  0.00  0.00    +0.047 A 
ATOM     21  C   UNL     1      10.586  -0.722   5.161  0.00  0.00    +0.139 A 
ATOM     22  O   UNL     1       9.239  -0.814   5.277  0.00  0.00    -0.422 OA
ATOM     23  C   UNL     1       8.532  -0.915   4.125  0.00  0.00    +0.348 A 
ATOM     24  O   UNL     1       7.464  -0.347   3.988  0.00  0.00    -0.244 OA
ENDBRANCH  12  14
ENDBRANCH   6  12
BRANCH   1  25
ATOM     25  N   UNL     1       0.662  -0.626   1.350  0.00  0.00    -0.330 N 
BRANCH  25  27
ATOM     26  C   UNL     1      -0.125   1.433   0.291  0.00  0.00    +0.024 C 
ATOM     27  C   UNL     1      -0.068  -0.093   0.198  0.00  0.00    +0.102 C 
ENDBRANCH  25  27
BRANCH  25  28
ATOM     28  C   UNL     1      -0.060  -0.973   2.577  0.00  0.00    +0.102 C 
ATOM     29  C   UNL     1      -0.508  -2.434   2.510  0.00  0.00    +0.024 C 
ENDBRANCH  25  28
ENDBRANCH   1  25
TORSDOF 5
