REMARK  Name = ZINC58192254
REMARK  6 active torsions:
REMARK  status: ('A' for Active; 'I' for Inactive)
REMARK    1  A    between atoms: C_1  and  C_2
REMARK    2  A    between atoms: C_2  and  C_3
REMARK    3  A    between atoms: C_10  and  C_12
REMARK    4  A    between atoms: C_12  and  N_13
REMARK    5  A    between atoms: C_16  and  C_20
REMARK    6  A    between atoms: C_16  and  C_21
REMARK                            x       y       z     vdW  Elec       q    Type
REMARK                         _______ _______ _______ _____ _____    ______ ____
ROOT
ATOM      1  N   UNL     1      -5.138  -4.807  -1.661  0.00  0.00    -0.215 N 
ATOM      2  C   UNL     1      -5.729  -4.408  -2.804  0.00  0.00    +0.251 C 
ATOM      3  O   UNL     1      -6.035  -3.276  -3.113  0.00  0.00    -0.272 OA
ATOM      4  C   UNL     1      -5.932  -5.667  -3.622  0.00  0.00    +0.138 C 
ATOM      5  N   UNL     1      -5.380  -6.730  -2.765  0.00  0.00    -0.281 N 
ATOM      6  C   UNL     1      -4.936  -6.130  -1.645  0.00  0.00    +0.310 C 
ATOM      7  O   UNL     1      -4.414  -6.723  -0.722  0.00  0.00    -0.252 OA
ATOM      8  C   UNL     1      -5.160  -5.583  -4.940  0.00  0.00    +0.047 C 
ATOM      9  H   UNL     1      -5.340  -7.678  -2.969  0.00  0.00    +0.152 HD
ENDROOT
BRANCH   4  10
ATOM     10  C   UNL     1      -7.399  -5.902  -3.879  0.00  0.00    +0.020 A 
ATOM     11  C   UNL     1      -8.003  -7.060  -3.427  0.00  0.00    +0.009 A 
ATOM     12  C   UNL     1      -9.348  -7.276  -3.662  0.00  0.00    +0.001 A 
ATOM     13  C   UNL     1     -10.090  -6.333  -4.351  0.00  0.00    +0.003 A 
ATOM     14  C   UNL     1      -9.488  -5.175  -4.803  0.00  0.00    +0.039 A 
ATOM     15  C   UNL     1      -8.142  -4.955  -4.563  0.00  0.00    +0.129 A 
ATOM     16  F   UNL     1      -7.553  -3.821  -5.001  0.00  0.00    -0.205 F 
ENDBRANCH   4  10
BRANCH   1  17
ATOM     17  C   UNL     1      -4.757  -3.904  -0.572  0.00  0.00    +0.213 C 
BRANCH  17  24
ATOM     18  C   UNL     1      -1.433  -0.534   0.013  0.00  0.00    +0.135 C 
ATOM     19  C   UNL     1      -1.417  -2.061  -0.119  0.00  0.00    +0.139 C 
ATOM     20  N   UNL     1      -2.787  -2.559   0.082  0.00  0.00    -0.296 N 
ATOM     21  C   UNL     1      -3.521  -2.102   1.272  0.00  0.00    +0.136 C 
ATOM     22  C   UNL     1      -3.435  -0.573   1.336  0.00  0.00    +0.179 C 
ATOM     23  O   UNL     1      -2.066  -0.173   1.243  0.00  0.00    -0.373 OA
ATOM     24  C   UNL     1      -3.352  -3.408  -0.799  0.00  0.00    +0.234 C 
ATOM     25  O   UNL     1      -2.731  -3.773  -1.774  0.00  0.00    -0.274 OA
BRANCH  18  27
ATOM     26  C   UNL     1      -0.019   1.526   0.010  0.00  0.00    +0.006 C 
ATOM     27  C   UNL     1       0.002  -0.004   0.002  0.00  0.00    +0.030 C 
ENDBRANCH  18  27
ENDBRANCH  17  24
ENDBRANCH   1  17
TORSDOF 4
