REMARK  Name = ZINC08690324
REMARK  8 active torsions:
REMARK  status: ('A' for Active; 'I' for Inactive)
REMARK    1  A    between atoms: C_1  and  N_2
REMARK    2  A    between atoms: N_5  and  C_38
REMARK    3  A    between atoms: C_6  and  C_32
REMARK    4  A    between atoms: C_7  and  C_26
REMARK    5  A    between atoms: C_13  and  C_14
REMARK    6  A    between atoms: C_17  and  N_20
REMARK    7  A    between atoms: N_20  and  C_21
REMARK    8  A    between atoms: N_20  and  C_22
REMARK                            x       y       z     vdW  Elec       q    Type
REMARK                         _______ _______ _______ _____ _____    ______ ____
ROOT
ATOM      1  C   UNL     1       1.951   1.943  -0.563  0.00  0.00    +0.136 C 
ATOM      2  N   UNL     1       2.319   0.566  -0.225  0.00  0.00    -0.259 N 
ATOM      3  C   UNL     1       2.723  -0.409  -1.084  0.00  0.00    +0.308 C 
ATOM      4  O   UNL     1       3.042  -0.198  -2.238  0.00  0.00    -0.252 OA
ATOM      5  N   UNL     1       2.734  -1.644  -0.516  0.00  0.00    -0.257 N 
ATOM      6  C   UNL     1       2.006  -1.519   0.739  0.00  0.00    +0.202 C 
ATOM      7  C   UNL     1       2.334  -0.036   1.095  0.00  0.00    +0.189 C 
ATOM      8  N   UNL     1       1.409   0.403   2.116  0.00  0.00    -0.248 N 
ATOM      9  N   UNL     1       1.553  -0.477   3.199  0.00  0.00    -0.203 N 
ATOM     10  C   UNL     1       1.122  -0.158   4.421  0.00  0.00    +0.284 A 
ATOM     11  O   UNL     1       0.475   0.855   4.613  0.00  0.00    -0.265 OA
ATOM     12  C   UNL     1       1.452  -1.069   5.530  0.00  0.00    +0.082 A 
ATOM     13  C   UNL     1       1.165  -0.955   6.851  0.00  0.00    +0.028 C 
ATOM     14  S   UNL     1       2.331  -2.365   4.667  0.00  0.00    -0.045 S 
ATOM     15  C   UNL     1       2.159  -1.715   3.027  0.00  0.00    +0.192 A 
ATOM     16  N   UNL     1       2.474  -2.293   1.889  0.00  0.00    -0.224 NA
ATOM     17  C   UNL     1       3.353  -2.856  -1.057  0.00  0.00    +0.136 C 
ATOM     18  H   UNL     1       0.461   0.400   1.771  0.00  0.00    +0.169 HD
ENDROOT
BRANCH  13  19
ATOM     19  C   UNL     1       1.767  -1.885   7.816  0.00  0.00    -0.024 A 
ATOM     20  C   UNL     1       1.337  -1.889   9.149  0.00  0.00    +0.010 A 
ATOM     21  C   UNL     1       1.905  -2.762  10.049  0.00  0.00    +0.023 A 
ATOM     22  C   UNL     1       2.904  -3.639   9.636  0.00  0.00    +0.029 A 
ATOM     23  C   UNL     1       3.334  -3.637   8.312  0.00  0.00    +0.023 A 
ATOM     24  C   UNL     1       2.769  -2.773   7.404  0.00  0.00    +0.010 A 
BRANCH  22  25
ATOM     25  N   UNL     1       3.476  -4.519  10.551  0.00  0.00    -0.336 N 
ATOM     26  C   UNL     1       3.026  -4.522  11.945  0.00  0.00    +0.129 C 
ATOM     27  C   UNL     1       4.528  -5.443  10.119  0.00  0.00    +0.129 C 
ENDBRANCH  22  25
ENDBRANCH  13  19
BRANCH   7  28
ATOM     28  C   UNL     1       3.732   0.037   1.654  0.00  0.00    -0.000 A 
ATOM     29  C   UNL     1       4.727  -0.769   1.134  0.00  0.00    +0.007 A 
ATOM     30  C   UNL     1       6.009  -0.703   1.646  0.00  0.00    +0.000 A 
ATOM     31  C   UNL     1       6.296   0.171   2.678  0.00  0.00    +0.000 A 
ATOM     32  C   UNL     1       5.301   0.977   3.198  0.00  0.00    +0.000 A 
ATOM     33  C   UNL     1       4.020   0.914   2.683  0.00  0.00    +0.007 A 
ENDBRANCH   7  28
BRANCH   6  34
ATOM     34  C   UNL     1       0.529  -1.726   0.522  0.00  0.00    +0.002 A 
ATOM     35  C   UNL     1      -0.041  -1.417  -0.699  0.00  0.00    +0.008 A 
ATOM     36  C   UNL     1      -1.395  -1.608  -0.898  0.00  0.00    +0.000 A 
ATOM     37  C   UNL     1      -2.180  -2.107   0.124  0.00  0.00    +0.000 A 
ATOM     38  C   UNL     1      -1.611  -2.417   1.345  0.00  0.00    +0.000 A 
ATOM     39  C   UNL     1      -0.256  -2.230   1.543  0.00  0.00    +0.008 A 
ENDBRANCH   6  34
TORSDOF 4
