REMARK  Name = ZINC03122260
REMARK  9 active torsions:
REMARK  status: ('A' for Active; 'I' for Inactive)
REMARK    1  A    between atoms: C_1  and  C_2
REMARK    2  A    between atoms: C_5  and  N_8
REMARK    3  A    between atoms: N_8  and  C_9
REMARK    4  A    between atoms: C_9  and  N_11
REMARK    5  A    between atoms: N_11  and  C_12
REMARK    6  A    between atoms: C_12  and  C_14
REMARK    7  A    between atoms: C_12  and  N_18
REMARK    8  A    between atoms: C_19  and  C_21
REMARK    9  A    between atoms: C_24  and  N_27
REMARK                            x       y       z     vdW  Elec       q    Type
REMARK                         _______ _______ _______ _____ _____    ______ ____
ROOT
ATOM      1  C   UNL     1       3.554   6.260   0.315  0.00  0.00    +0.211 C 
ENDROOT
BRANCH   1   2
ATOM      2  C   UNL     1       3.435   7.311   1.420  0.00  0.00    +0.225 C 
ATOM      3 CL   UNL     1       3.090   6.495   2.990  0.00  0.00    -0.080 Cl
ATOM      4 CL   UNL     1       4.981   8.229   1.546  0.00  0.00    -0.080 Cl
ATOM      5 CL   UNL     1       2.091   8.448   1.026  0.00  0.00    -0.080 Cl
ENDBRANCH   1   2
BRANCH   1   6
ATOM      6  N   UNL     1       3.834   6.923  -0.961  0.00  0.00    -0.290 N 
ATOM      7  C   UNL     1       4.785   6.434  -1.781  0.00  0.00    +0.246 C 
ATOM      8  O   UNL     1       5.411   5.442  -1.461  0.00  0.00    -0.270 OA
ATOM      9  H   UNL     1       3.335   7.715  -1.216  0.00  0.00    +0.151 HD
BRANCH   7  10
ATOM     10  C   UNL     1       5.068   7.103  -3.068  0.00  0.00    +0.037 A 
ATOM     11  C   UNL     1       4.347   8.238  -3.441  0.00  0.00    +0.015 A 
ATOM     12  C   UNL     1       4.620   8.861  -4.642  0.00  0.00    +0.033 A 
ATOM     13  C   UNL     1       5.597   8.356  -5.481  0.00  0.00    +0.126 A 
ATOM     14  C   UNL     1       6.311   7.227  -5.120  0.00  0.00    +0.033 A 
ATOM     15  C   UNL     1       6.053   6.598  -3.919  0.00  0.00    +0.015 A 
BRANCH  13  16
ATOM     16  N   UNL     1       5.880   9.026  -6.769  0.00  0.00    +0.056 N 
ATOM     17  O   UNL     1       6.740   8.584  -7.510  0.00  0.00    -0.126 OA
ATOM     18  O   UNL     1       5.253  10.020  -7.090  0.00  0.00    -0.126 OA
ENDBRANCH  13  16
ENDBRANCH   7  10
ENDBRANCH   1   6
BRANCH   1  19
ATOM     19  N   UNL     1       2.297   5.514   0.212  0.00  0.00    -0.305 N 
ATOM     20  H   UNL     1       1.451   5.987   0.222  0.00  0.00    +0.150 HD
BRANCH  19  21
ATOM     21  C   UNL     1       2.318   4.171   0.104  0.00  0.00    +0.136 C 
ATOM     22  S   UNL     1       3.813   3.337   0.086  0.00  0.00    -0.019 S 
BRANCH  21  23
ATOM     23  N   UNL     1       1.162   3.485   0.009  0.00  0.00    -0.297 N 
ATOM     24  H   UNL     1       0.320   3.961  -0.062  0.00  0.00    +0.154 HD
BRANCH  23  29
ATOM     25  C   UNL     1       1.220  -2.188   0.027  0.00  0.00    +0.044 C 
ATOM     26  C   UNL     1       1.205  -0.681   0.022  0.00  0.00    -0.050 A 
ATOM     27  C   UNL     1       2.022   0.020   0.890  0.00  0.00    +0.005 A 
ATOM     28  C   UNL     1       2.010   1.401   0.888  0.00  0.00    +0.023 A 
ATOM     29  C   UNL     1       1.177   2.086   0.013  0.00  0.00    +0.033 A 
ATOM     30  C   UNL     1       0.358   1.379  -0.858  0.00  0.00    +0.023 A 
ATOM     31  C   UNL     1       0.374  -0.002  -0.851  0.00  0.00    +0.005 A 
ENDBRANCH  23  29
ENDBRANCH  21  23
ENDBRANCH  19  21
ENDBRANCH   1  19
TORSDOF 8
