REMARK  Name = ZINC36580994
REMARK  19 active torsions:
REMARK  status: ('A' for Active; 'I' for Inactive)
REMARK    1  A    between atoms: C_1  and  C_2
REMARK    2  A    between atoms: C_2  and  C_3
REMARK    3  A    between atoms: C_2  and  C_4
REMARK    4  A    between atoms: C_2  and  C_5
REMARK    5  A    between atoms: C_5  and  C_6
REMARK    6  A    between atoms: C_6  and  C_7
REMARK    7  A    between atoms: C_6  and  C_8
REMARK    8  A    between atoms: C_6  and  N_9
REMARK    9  A    between atoms: C_10  and  C_12
REMARK   10  A    between atoms: C_12  and  C_14
REMARK   11  A    between atoms: C_12  and  N_22
REMARK   12  A    between atoms: N_22  and  C_35
REMARK   13  A    between atoms: C_23  and  C_25
REMARK   14  A    between atoms: C_25  and  C_27
REMARK   15  A    between atoms: C_25  and  O_33
REMARK   16  A    between atoms: O_33  and  C_34
REMARK   17  A    between atoms: C_35  and  C_36
REMARK   18  A    between atoms: C_35  and  C_37
REMARK   19  A    between atoms: C_35  and  C_38
REMARK                            x       y       z     vdW  Elec       q    Type
REMARK                         _______ _______ _______ _____ _____    ______ ____
ROOT
ATOM      1  C   UNL     1       5.201  -0.460  -3.717  0.00  0.00    +0.196 C 
ENDROOT
BRANCH   1   2
ATOM      2  C   UNL     1       5.761  -1.671  -4.417  0.00  0.00    +0.018 A 
ATOM      3  C   UNL     1       6.715  -2.453  -3.790  0.00  0.00    +0.048 A 
ATOM      4  C   UNL     1       7.229  -3.565  -4.432  0.00  0.00    +0.020 A 
ATOM      5  C   UNL     1       6.791  -3.894  -5.701  0.00  0.00    +0.003 A 
ATOM      6  C   UNL     1       5.839  -3.114  -6.329  0.00  0.00    +0.020 A 
ATOM      7  C   UNL     1       5.319  -2.005  -5.684  0.00  0.00    +0.048 A 
ATOM      8 CL   UNL     1       4.117  -1.029  -6.469  0.00  0.00    -0.083 Cl
ATOM      9 CL   UNL     1       7.266  -2.039  -2.196  0.00  0.00    -0.083 Cl
ENDBRANCH   1   2
BRANCH   1  11
ATOM     10  N   UNL     1       3.711  -1.712  -2.190  0.00  0.00    -0.308 N 
ATOM     11  C   UNL     1       4.734  -0.848  -2.338  0.00  0.00    +0.239 C 
ATOM     12  O   UNL     1       5.280  -0.381  -1.360  0.00  0.00    -0.273 OA
ATOM     13  H   UNL     1       3.275  -2.085  -2.972  0.00  0.00    +0.149 HD
BRANCH  10  14
ATOM     14  C   UNL     1       3.258  -2.089  -0.849  0.00  0.00    +0.030 C 
ATOM     15  C   UNL     1       2.755  -0.846  -0.113  0.00  0.00    +0.031 C 
ATOM     16  C   UNL     1       4.423  -2.706  -0.072  0.00  0.00    +0.031 C 
BRANCH  14  17
ATOM     17  C   UNL     1       2.124  -3.110  -0.962  0.00  0.00    +0.031 C 
BRANCH  17  19
ATOM     18  C   UNL     1       1.500  -2.724  -3.350  0.00  0.00    +0.010 C 
ATOM     19  C   UNL     1       1.042  -2.568  -1.899  0.00  0.00    -0.036 C 
ATOM     20  C   UNL     1       0.800  -1.088  -1.597  0.00  0.00    +0.010 C 
ATOM     21  C   UNL     1      -0.255  -3.350  -1.686  0.00  0.00    +0.010 C 
ENDBRANCH  17  19
ENDBRANCH  14  17
ENDBRANCH  10  14
ENDBRANCH   1  11
BRANCH   1  22
ATOM     22  N   UNL     1       6.240   0.567  -3.611  0.00  0.00    -0.278 N 
ATOM     23  C   UNL     1       7.486   0.315  -4.059  0.00  0.00    +0.250 C 
ATOM     24  O   UNL     1       7.691  -0.645  -4.772  0.00  0.00    -0.272 OA
BRANCH  22  25
ATOM     25  C   UNL     1       5.925   1.869  -3.018  0.00  0.00    +0.030 C 
ATOM     26  C   UNL     1       4.536   1.816  -2.378  0.00  0.00    +0.031 C 
ATOM     27  C   UNL     1       6.966   2.208  -1.950  0.00  0.00    +0.031 C 
ATOM     28  C   UNL     1       5.943   2.944  -4.107  0.00  0.00    +0.031 C 
ENDBRANCH  22  25
BRANCH  23  29
ATOM     29  C   UNL     1       8.624   1.224  -3.673  0.00  0.00    +0.233 C 
BRANCH  29  30
ATOM     30  C   UNL     1       8.371   2.605  -4.221  0.00  0.00    -0.010 A 
ATOM     31  C   UNL     1       8.408   2.825  -5.585  0.00  0.00    +0.006 A 
ATOM     32  C   UNL     1       8.176   4.092  -6.087  0.00  0.00    +0.000 A 
ATOM     33  C   UNL     1       7.907   5.139  -5.225  0.00  0.00    +0.000 A 
ATOM     34  C   UNL     1       7.869   4.918  -3.861  0.00  0.00    +0.000 A 
ATOM     35  C   UNL     1       8.097   3.650  -3.359  0.00  0.00    +0.006 A 
ENDBRANCH  29  30
BRANCH  29  36
ATOM     36  O   UNL     1       9.845   0.714  -4.213  0.00  0.00    -0.366 OA
ATOM     37  C   UNL     1      10.530  -0.192  -3.345  0.00  0.00    +0.195 C 
ENDBRANCH  29  36
ENDBRANCH  23  29
ENDBRANCH   1  22
TORSDOF 10
