REMARK  Name = ZINC11975222
REMARK  8 active torsions:
REMARK  status: ('A' for Active; 'I' for Inactive)
REMARK    1  A    between atoms: C_1  and  C_2
REMARK    2  A    between atoms: C_2  and  C_3
REMARK    3  A    between atoms: C_2  and  C_4
REMARK    4  A    between atoms: C_4  and  C_5
REMARK    5  A    between atoms: C_7  and  C_11
REMARK    6  A    between atoms: N_13  and  C_14
REMARK    7  A    between atoms: C_14  and  C_15
REMARK    8  A    between atoms: C_22  and  C_25
REMARK                            x       y       z     vdW  Elec       q    Type
REMARK                         _______ _______ _______ _____ _____    ______ ____
ROOT
ATOM      1  C   UNL     1      -4.883   1.681   0.037  0.00  0.00    +0.195 C 
ATOM      2  C   UNL     1      -6.151   2.561  -0.078  0.00  0.00    +0.085 C 
ATOM      3  C   UNL     1      -7.129   1.819   0.812  0.00  0.00    +0.001 A 
ATOM      4  C   UNL     1      -8.499   1.895   0.944  0.00  0.00    +0.045 A 
ATOM      5  C   UNL     1      -9.159   1.078   1.849  0.00  0.00    +0.124 A 
ATOM      6  C   UNL     1      -8.440   0.185   2.622  0.00  0.00    +0.050 A 
ATOM      7  C   UNL     1      -7.057   0.107   2.496  0.00  0.00    +0.030 A 
ATOM      8  C   UNL     1      -6.388   0.935   1.582  0.00  0.00    +0.132 A 
ATOM      9  O   UNL     1      -5.058   1.038   1.310  0.00  0.00    -0.486 OA
ATOM     10  F   UNL     1     -10.502   1.155   1.976  0.00  0.00    -0.205 F 
ENDROOT
BRANCH   7  11
ATOM     11  C   UNL     1      -6.290  -0.853   3.327  0.00  0.00    +0.022 A 
ATOM     12  C   UNL     1      -5.364  -1.724   2.748  0.00  0.00    +0.122 A 
ATOM     13  N   UNL     1      -4.699  -2.560   3.527  0.00  0.00    -0.243 NA
ATOM     14  C   UNL     1      -4.906  -2.585   4.829  0.00  0.00    +0.221 A 
ATOM     15  N   UNL     1      -5.774  -1.784   5.414  0.00  0.00    -0.243 NA
ATOM     16  C   UNL     1      -6.478  -0.914   4.711  0.00  0.00    +0.122 A 
ENDBRANCH   7  11
BRANCH   1  17
ATOM     17  C   UNL     1      -3.621   2.546   0.034  0.00  0.00    +0.149 C 
BRANCH  17  20
ATOM     18  C   UNL     1      -1.205   2.229   0.020  0.00  0.00    +0.262 C 
ATOM     19  O   UNL     1      -1.076   3.438   0.026  0.00  0.00    -0.269 OA
ATOM     20  N   UNL     1      -2.438   1.683   0.024  0.00  0.00    -0.307 N 
ATOM     21  H   UNL     1      -2.541   0.719   0.019  0.00  0.00    +0.149 HD
BRANCH  18  24
ATOM     22  C   UNL     1       2.055   0.587  -0.014  0.00  0.00    +0.064 A 
ATOM     23  C   UNL     1       1.307   1.767  -0.001  0.00  0.00    +0.057 A 
ATOM     24  C   UNL     1      -0.016   1.362   0.009  0.00  0.00    +0.120 A 
ATOM     25  N   UNL     1       0.002  -0.004   0.002  0.00  0.00    -0.272 N 
ATOM     26  H   UNL     1      -0.807  -0.592   0.007  0.00  0.00    +0.189 HD
ATOM     27  N   UNL     1       1.218  -0.419  -0.012  0.00  0.00    -0.178 NA
BRANCH  22  28
ATOM     28  C   UNL     1       3.558   0.490  -0.029  0.00  0.00    +0.060 C 
BRANCH  28  30
ATOM     29  C   UNL     1       5.540  -0.577   1.057  0.00  0.00    +0.007 C 
ATOM     30  C   UNL     1       4.025  -0.376   1.143  0.00  0.00    -0.011 C 
ATOM     31  C   UNL     1       3.678   0.320   2.461  0.00  0.00    +0.007 C 
ENDBRANCH  28  30
ENDBRANCH  22  28
ENDBRANCH  18  24
ENDBRANCH  17  20
ENDBRANCH   1  17
TORSDOF 6
