REMARK  Name = ZINC54163470
REMARK  8 active torsions:
REMARK  status: ('A' for Active; 'I' for Inactive)
REMARK    1  A    between atoms: C_1  and  C_2
REMARK    2  A    between atoms: C_2  and  C_3
REMARK    3  A    between atoms: C_3  and  C_5
REMARK    4  A    between atoms: C_3  and  N_10
REMARK    5  A    between atoms: C_5  and  C_6
REMARK    6  A    between atoms: N_7  and  O_8
REMARK    7  A    between atoms: N_10  and  S_11
REMARK    8  A    between atoms: S_11  and  C_14
REMARK                            x       y       z     vdW  Elec       q    Type
REMARK                         _______ _______ _______ _____ _____    ______ ____
ROOT
ATOM      1  N   UNL     1       1.861  -0.141  -1.392  0.00  0.00    -0.186 NA
ATOM      2  H   UNL     1       2.402  -0.826  -0.970  0.00  0.00    +0.148 HD
ENDROOT
BRANCH   1   3
ATOM      3  S   UNL     1       2.572   1.245  -1.956  0.00  0.00    +0.060 S 
ATOM      4  O   UNL     1       1.564   2.247  -1.955  0.00  0.00    -0.153 OA
ATOM      5  O   UNL     1       3.794   1.392  -1.246  0.00  0.00    -0.153 OA
BRANCH   3   6
ATOM      6  C   UNL     1       3.000   0.962  -3.641  0.00  0.00    +0.120 A 
ATOM      7  C   UNL     1       2.360   1.665  -4.644  0.00  0.00    +0.045 A 
ATOM      8  C   UNL     1       2.696   1.444  -5.967  0.00  0.00    +0.020 A 
ATOM      9  C   UNL     1       3.672   0.517  -6.287  0.00  0.00    +0.016 A 
ATOM     10  C   UNL     1       4.313  -0.185  -5.285  0.00  0.00    +0.018 A 
ATOM     11  C   UNL     1       3.980   0.040  -3.961  0.00  0.00    +0.044 A 
ATOM     12 BR   UNL     1       4.862  -0.916  -2.588  0.00  0.00    -0.048 Br
ATOM     13 BR   UNL     1       1.819   2.405  -7.340  0.00  0.00    -0.050 Br
ENDBRANCH   3   6
ENDBRANCH   1   3
BRANCH   1  14
ATOM     14  C   UNL     1       0.415  -0.332  -1.531  0.00  0.00    +0.083 C 
BRANCH  14  16
ATOM     15  C   UNL     1      -0.106   1.665  -0.122  0.00  0.00    +0.005 C 
ATOM     16  C   UNL     1      -0.287   0.152  -0.261  0.00  0.00    +0.017 C 
ENDBRANCH  14  16
BRANCH  14  17
ATOM     17  C   UNL     1       0.115  -1.816  -1.746  0.00  0.00    +0.095 C 
BRANCH  17  18
ATOM     18  C   UNL     1       0.704  -2.263  -3.060  0.00  0.00    +0.133 C 
ATOM     19  N   UNL     1       1.344  -1.419  -3.800  0.00  0.00    -0.077 NA
ATOM     20  N   UNL     1       0.560  -3.569  -3.470  0.00  0.00    -0.344 N 
ATOM     21  H   UNL     1       0.080  -4.202  -2.914  0.00  0.00    +0.144 HD
ATOM     22  H   UNL     1       0.940  -3.857  -4.316  0.00  0.00    +0.144 HD
BRANCH  19  23
ATOM     23  O   UNL     1       1.898  -1.839  -5.034  0.00  0.00    -0.408 OA
ATOM     24  H   UNL     1       2.357  -1.139  -5.517  0.00  0.00    +0.328 HD
ENDBRANCH  19  23
ENDBRANCH  17  18
ENDBRANCH  14  17
ENDBRANCH   1  14
TORSDOF 7
