REMARK  Name = ZINC41004539
REMARK  8 active torsions:
REMARK  status: ('A' for Active; 'I' for Inactive)
REMARK    1  A    between atoms: C_1  and  C_2
REMARK    2  A    between atoms: C_2  and  S_3
REMARK    3  A    between atoms: S_3  and  C_4
REMARK    4  A    between atoms: C_9  and  C_19
REMARK    5  A    between atoms: C_23  and  O_25
REMARK    6  A    between atoms: O_25  and  C_26
REMARK    7  A    between atoms: C_26  and  C_27
REMARK    8  A    between atoms: C_30  and  C_33
REMARK                            x       y       z     vdW  Elec       q    Type
REMARK                         _______ _______ _______ _____ _____    ______ ____
ROOT
ATOM      1  C   UNL     1      -1.508  -2.383   0.004  0.00  0.00    +0.210 A 
ATOM      2  N   UNL     1      -0.338  -3.039  -0.005  0.00  0.00    -0.187 NA
ATOM      3  C   UNL     1      -0.559  -4.325  -0.009  0.00  0.00    +0.219 A 
ATOM      4  N   UNL     1      -1.900  -4.523  -0.008  0.00  0.00    -0.220 N 
ATOM      5  N   UNL     1      -2.490  -3.260   0.008  0.00  0.00    -0.141 NA
ATOM      6  C   UNL     1      -2.516  -5.844  -0.021  0.00  0.00    +0.176 C 
ATOM      7  C   UNL     1      -1.483  -6.899   0.307  0.00  0.00    +0.041 C 
ATOM      8  C   UNL     1      -0.159  -6.638   0.289  0.00  0.00    +0.020 C 
ATOM      9  N   UNL     1       0.329  -5.388  -0.011  0.00  0.00    -0.287 N 
ATOM     10  C   UNL     1       0.850  -7.719   0.598  0.00  0.00    +0.052 C 
ATOM     11  C   UNL     1       0.253  -8.706   1.603  0.00  0.00    +0.014 C 
ATOM     12  C   UNL     1      -1.023  -9.299   0.997  0.00  0.00    +0.080 C 
ATOM     13  C   UNL     1      -1.961  -8.180   0.640  0.00  0.00    +0.163 C 
ATOM     14  O   UNL     1      -3.158  -8.386   0.637  0.00  0.00    -0.292 OA
ATOM     15  H   UNL     1       1.267  -5.255  -0.220  0.00  0.00    +0.155 HD
ENDROOT
BRANCH   6  16
ATOM     16  C   UNL     1      -3.088  -6.115  -1.389  0.00  0.00    -0.015 A 
ATOM     17  C   UNL     1      -2.258  -6.126  -2.495  0.00  0.00    +0.006 A 
ATOM     18  C   UNL     1      -2.780  -6.375  -3.751  0.00  0.00    +0.004 A 
ATOM     19  C   UNL     1      -4.132  -6.613  -3.904  0.00  0.00    +0.045 A 
ATOM     20  C   UNL     1      -4.966  -6.603  -2.796  0.00  0.00    +0.121 A 
ATOM     21  C   UNL     1      -4.439  -6.359  -1.536  0.00  0.00    +0.051 A 
BRANCH  20  22
ATOM     22  O   UNL     1      -6.297  -6.837  -2.943  0.00  0.00    -0.487 OA
BRANCH  22  23
ATOM     23  C   UNL     1      -6.768  -7.087  -4.269  0.00  0.00    +0.264 C 
BRANCH  23  24
ATOM     24  C   UNL     1      -8.256  -7.323  -4.237  0.00  0.00    -0.010 A 
ATOM     25  C   UNL     1      -8.749  -8.603  -4.063  0.00  0.00    +0.007 A 
ATOM     26  C   UNL     1     -10.114  -8.819  -4.034  0.00  0.00    +0.004 A 
ATOM     27  C   UNL     1     -10.986  -7.756  -4.177  0.00  0.00    -0.050 A 
ATOM     28  C   UNL     1     -10.493  -6.476  -4.350  0.00  0.00    +0.004 A 
ATOM     29  C   UNL     1      -9.128  -6.259  -4.375  0.00  0.00    +0.007 A 
ATOM     30  C   UNL     1     -12.474  -7.993  -4.146  0.00  0.00    +0.044 C 
ENDBRANCH  23  24
ENDBRANCH  22  23
ENDBRANCH  20  22
ENDBRANCH   6  16
BRANCH   1  31
ATOM     31  S   UNL     1      -1.700  -0.632   0.015  0.00  0.00    -0.085 S 
BRANCH  31  33
ATOM     32  C   UNL     1      -0.019   1.526   0.010  0.00  0.00    +0.016 C 
ATOM     33  C   UNL     1       0.002  -0.004   0.002  0.00  0.00    +0.074 C 
ENDBRANCH  31  33
ENDBRANCH   1  31
TORSDOF 6
