REMARK  Name = ZINC02703706
REMARK  13 active torsions:
REMARK  status: ('A' for Active; 'I' for Inactive)
REMARK    1  A    between atoms: C_1  and  C_2
REMARK    2  A    between atoms: C_2  and  C_3
REMARK    3  A    between atoms: C_2  and  C_4
REMARK    4  A    between atoms: C_2  and  C_5
REMARK    5  A    between atoms: C_7  and  C_16
REMARK    6  A    between atoms: C_9  and  C_12
REMARK    7  A    between atoms: C_10  and  O_11
REMARK    8  A    between atoms: C_12  and  C_13
REMARK    9  A    between atoms: C_12  and  C_14
REMARK   10  A    between atoms: C_12  and  C_15
REMARK   11  A    between atoms: N_17  and  N_18
REMARK   12  A    between atoms: C_23  and  C_24
REMARK   13  A    between atoms: C_23  and  N_67
REMARK                            x       y       z     vdW  Elec       q    Type
REMARK                         _______ _______ _______ _____ _____    ______ ____
ROOT
ATOM      1  C   UNL     1      -1.107  -0.668   0.107  0.00  0.00    +0.138 C 
ATOM      2  N   UNL     1       0.002  -0.004   0.002  0.00  0.00    -0.192 NA
ENDROOT
BRANCH   2   3
ATOM      3  N   UNL     1      -0.017   1.397   0.008  0.00  0.00    -0.259 N 
ATOM      4  C   UNL     1       1.235   2.169   0.018  0.00  0.00    +0.107 C 
ATOM      5  C   UNL     1       1.172   3.204  -1.116  0.00  0.00    -0.058 C 
ATOM      6  C   UNL     1      -1.253   3.171  -1.119  0.00  0.00    -0.058 C 
ATOM      7  C   UNL     1      -1.290   2.134   0.009  0.00  0.00    +0.107 C 
ATOM      8  N   UNL     1      -0.052   4.017  -0.947  0.00  0.00    +0.384 N 
ATOM      9  H   UNL     1      -0.059   4.416  -0.001  0.00  0.00    -0.081 HD
BRANCH   8  10
ATOM     10  C   UNL     1      -0.066   5.118  -1.932  0.00  0.00    -0.043 C 
BRANCH  10  11
ATOM     11  C   UNL     1       1.042   6.083  -1.597  0.00  0.00    -0.064 A 
ATOM     12  C   UNL     1       0.805   7.134  -0.732  0.00  0.00    +0.003 A 
ATOM     13  C   UNL     1       1.823   8.016  -0.420  0.00  0.00    +0.020 A 
ATOM     14  C   UNL     1       3.076   7.852  -0.983  0.00  0.00    +0.041 A 
ATOM     15  C   UNL     1       3.311   6.803  -1.854  0.00  0.00    +0.020 A 
ATOM     16  C   UNL     1       2.294   5.919  -2.160  0.00  0.00    +0.003 A 
ATOM     17 CL   UNL     1       4.353   8.963  -0.597  0.00  0.00    -0.084 Cl
ENDBRANCH  10  11
ENDBRANCH   8  10
ENDBRANCH   2   3
BRANCH   1  20
ATOM     18  C   UNL     1      -2.241  -4.232   0.418  0.00  0.00    +0.000 A 
ATOM     19  C   UNL     1      -2.272  -2.857   0.323  0.00  0.00    +0.017 A 
ATOM     20  C   UNL     1      -1.079  -2.139   0.210  0.00  0.00    -0.005 A 
ATOM     21  C   UNL     1       0.141  -2.820   0.189  0.00  0.00    +0.017 A 
ATOM     22  C   UNL     1       0.163  -4.194   0.290  0.00  0.00    +0.000 A 
ATOM     23  C   UNL     1      -1.026  -4.903   0.402  0.00  0.00    +0.124 A 
BRANCH  18  25
ATOM     24  C   UNL     1      -4.711  -4.036   0.534  0.00  0.00    +0.015 C 
ATOM     25  C   UNL     1      -3.528  -5.007   0.540  0.00  0.00    -0.009 C 
ATOM     26  C   UNL     1      -3.655  -5.973  -0.639  0.00  0.00    +0.015 C 
ATOM     27  C   UNL     1      -3.525  -5.798   1.850  0.00  0.00    +0.015 C 
ENDBRANCH  18  25
BRANCH  22  28
ATOM     28  C   UNL     1       1.478  -4.929   0.272  0.00  0.00    -0.009 C 
ATOM     29  C   UNL     1       2.623  -3.923   0.141  0.00  0.00    +0.015 C 
ATOM     30  C   UNL     1       1.639  -5.719   1.573  0.00  0.00    +0.015 C 
ATOM     31  C   UNL     1       1.508  -5.893  -0.916  0.00  0.00    +0.015 C 
ENDBRANCH  22  28
BRANCH  23  32
ATOM     32  O   UNL     1      -1.000  -6.259   0.495  0.00  0.00    -0.506 OA
ATOM     33  H   UNL     1      -1.039  -6.713  -0.358  0.00  0.00    +0.292 HD
ENDBRANCH  23  32
ENDBRANCH   1  20
TORSDOF 7
