REMARK  Name = ZINC05445456
REMARK  5 active torsions:
REMARK  status: ('A' for Active; 'I' for Inactive)
REMARK    1  A    between atoms: C_4  and  N_7
REMARK    2  A    between atoms: C_13  and  N_56
REMARK    3  A    between atoms: P_15  and  O_17
REMARK    4  A    between atoms: O_17  and  C_18
REMARK    5  A    between atoms: C_18  and  C_19
REMARK                            x       y       z     vdW  Elec       q    Type
REMARK                         _______ _______ _______ _____ _____    ______ ____
ROOT
ATOM      1  N   UNL     1       3.664   2.225   0.148  0.00  0.00    -0.170 N 
ATOM      2  N   UNL     1       4.931   1.654  -0.026  0.00  0.00    -0.177 NA
ATOM      3  C   UNL     1       5.995   2.354  -0.114  0.00  0.00    +0.073 C 
ATOM      4  C   UNL     1       7.426   1.866  -0.286  0.00  0.00    +0.058 C 
ATOM      5  C   UNL     1       8.343   2.926   0.339  0.00  0.00    +0.012 C 
ATOM      6  C   UNL     1       8.113   4.297  -0.292  0.00  0.00    +0.050 C 
ATOM      7  C   UNL     1       6.681   4.747  -0.073  0.00  0.00    +0.004 C 
ATOM      8  C   UNL     1       5.749   3.814  -0.011  0.00  0.00    +0.064 C 
ATOM      9  P   UNL     1       3.945   3.868   0.211  0.00  0.00    +0.183 P 
ATOM     10  S   UNL     1       3.474   4.585   1.865  0.00  0.00    -0.011 S 
ENDROOT
BRANCH   1  14
ATOM     11  C   UNL     1       0.010   0.258   0.455  0.00  0.00    +0.000 A 
ATOM     12  C   UNL     1       0.059   1.638   0.530  0.00  0.00    +0.002 A 
ATOM     13  C   UNL     1       1.270   2.294   0.429  0.00  0.00    +0.025 A 
ATOM     14  C   UNL     1       2.440   1.566   0.251  0.00  0.00    +0.059 A 
ATOM     15  C   UNL     1       2.387   0.179   0.176  0.00  0.00    +0.025 A 
ATOM     16  C   UNL     1       1.173  -0.470   0.279  0.00  0.00    +0.002 A 
ENDBRANCH   1  14
BRANCH   7  21
ATOM     17  C   UNL     1       6.595   7.123  -0.961  0.00  0.00    +0.085 C 
ATOM     18  C   UNL     1       6.107   8.462  -0.368  0.00  0.00    +0.019 C 
ATOM     19  C   UNL     1       6.159   8.203   1.160  0.00  0.00    +0.019 C 
ATOM     20  C   UNL     1       5.744   6.712   1.237  0.00  0.00    +0.085 C 
ATOM     21  N   UNL     1       6.026   6.115  -0.094  0.00  0.00    -0.396 NA
ATOM     22  H   UNL     1       5.102   5.930  -0.502  0.00  0.00    +0.126 HD
ENDBRANCH   7  21
BRANCH   9  23
ATOM     23  O   UNL     1       3.219   4.644  -0.998  0.00  0.00    -0.330 OA
BRANCH  23  24
ATOM     24  C   UNL     1       3.198   6.069  -1.108  0.00  0.00    +0.198 C 
BRANCH  24  25
ATOM     25  C   UNL     1       2.315   6.476  -2.289  0.00  0.00    +0.144 C 
ATOM     26  C   UNL     1       2.379   8.006  -2.486  0.00  0.00    +0.036 C 
ATOM     27  C   UNL     1       0.909   8.353  -2.847  0.00  0.00    +0.031 C 
ATOM     28  C   UNL     1       0.142   7.317  -1.987  0.00  0.00    +0.160 C 
ATOM     29  O   UNL     1       0.952   6.131  -2.018  0.00  0.00    -0.374 OA
ENDBRANCH  24  25
ENDBRANCH  23  24
ENDBRANCH   9  23
TORSDOF 5
