REMARK  Name = ZINC46551223
REMARK  13 active torsions:
REMARK  status: ('A' for Active; 'I' for Inactive)
REMARK    1  A    between atoms: C_1  and  C_2
REMARK    2  A    between atoms: C_4  and  O_12
REMARK    3  A    between atoms: C_5  and  C_9
REMARK    4  A    between atoms: C_9  and  C_10
REMARK    5  A    between atoms: C_9  and  C_11
REMARK    6  A    between atoms: O_12  and  C_13
REMARK    7  A    between atoms: C_13  and  C_14
REMARK    8  A    between atoms: C_14  and  C_16
REMARK    9  A    between atoms: C_14  and  O_28
REMARK   10  A    between atoms: C_16  and  N_17
REMARK   11  A    between atoms: C_20  and  N_23
REMARK   12  A    between atoms: N_23  and  S_24
REMARK   13  A    between atoms: S_24  and  C_27
REMARK                            x       y       z     vdW  Elec       q    Type
REMARK                         _______ _______ _______ _____ _____    ______ ____
ROOT
ATOM      1  C   UNL     1       0.017  -2.893  -4.798  0.00  0.00    +0.135 C 
ENDROOT
BRANCH   1   2
ATOM      2  O   UNL     1       1.248  -3.617  -4.839  0.00  0.00    -0.390 OA
ATOM      3  H   UNL     1       2.033  -3.056  -4.903  0.00  0.00    +0.210 HD
ENDBRANCH   1   2
BRANCH   1   4
ATOM      4  C   UNL     1       0.011  -1.966  -3.581  0.00  0.00    +0.258 C 
BRANCH   4   5
ATOM      5  O   UNL     1       0.028  -2.749  -2.386  0.00  0.00    -0.489 OA
BRANCH   5   9
ATOM      6  C   UNL     1      -0.018   1.503   0.010  0.00  0.00    +0.045 C 
ATOM      7  C   UNL     1       0.002  -0.004   0.002  0.00  0.00    -0.029 A 
ATOM      8  C   UNL     1       0.006  -0.688  -1.199  0.00  0.00    +0.050 A 
ATOM      9  C   UNL     1       0.025  -2.075  -1.206  0.00  0.00    +0.124 A 
ATOM     10  C   UNL     1       0.040  -2.773  -0.007  0.00  0.00    -0.002 A 
ATOM     11  C   UNL     1       0.036  -2.086   1.192  0.00  0.00    +0.027 A 
ATOM     12  C   UNL     1       0.023  -0.702   1.196  0.00  0.00    +0.044 A 
ATOM     13 CL   UNL     1       0.025   0.160   2.704  0.00  0.00    -0.083 Cl
BRANCH  10  14
ATOM     14  C   UNL     1       0.060  -4.279  -0.012  0.00  0.00    +0.016 C 
ATOM     15  C   UNL     1       1.319  -4.775   0.702  0.00  0.00    +0.012 C 
ATOM     16  C   UNL     1      -1.179  -4.808   0.714  0.00  0.00    +0.012 C 
ENDBRANCH  10  14
ENDBRANCH   5   9
ENDBRANCH   4   5
ENDBRANCH   1   4
BRANCH   1  17
ATOM     17  C   UNL     1      -0.126  -2.060  -6.074  0.00  0.00    -0.044 C 
BRANCH  17  18
ATOM     18  N   UNL     1      -0.240  -2.955  -7.233  0.00  0.00    +0.382 N 
ATOM     19  C   UNL     1      -1.479  -3.735  -7.127  0.00  0.00    -0.077 C 
ATOM     20  C   UNL     1      -1.563  -4.727  -8.289  0.00  0.00    +0.002 C 
ATOM     21  C   UNL     1      -1.555  -3.956  -9.612  0.00  0.00    +0.073 C 
ATOM     22  C   UNL     1      -0.295  -3.089  -9.679  0.00  0.00    +0.002 C 
ATOM     23  C   UNL     1      -0.258  -2.158  -8.465  0.00  0.00    -0.077 C 
ATOM     24  H   UNL     1       0.549  -3.583  -7.250  0.00  0.00    -0.082 HD
BRANCH  21  25
ATOM     25  N   UNL     1      -1.559  -4.902 -10.730  0.00  0.00    -0.192 NA
ATOM     26  H   UNL     1      -1.083  -5.744 -10.655  0.00  0.00    +0.148 HD
BRANCH  25  27
ATOM     27  S   UNL     1      -2.376  -4.535 -12.123  0.00  0.00    +0.027 S 
ATOM     28  O   UNL     1      -2.188  -5.666 -12.963  0.00  0.00    -0.158 OA
ATOM     29  O   UNL     1      -3.678  -4.161 -11.692  0.00  0.00    -0.158 OA
ATOM     30  C   UNL     1      -1.508  -3.097 -12.808  0.00  0.00    +0.214 C 
ENDBRANCH  25  27
ENDBRANCH  21  25
ENDBRANCH  17  18
ENDBRANCH   1  17
TORSDOF 9
