REMARK  Name = ZINC09061337
REMARK  5 active torsions:
REMARK  status: ('A' for Active; 'I' for Inactive)
REMARK    1  A    between atoms: C_1  and  C_2
REMARK    2  A    between atoms: C_2  and  C_3
REMARK    3  A    between atoms: C_2  and  C_4
REMARK    4  A    between atoms: C_2  and  C_5
REMARK    5  A    between atoms: C_5  and  C_7
REMARK                            x       y       z     vdW  Elec       q    Type
REMARK                         _______ _______ _______ _____ _____    ______ ____
ROOT
ATOM      1  C   UNL     1       0.646  -2.203  -1.163  0.00  0.00    +0.153 C 
ATOM      2  C   UNL     1       1.660  -2.830  -0.211  0.00  0.00    +0.119 C 
ATOM      3  C   UNL     1       1.829  -4.204  -0.970  0.00  0.00    +0.115 C 
ATOM      4  C   UNL     1       2.075  -3.774  -2.355  0.00  0.00    +0.110 C 
ATOM      5  N   UNL     1       1.119  -2.610  -2.507  0.00  0.00    -0.311 N 
ATOM      6  C   UNL     1       0.758  -2.105  -3.745  0.00  0.00    +0.038 A 
ATOM      7  C   UNL     1       0.459  -0.778  -3.974  0.00  0.00    +0.025 A 
ATOM      8  C   UNL     1       0.100  -0.367  -5.246  0.00  0.00    +0.017 A 
ATOM      9  C   UNL     1       0.039  -1.278  -6.287  0.00  0.00    +0.019 A 
ATOM     10  C   UNL     1       0.339  -2.610  -6.073  0.00  0.00    +0.025 A 
ATOM     11  C   UNL     1       0.705  -3.037  -4.802  0.00  0.00    -0.003 A 
ATOM     12  C   UNL     1       1.048  -4.442  -4.518  0.00  0.00    +0.007 C 
ATOM     13  C   UNL     1       1.688  -4.800  -3.392  0.00  0.00    -0.003 C 
ATOM     14 BR   UNL     1      -0.460  -0.696  -8.016  0.00  0.00    -0.050 Br
ATOM     15  C   UNL     1       2.401  -5.044   0.051  0.00  0.00    +0.245 C 
ATOM     16  O   UNL     1       3.232  -6.082  -0.130  0.00  0.00    -0.273 OA
ATOM     17  N   UNL     1       1.938  -4.579   1.212  0.00  0.00    -0.145 NA
ATOM     18  C   UNL     1       1.235  -3.406   1.103  0.00  0.00    +0.245 C 
ATOM     19  O   UNL     1       0.440  -2.936   1.891  0.00  0.00    -0.273 OA
ENDROOT
BRANCH   1  20
ATOM     20  C   UNL     1       0.654  -0.702  -1.032  0.00  0.00    +0.160 C 
ATOM     21  O   UNL     1       1.694  -0.094  -1.118  0.00  0.00    -0.295 OA
BRANCH  20  23
ATOM     22  C   UNL     1      -0.375   1.546  -0.848  0.00  0.00    +0.018 C 
ATOM     23  C   UNL     1      -0.636   0.040  -0.792  0.00  0.00    +0.022 C 
ATOM     24  C   UNL     1      -1.190  -0.331   0.585  0.00  0.00    +0.018 C 
ATOM     25  C   UNL     1      -1.652  -0.342  -1.870  0.00  0.00    +0.018 C 
ENDBRANCH  20  23
ENDBRANCH   1  20
TORSDOF 2
