REMARK  Name = ZINC14461031
REMARK  7 active torsions:
REMARK  status: ('A' for Active; 'I' for Inactive)
REMARK    1  A    between atoms: C_1  and  C_2
REMARK    2  A    between atoms: C_2  and  C_3
REMARK    3  A    between atoms: C_3  and  N_4
REMARK    4  A    between atoms: N_4  and  S_5
REMARK    5  A    between atoms: S_5  and  C_8
REMARK    6  A    between atoms: C_21  and  C_24
REMARK    7  A    between atoms: C_29  and  O_30
REMARK                            x       y       z     vdW  Elec       q    Type
REMARK                         _______ _______ _______ _____ _____    ______ ____
ROOT
ATOM      1  C   UNL     1      -0.071   0.261  -4.700  0.00  0.00    +0.106 A 
ATOM      2  C   UNL     1       1.290   0.028  -4.634  0.00  0.00    +0.030 A 
ATOM      3  C   UNL     1       1.986   0.308  -3.476  0.00  0.00    +0.025 A 
ATOM      4  C   UNL     1       1.325   0.827  -2.368  0.00  0.00    +0.031 A 
ATOM      5  C   UNL     1      -0.050   1.073  -2.447  0.00  0.00    -0.018 A 
ATOM      6  C   UNL     1      -0.737   0.784  -3.607  0.00  0.00    +0.034 A 
ATOM      7  C   UNL     1      -0.707   1.665  -1.262  0.00  0.00    +0.049 C 
ATOM      8  C   UNL     1      -2.150   1.443  -0.990  0.00  0.00    -0.023 C 
ATOM      9  C   UNL     1      -2.339   1.440   0.324  0.00  0.00    -0.030 C 
ATOM     10  C   UNL     1      -0.983   1.630   1.065  0.00  0.00    +0.033 C 
ATOM     11  C   UNL     1      -0.013   1.086   0.008  0.00  0.00    +0.029 C 
ATOM     12  C   UNL     1       1.393   1.659  -0.002  0.00  0.00    +0.108 C 
ATOM     13  N   UNL     1       2.049   1.086  -1.198  0.00  0.00    -0.336 N 
ATOM     14  H   UNL     1       2.998   0.887  -1.171  0.00  0.00    +0.147 HD
ENDROOT
BRANCH  12  15
ATOM     15  C   UNL     1       1.341   3.162  -0.103  0.00  0.00    +0.015 A 
ATOM     16  C   UNL     1       1.451   3.776  -1.336  0.00  0.00    +0.024 A 
ATOM     17  C   UNL     1       1.400   5.155  -1.430  0.00  0.00    +0.018 A 
ATOM     18  C   UNL     1       1.248   5.923  -0.289  0.00  0.00    +0.019 A 
ATOM     19  C   UNL     1       1.143   5.313   0.946  0.00  0.00    +0.047 A 
ATOM     20  C   UNL     1       1.190   3.930   1.042  0.00  0.00    +0.122 A 
ATOM     21 BR   UNL     1       1.544   5.993  -3.119  0.00  0.00    -0.050 Br
BRANCH  20  22
ATOM     22  O   UNL     1       1.087   3.328   2.256  0.00  0.00    -0.506 OA
ATOM     23  H   UNL     1       1.935   3.190   2.700  0.00  0.00    +0.292 HD
ENDBRANCH  20  22
ENDBRANCH  12  15
BRANCH   1  24
ATOM     24  S   UNL     1      -0.958  -0.108  -6.177  0.00  0.00    +0.058 S 
ATOM     25  O   UNL     1      -2.120   0.710  -6.169  0.00  0.00    -0.153 OA
ATOM     26  O   UNL     1      -0.012  -0.077  -7.237  0.00  0.00    -0.153 OA
BRANCH  24  27
ATOM     27  N   UNL     1      -1.481  -1.675  -6.056  0.00  0.00    -0.190 NA
ATOM     28  H   UNL     1      -1.142  -2.348  -6.666  0.00  0.00    +0.148 HD
BRANCH  27  29
ATOM     29  C   UNL     1      -2.456  -2.043  -5.026  0.00  0.00    +0.105 C 
BRANCH  29  31
ATOM     30  C   UNL     1      -4.065  -3.802  -4.276  0.00  0.00    +0.005 C 
ATOM     31  C   UNL     1      -3.047  -3.417  -5.352  0.00  0.00    +0.013 C 
ENDBRANCH  29  31
ENDBRANCH  27  29
ENDBRANCH  24  27
ENDBRANCH   1  24
TORSDOF 6
