REMARK  Name = ZINC64062107
REMARK  7 active torsions:
REMARK  status: ('A' for Active; 'I' for Inactive)
REMARK    1  A    between atoms: C_1  and  C_2
REMARK    2  A    between atoms: C_5  and  C_35
REMARK    3  A    between atoms: C_6  and  N_8
REMARK    4  A    between atoms: C_9  and  O_34
REMARK    5  A    between atoms: C_12  and  O_33
REMARK    6  A    between atoms: C_13  and  C_17
REMARK    7  A    between atoms: N_31  and  C_32
REMARK                            x       y       z     vdW  Elec       q    Type
REMARK                         _______ _______ _______ _____ _____    ______ ____
ROOT
ATOM      1  N   UNL     1       0.073  -2.761   2.425  0.00  0.00    -0.225 N 
ATOM      2  C   UNL     1       1.337  -3.151   3.033  0.00  0.00    +0.338 C 
ATOM      3  N   UNL     1       1.182  -4.268   3.950  0.00  0.00    -0.204 NA
ATOM      4  C   UNL     1       0.074  -4.608   4.486  0.00  0.00    +0.200 C 
ATOM      5  C   UNL     1      -1.214  -3.885   4.223  0.00  0.00    +0.180 C 
ATOM      6  C   UNL     1      -1.114  -3.075   2.962  0.00  0.00    +0.237 C 
ATOM      7  O   UNL     1      -2.129  -2.701   2.415  0.00  0.00    -0.274 OA
ENDROOT
BRANCH   5   8
ATOM      8  C   UNL     1      -1.517  -2.948   5.394  0.00  0.00    +0.104 C 
ATOM      9  C   UNL     1      -0.348  -1.982   5.597  0.00  0.00    +0.125 C 
ATOM     10  C   UNL     1      -0.651  -1.208   6.874  0.00  0.00    -0.036 C 
ATOM     11  C   UNL     1      -0.583   0.078   6.559  0.00  0.00    -0.001 A 
ATOM     12  C   UNL     1      -0.695   1.296   7.377  0.00  0.00    +0.010 A 
ATOM     13  C   UNL     1      -0.588   2.477   6.712  0.00  0.00    +0.001 A 
ATOM     14  C   UNL     1      -0.384   2.567   5.331  0.00  0.00    +0.002 A 
ATOM     15  C   UNL     1      -0.264   1.499   4.503  0.00  0.00    +0.026 A 
ATOM     16  C   UNL     1      -0.353   0.202   5.087  0.00  0.00    +0.043 A 
ATOM     17  N   UNL     1      -0.247  -0.989   4.529  0.00  0.00    -0.376 N 
ATOM     18  C   UNL     1      -1.040  -1.911   8.153  0.00  0.00    +0.049 C 
ATOM     19  C   UNL     1      -2.129  -2.929   7.769  0.00  0.00    +0.089 C 
ATOM     20  N   UNL     1      -1.688  -3.734   6.626  0.00  0.00    -0.299 NA
ATOM     21  C   UNL     1      -2.590  -4.872   6.404  0.00  0.00    +0.105 C 
ATOM     22  H   UNL     1      -0.128  -1.180   3.585  0.00  0.00    +0.160 HD
ENDBRANCH   5   8
BRANCH   1  28
ATOM     23  C   UNL     1       0.182   1.595   0.148  0.00  0.00    +0.044 C 
ATOM     24  C   UNL     1       0.151   0.089   0.103  0.00  0.00    -0.049 A 
ATOM     25  C   UNL     1       0.147  -0.566  -1.115  0.00  0.00    +0.004 A 
ATOM     26  C   UNL     1       0.119  -1.947  -1.160  0.00  0.00    +0.005 A 
ATOM     27  C   UNL     1       0.095  -2.678   0.011  0.00  0.00    -0.029 A 
ATOM     28  C   UNL     1       0.098  -2.024   1.236  0.00  0.00    +0.044 A 
ATOM     29  C   UNL     1       0.132  -0.636   1.278  0.00  0.00    +0.027 A 
ATOM     30  C   UNL     1       0.064  -4.184  -0.039  0.00  0.00    +0.045 C 
ENDBRANCH   1  28
BRANCH   4  31
ATOM     31  O   UNL     1       0.062  -5.664   5.325  0.00  0.00    -0.495 OA
ATOM     32  H   UNL     1       0.926  -6.080   5.447  0.00  0.00    +0.293 HD
ENDBRANCH   4  31
BRANCH   2  33
ATOM     33  O   UNL     1       1.871  -2.035   3.749  0.00  0.00    -0.356 OA
ATOM     34  H   UNL     1       2.716  -2.215   4.184  0.00  0.00    +0.214 HD
ENDBRANCH   2  33
TORSDOF 4
