REMARK  Name = ZINC28559606
REMARK  8 active torsions:
REMARK  status: ('A' for Active; 'I' for Inactive)
REMARK    1  A    between atoms: C_1  and  C_2
REMARK    2  A    between atoms: C_2  and  C_3
REMARK    3  A    between atoms: C_3  and  S_4
REMARK    4  A    between atoms: S_4  and  N_7
REMARK    5  A    between atoms: N_7  and  C_8
REMARK    6  A    between atoms: C_11  and  N_14
REMARK    7  A    between atoms: C_18  and  C_25
REMARK    8  A    between atoms: N_20  and  C_24
REMARK                            x       y       z     vdW  Elec       q    Type
REMARK                         _______ _______ _______ _____ _____    ______ ____
ROOT
ATOM      1  C   UNL     1      -1.220   1.652  -0.155  0.00  0.00    +0.048 A 
ATOM      2  C   UNL     1      -1.397   2.899   0.432  0.00  0.00    +0.026 A 
ATOM      3  C   UNL     1      -2.585   3.580   0.261  0.00  0.00    +0.028 A 
ATOM      4  C   UNL     1      -3.608   3.014  -0.489  0.00  0.00    +0.051 A 
ATOM      5  C   UNL     1      -3.433   1.766  -1.072  0.00  0.00    +0.028 A 
ATOM      6  C   UNL     1      -2.243   1.087  -0.906  0.00  0.00    +0.026 A 
ENDROOT
BRANCH   4   7
ATOM      7  N   UNL     1      -4.817   3.703  -0.658  0.00  0.00    -0.266 N 
ATOM      8  C   UNL     1      -5.158   4.177  -1.887  0.00  0.00    +0.207 A 
ATOM      9  N   UNL     1      -6.270   4.818  -2.099  0.00  0.00    -0.233 NA
ATOM     10  C   UNL     1      -7.145   5.055  -1.090  0.00  0.00    +0.118 A 
ATOM     11  C   UNL     1      -8.390   5.706  -1.014  0.00  0.00    +0.086 A 
ATOM     12  N   UNL     1      -8.818   5.651   0.219  0.00  0.00    -0.174 NA
ATOM     13  N   UNL     1      -7.882   4.966   1.006  0.00  0.00    -0.260 N 
ATOM     14  C   UNL     1      -6.845   4.596   0.198  0.00  0.00    +0.152 A 
ATOM     15  C   UNL     1      -5.632   3.897   0.402  0.00  0.00    +0.284 A 
ATOM     16  O   UNL     1      -5.331   3.479   1.507  0.00  0.00    -0.265 OA
ATOM     17  C   UNL     1      -7.997   4.695   2.441  0.00  0.00    +0.173 C 
ATOM     18  C   UNL     1      -9.111   6.360  -2.165  0.00  0.00    +0.070 C 
ENDBRANCH   4   7
BRANCH   1  19
ATOM     19  N   UNL     1      -0.015   0.965   0.013  0.00  0.00    -0.221 N 
ATOM     20  H   UNL     1      -0.023  -0.107   0.262  0.00  0.00    +0.173 HD
BRANCH  19  21
ATOM     21  S   UNL     1       1.426   1.763  -0.161  0.00  0.00    +0.043 S 
ATOM     22  O   UNL     1       1.333   2.875   0.718  0.00  0.00    -0.155 OA
ATOM     23  O   UNL     1       2.419   0.766   0.035  0.00  0.00    -0.155 OA
BRANCH  21  24
ATOM     24  C   UNL     1       1.439   2.329  -1.885  0.00  0.00    +0.188 C 
BRANCH  24  26
ATOM     25  C   UNL     1       2.799   3.457  -3.651  0.00  0.00    +0.005 C 
ATOM     26  C   UNL     1       2.788   2.980  -2.197  0.00  0.00    +0.021 C 
ENDBRANCH  24  26
ENDBRANCH  21  24
ENDBRANCH  19  21
ENDBRANCH   1  19
TORSDOF 5
