REMARK  Name = ZINC40154236
REMARK  5 active torsions:
REMARK  status: ('A' for Active; 'I' for Inactive)
REMARK    1  A    between atoms: C_5  and  C_6
REMARK    2  A    between atoms: N_11  and  C_12
REMARK    3  A    between atoms: C_12  and  C_13
REMARK    4  A    between atoms: C_13  and  C_14
REMARK    5  A    between atoms: N_16  and  N_17
REMARK                            x       y       z     vdW  Elec       q    Type
REMARK                         _______ _______ _______ _____ _____    ______ ____
ROOT
ATOM      1  C   UNL     1      -2.025  -2.621   4.480  0.00  0.00    +0.228 C 
ATOM      2  O   UNL     1      -2.575  -1.563   4.699  0.00  0.00    -0.274 OA
ATOM      3  N   UNL     1      -1.920  -3.542   5.459  0.00  0.00    -0.224 N 
ATOM      4  H   UNL     1      -1.480  -4.388   5.284  0.00  0.00    +0.174 HD
ENDROOT
BRANCH   3   5
ATOM      5  N   UNL     1      -2.448  -3.277   6.729  0.00  0.00    -0.137 N 
ATOM      6  C   UNL     1      -1.704  -2.959   7.809  0.00  0.00    +0.263 C 
ATOM      7  O   UNL     1      -0.497  -2.854   7.862  0.00  0.00    -0.271 OA
ATOM      8  C   UNL     1      -2.691  -2.763   8.936  0.00  0.00    +0.114 C 
ATOM      9  C   UNL     1      -2.429  -3.768  10.053  0.00  0.00    +0.035 C 
ATOM     10  C   UNL     1      -3.457  -3.572  11.170  0.00  0.00    +0.003 C 
ATOM     11  C   UNL     1      -3.355  -2.145  11.711  0.00  0.00    +0.000 C 
ATOM     12  C   UNL     1      -3.643  -1.149  10.586  0.00  0.00    +0.003 C 
ATOM     13  C   UNL     1      -2.615  -1.335   9.466  0.00  0.00    +0.035 C 
ATOM     14  N   UNL     1      -3.997  -3.013   8.314  0.00  0.00    -0.284 N 
ATOM     15  C   UNL     1      -3.754  -3.301   7.021  0.00  0.00    +0.326 C 
ATOM     16  O   UNL     1      -4.623  -3.557   6.211  0.00  0.00    -0.251 OA
ATOM     17  H   UNL     1      -4.864  -2.976   8.748  0.00  0.00    +0.151 HD
ENDBRANCH   3   5
BRANCH   1  18
ATOM     18  C   UNL     1      -1.457  -2.907   3.114  0.00  0.00    +0.079 C 
BRANCH  18  19
ATOM     19  C   UNL     1      -1.707  -1.708   2.197  0.00  0.00    -0.069 C 
BRANCH  19  24
ATOM     20  C   UNL     1      -1.286  -0.786   0.011  0.00  0.00    -0.037 C 
ATOM     21  C   UNL     1      -1.592  -1.337  -1.405  0.00  0.00    -0.013 C 
ATOM     22  C   UNL     1      -2.501  -2.551  -1.079  0.00  0.00    -0.020 C 
ATOM     23  C   UNL     1      -1.900  -3.093   0.235  0.00  0.00    -0.078 C 
ATOM     24  N   UNL     1      -1.154  -1.986   0.865  0.00  0.00    +0.385 N 
ATOM     25  H   UNL     1      -0.180  -2.238   0.949  0.00  0.00    -0.081 HD
BRANCH  20  30
ATOM     26  C   UNL     1      -0.017   1.378   0.010  0.00  0.00    +0.009 A 
ATOM     27  C   UNL     1       1.160   2.051   0.002  0.00  0.00    +0.045 A 
ATOM     28  S   UNL     1       2.348   0.719  -0.017  0.00  0.00    -0.105 S 
ATOM     29  C   UNL     1       1.196  -0.645  -0.013  0.00  0.00    +0.047 A 
ATOM     30  C   UNL     1       0.002  -0.004   0.002  0.00  0.00    -0.054 A 
ENDBRANCH  20  30
ENDBRANCH  19  24
ENDBRANCH  18  19
ENDBRANCH   1  18
TORSDOF 5
