REMARK  Name = ZINC52926726
REMARK  13 active torsions:
REMARK  status: ('A' for Active; 'I' for Inactive)
REMARK    1  A    between atoms: C_1  and  C_2
REMARK    2  A    between atoms: C_8  and  O_10
REMARK    3  A    between atoms: O_10  and  C_11
REMARK    4  A    between atoms: C_11  and  C_12
REMARK    5  A    between atoms: C_12  and  N_13
REMARK    6  A    between atoms: C_14  and  C_16
REMARK    7  A    between atoms: C_16  and  N_17
REMARK    8  A    between atoms: C_20  and  N_23
REMARK    9  A    between atoms: C_24  and  O_26
REMARK   10  A    between atoms: O_26  and  C_27
REMARK   11  A    between atoms: C_27  and  C_28
REMARK   12  A    between atoms: C_27  and  C_29
REMARK   13  A    between atoms: C_27  and  C_30
REMARK                            x       y       z     vdW  Elec       q    Type
REMARK                         _______ _______ _______ _____ _____    ______ ____
ROOT
ATOM      1  N   UNL     1       6.543   4.578   0.815  0.00  0.00    +0.385 N 
ATOM      2  C   UNL     1       7.118   4.768   2.152  0.00  0.00    -0.076 C 
ATOM      3  C   UNL     1       8.575   5.219   2.026  0.00  0.00    +0.004 C 
ATOM      4  C   UNL     1       8.629   6.540   1.252  0.00  0.00    +0.073 C 
ATOM      5  C   UNL     1       7.960   6.349  -0.112  0.00  0.00    +0.004 C 
ATOM      6  C   UNL     1       6.526   5.856   0.093  0.00  0.00    -0.076 C 
ATOM      7  H   UNL     1       7.101   3.911   0.303  0.00  0.00    -0.081 HD
ENDROOT
BRANCH   4   8
ATOM      8  N   UNL     1      10.026   6.939   1.062  0.00  0.00    -0.278 N 
ATOM      9  C   UNL     1      10.337   8.238   0.881  0.00  0.00    +0.401 C 
ATOM     10  O   UNL     1       9.459   9.078   0.876  0.00  0.00    -0.226 OA
ATOM     11  H   UNL     1      10.726   6.268   1.065  0.00  0.00    +0.152 HD
BRANCH   9  12
ATOM     12  O   UNL     1      11.620   8.604   0.706  0.00  0.00    -0.445 OA
BRANCH  12  13
ATOM     13  C   UNL     1      11.877   9.998   0.520  0.00  0.00    +0.107 C 
ATOM     14  C   UNL     1      11.392  10.774   1.746  0.00  0.00    +0.055 C 
ATOM     15  C   UNL     1      13.380  10.219   0.339  0.00  0.00    +0.055 C 
ATOM     16  C   UNL     1      11.135  10.492  -0.723  0.00  0.00    +0.055 C 
ENDBRANCH  12  13
ENDBRANCH   9  12
ENDBRANCH   4   8
BRANCH   1  17
ATOM     17  C   UNL     1       5.170   4.070   0.941  0.00  0.00    +0.019 C 
BRANCH  17  19
ATOM     18  N   UNL     1       4.045   2.037   1.788  0.00  0.00    -0.315 N 
ATOM     19  C   UNL     1       5.197   2.702   1.572  0.00  0.00    +0.197 C 
ATOM     20  O   UNL     1       6.255   2.199   1.885  0.00  0.00    -0.278 OA
ATOM     21  H   UNL     1       3.198   2.439   1.537  0.00  0.00    +0.149 HD
BRANCH  18  22
ATOM     22  C   UNL     1       4.070   0.707   2.401  0.00  0.00    +0.132 C 
BRANCH  22  23
ATOM     23  C   UNL     1       2.640   0.178   2.533  0.00  0.00    +0.179 C 
BRANCH  23  24
ATOM     24  O   UNL     1       2.083  -0.016   1.231  0.00  0.00    -0.375 OA
BRANCH  24  31
ATOM     25  C   UNL     1      -0.019   1.526   0.010  0.00  0.00    +0.010 C 
ATOM     26  C   UNL     1       0.002  -0.004   0.002  0.00  0.00    +0.015 C 
ATOM     27  C   UNL     1       0.718  -0.497  -1.257  0.00  0.00    +0.006 C 
ATOM     28  C   UNL     1       0.739  -2.027  -1.265  0.00  0.00    +0.000 C 
ATOM     29  C   UNL     1       1.479  -2.534  -0.026  0.00  0.00    +0.003 C 
ATOM     30  C   UNL     1       0.763  -2.041   1.233  0.00  0.00    +0.032 C 
ATOM     31  C   UNL     1       0.742  -0.511   1.242  0.00  0.00    +0.121 C 
ENDBRANCH  24  31
ENDBRANCH  23  24
ENDBRANCH  22  23
ENDBRANCH  18  22
ENDBRANCH  17  19
ENDBRANCH   1  17
TORSDOF 9
