REMARK  Name = ZINC44865757
REMARK  5 active torsions:
REMARK  status: ('A' for Active; 'I' for Inactive)
REMARK    1  A    between atoms: C_1  and  C_2
REMARK    2  A    between atoms: C_2  and  C_4
REMARK    3  A    between atoms: C_2  and  C_8
REMARK    4  A    between atoms: N_5  and  O_6
REMARK    5  A    between atoms: N_10  and  C_11
REMARK                            x       y       z     vdW  Elec       q    Type
REMARK                         _______ _______ _______ _____ _____    ______ ____
ROOT
ATOM      1  C   UNL     1       0.709  -0.487  -1.238  0.00  0.00    +0.227 C 
ATOM      2  O   UNL     1       1.702  -1.177  -1.139  0.00  0.00    -0.275 OA
ATOM      3  N   UNL     1       0.231  -0.164  -2.456  0.00  0.00    -0.284 N 
ATOM      4  H   UNL     1      -0.606   0.319  -2.536  0.00  0.00    +0.155 HD
ENDROOT
BRANCH   3   5
ATOM      5  C   UNL     1       0.943  -0.526  -3.606  0.00  0.00    +0.048 A 
ATOM      6  C   UNL     1       2.314  -0.733  -3.539  0.00  0.00    +0.027 A 
ATOM      7  C   UNL     1       3.015  -1.090  -4.674  0.00  0.00    +0.040 A 
ATOM      8  C   UNL     1       2.350  -1.242  -5.880  0.00  0.00    +0.125 A 
ATOM      9  C   UNL     1       0.983  -1.037  -5.950  0.00  0.00    +0.055 A 
ATOM     10  C   UNL     1       0.277  -0.685  -4.815  0.00  0.00    +0.042 A 
ATOM     11 BR   UNL     1      -1.592  -0.412  -4.909  0.00  0.00    -0.048 Br
ATOM     12  F   UNL     1       3.038  -1.591  -6.990  0.00  0.00    -0.205 F 
ENDBRANCH   3   5
BRANCH   1  14
ATOM     13  C   UNL     1      -0.001   1.539   0.003  0.00  0.00    +0.025 C 
ATOM     14  C   UNL     1       0.010   0.009   0.002  0.00  0.00    +0.138 C 
BRANCH  14  15
ATOM     15  C   UNL     1       0.740  -0.489   1.223  0.00  0.00    +0.143 C 
ATOM     16  N   UNL     1       1.624   0.258   1.796  0.00  0.00    -0.076 NA
ATOM     17  N   UNL     1       0.464  -1.740   1.728  0.00  0.00    -0.343 N 
ATOM     18  H   UNL     1      -0.201  -2.301   1.297  0.00  0.00    +0.144 HD
ATOM     19  H   UNL     1       0.933  -2.060   2.514  0.00  0.00    +0.144 HD
BRANCH  16  20
ATOM     20  O   UNL     1       2.310  -0.210   2.943  0.00  0.00    -0.408 OA
ATOM     21  H   UNL     1       2.952   0.419   3.302  0.00  0.00    +0.328 HD
ENDBRANCH  16  20
ENDBRANCH  14  15
ENDBRANCH   1  14
TORSDOF 4
