REMARK  Name = ZINC39978871
REMARK  6 active torsions:
REMARK  status: ('A' for Active; 'I' for Inactive)
REMARK    1  A    between atoms: N_10  and  C_11
REMARK    2  A    between atoms: C_11  and  C_13
REMARK    3  A    between atoms: C_13  and  C_14
REMARK    4  A    between atoms: C_16  and  N_20
REMARK    5  A    between atoms: N_20  and  S_21
REMARK    6  A    between atoms: S_21  and  C_24
REMARK                            x       y       z     vdW  Elec       q    Type
REMARK                         _______ _______ _______ _____ _____    ______ ____
ROOT
ATOM      1  C   UNL     1       1.470  -7.123   0.262  0.00  0.00    +0.035 C 
ATOM      2  N   UNL     1       0.307  -6.647   0.252  0.00  0.00    -0.260 NA
ATOM      3  C   UNL     1      -0.869  -7.534   0.357  0.00  0.00    +0.251 C 
ATOM      4  S   UNL     1      -0.089  -9.176   0.028  0.00  0.00    -0.112 S 
ATOM      5  C   UNL     1       1.640  -8.632   0.377  0.00  0.00    +0.123 C 
ENDROOT
BRANCH   3   6
ATOM      6  N   UNL     1      -1.870  -7.209  -0.662  0.00  0.00    -0.157 NA
ATOM      7  H   UNL     1      -1.592  -6.842  -1.515  0.00  0.00    +0.151 HD
BRANCH   6   8
ATOM      8  S   UNL     1      -3.477  -7.470  -0.356  0.00  0.00    +0.061 S 
ATOM      9  O   UNL     1      -4.185  -7.036  -1.509  0.00  0.00    -0.153 OA
ATOM     10  O   UNL     1      -3.584  -8.793   0.151  0.00  0.00    -0.153 OA
BRANCH   8  11
ATOM     11  C   UNL     1      -3.940  -6.388   0.955  0.00  0.00    +0.106 A 
ATOM     12  C   UNL     1      -3.827  -6.806   2.268  0.00  0.00    +0.031 A 
ATOM     13  C   UNL     1      -4.189  -5.959   3.298  0.00  0.00    +0.040 A 
ATOM     14  C   UNL     1      -4.665  -4.690   3.014  0.00  0.00    +0.124 A 
ATOM     15  C   UNL     1      -4.778  -4.272   1.699  0.00  0.00    +0.040 A 
ATOM     16  C   UNL     1      -4.410  -5.120   0.671  0.00  0.00    +0.031 A 
ATOM     17  F   UNL     1      -5.021  -3.860   4.019  0.00  0.00    -0.205 F 
ENDBRANCH   8  11
ENDBRANCH   6   8
ENDBRANCH   3   6
BRANCH   1  18
ATOM     18  C   UNL     1       2.671  -6.220   0.156  0.00  0.00    +0.149 C 
BRANCH  18  19
ATOM     19  C   UNL     1       2.215  -4.787   0.055  0.00  0.00    +0.244 C 
ATOM     20  O   UNL     1       1.028  -4.524   0.068  0.00  0.00    -0.273 OA
BRANCH  19  30
ATOM     21  C   UNL     1      -0.015   1.372   0.021  0.00  0.00    +0.002 A 
ATOM     22  C   UNL     1       1.161   2.105   0.025  0.00  0.00    +0.001 A 
ATOM     23  C   UNL     1       2.374   1.440   0.013  0.00  0.00    +0.017 A 
ATOM     24  C   UNL     1       2.394   0.066  -0.002  0.00  0.00    +0.039 A 
ATOM     25  C   UNL     1       1.219  -0.701  -0.007  0.00  0.00    +0.055 A 
ATOM     26  C   UNL     1       0.003  -0.003   0.005  0.00  0.00    +0.027 A 
ATOM     27  N   UNL     1       1.443  -2.064  -0.022  0.00  0.00    -0.335 N 
ATOM     28  H   UNL     1       0.694  -2.680  -0.027  0.00  0.00    +0.168 HD
ATOM     29  C   UNL     1       2.714  -2.540  -0.032  0.00  0.00    +0.164 A 
ATOM     30  N   UNL     1       3.110  -3.811  -0.048  0.00  0.00    -0.156 NA
ATOM     31  S   UNL     1       3.675  -1.161  -0.021  0.00  0.00    -0.052 S 
ENDBRANCH  19  30
ENDBRANCH  18  19
ENDBRANCH   1  18
TORSDOF 6
