REMARK  Name = ZINC33708591
REMARK  8 active torsions:
REMARK  status: ('A' for Active; 'I' for Inactive)
REMARK    1  A    between atoms: C_1  and  C_2
REMARK    2  A    between atoms: C_4  and  C_10
REMARK    3  A    between atoms: C_6  and  C_9
REMARK    4  A    between atoms: C_7  and  O_8
REMARK    5  A    between atoms: N_18  and  C_21
REMARK    6  A    between atoms: C_21  and  C_22
REMARK    7  A    between atoms: C_28  and  C_30
REMARK    8  A    between atoms: C_28  and  C_36
REMARK                            x       y       z     vdW  Elec       q    Type
REMARK                         _______ _______ _______ _____ _____    ______ ____
ROOT
ATOM      1  C   UNL     1       0.559   6.832   1.838  0.00  0.00    -0.026 C 
ATOM      2  C   UNL     1      -0.733   7.237   1.253  0.00  0.00    +0.077 C 
ATOM      3  C   UNL     1      -1.304   5.852   0.758  0.00  0.00    +0.090 C 
ATOM      4  C   UNL     1      -2.486   6.401   0.023  0.00  0.00    +0.225 C 
ATOM      5  O   UNL     1      -2.980   5.968  -0.996  0.00  0.00    -0.275 OA
ATOM      6  N   UNL     1      -2.893   7.494   0.738  0.00  0.00    -0.237 N 
ATOM      7  C   UNL     1      -1.944   7.925   1.632  0.00  0.00    +0.225 C 
ATOM      8  O   UNL     1      -2.092   8.712   2.542  0.00  0.00    -0.275 OA
ATOM      9  C   UNL     1      -0.070   5.347   0.031  0.00  0.00    +0.074 C 
ATOM     10  N   UNL     1       1.092   5.876   0.807  0.00  0.00    +0.398 N 
ATOM     11  H   UNL     1       1.787   6.407   0.139  0.00  0.00    -0.083 HD
ATOM     12  H   UNL     1       1.623   5.053   1.309  0.00  0.00    -0.083 HD
ENDROOT
BRANCH   1  16
ATOM     13  C   UNL     1       0.555   6.952   6.840  0.00  0.00    +0.047 C 
ATOM     14  C   UNL     1       0.353   6.195   5.553  0.00  0.00    -0.009 A 
ATOM     15  C   UNL     1       0.539   6.830   4.340  0.00  0.00    +0.009 A 
ATOM     16  C   UNL     1       0.355   6.136   3.159  0.00  0.00    -0.060 A 
ATOM     17  C   UNL     1      -0.023   4.806   3.188  0.00  0.00    +0.009 A 
ATOM     18  C   UNL     1      -0.205   4.165   4.397  0.00  0.00    -0.009 A 
ATOM     19  C   UNL     1      -0.020   4.859   5.584  0.00  0.00    +0.123 A 
ATOM     20  C   UNL     1      -0.610   2.714   4.428  0.00  0.00    +0.047 C 
BRANCH  19  21
ATOM     21  O   UNL     1      -0.205   4.232   6.776  0.00  0.00    -0.506 OA
ATOM     22  H   UNL     1      -0.501   3.172   6.799  0.00  0.00    +0.292 HD
ENDBRANCH  19  21
ENDBRANCH   1  16
BRANCH   9  23
ATOM     23  C   UNL     1      -0.050   3.840   0.023  0.00  0.00    -0.047 A 
ATOM     24  C   UNL     1       1.156   3.165   0.008  0.00  0.00    +0.003 A 
ATOM     25  C   UNL     1       1.175   1.783   0.000  0.00  0.00    +0.000 A 
ATOM     26  C   UNL     1      -0.013   1.076   0.008  0.00  0.00    +0.000 A 
ATOM     27  C   UNL     1      -1.219   1.751   0.017  0.00  0.00    +0.000 A 
ATOM     28  C   UNL     1      -1.238   3.133   0.030  0.00  0.00    +0.003 A 
ENDBRANCH   9  23
BRANCH   9  29
ATOM     29  C   UNL     1      -0.043   5.876  -1.380  0.00  0.00    +0.350 C 
ATOM     30  O   UNL     1      -1.075   6.172  -1.934  0.00  0.00    -0.248 OA
ATOM     31  O   UNL     1       1.128   6.019  -2.020  0.00  0.00    -0.248 OA
ENDBRANCH   9  29
BRANCH   6  32
ATOM     32  C   UNL     1      -4.199   8.135   0.567  0.00  0.00    +0.151 C 
BRANCH  32  33
ATOM     33  C   UNL     1      -5.196   7.500   1.503  0.00  0.00    -0.030 A 
ATOM     34  C   UNL     1      -5.939   6.412   1.086  0.00  0.00    +0.005 A 
ATOM     35  C   UNL     1      -6.850   5.827   1.946  0.00  0.00    +0.000 A 
ATOM     36  C   UNL     1      -7.024   6.337   3.219  0.00  0.00    +0.000 A 
ATOM     37  C   UNL     1      -6.284   7.428   3.634  0.00  0.00    +0.000 A 
ATOM     38  C   UNL     1      -5.370   8.010   2.776  0.00  0.00    +0.005 A 
ENDBRANCH  32  33
ENDBRANCH   6  32
TORSDOF 6
