REMARK  Name = ZINC25063364
REMARK  9 active torsions:
REMARK  status: ('A' for Active; 'I' for Inactive)
REMARK    1  A    between atoms: C_1  and  C_2
REMARK    2  A    between atoms: C_3  and  C_12
REMARK    3  A    between atoms: C_12  and  C_13
REMARK    4  A    between atoms: C_13  and  C_14
REMARK    5  A    between atoms: N_16  and  C_17
REMARK    6  A    between atoms: C_19  and  C_25
REMARK    7  A    between atoms: C_19  and  C_26
REMARK    8  A    between atoms: C_21  and  C_23
REMARK    9  A    between atoms: C_21  and  C_24
REMARK                            x       y       z     vdW  Elec       q    Type
REMARK                         _______ _______ _______ _____ _____    ______ ____
ROOT
ATOM      1  C   UNL     1       0.077   5.700  -2.358  0.00  0.00    +0.214 C 
ATOM      2  O   UNL     1      -0.186   5.073  -3.362  0.00  0.00    -0.276 OA
ATOM      3  N   UNL     1       0.376   5.050  -1.216  0.00  0.00    -0.313 N 
ATOM      4  H   UNL     1       0.615   5.618  -0.305  0.00  0.00    +0.149 HD
ENDROOT
BRANCH   3   5
ATOM      5  C   UNL     1       0.383   3.582  -1.188  0.00  0.00    +0.070 C 
ATOM      6  C   UNL     1       1.307   3.104  -0.068  0.00  0.00    +0.009 C 
ATOM      7  C   UNL     1       1.318   1.579  -0.002  0.00  0.00    -0.072 C 
ATOM      8  N   UNL     1      -0.012   1.005   0.008  0.00  0.00    +0.386 N 
ATOM      9  C   UNL     1      -1.049   1.551  -0.842  0.00  0.00    -0.072 C 
ATOM     10  C   UNL     1      -1.030   3.077  -0.900  0.00  0.00    +0.009 C 
ATOM     11  C   UNL     1      -0.958   0.983  -2.263  0.00  0.00    -0.010 C 
ATOM     12  C   UNL     1      -2.418   1.125  -0.266  0.00  0.00    -0.010 C 
ATOM     13  C   UNL     1       2.027   1.175   1.309  0.00  0.00    -0.010 C 
ATOM     14  C   UNL     1       2.153   1.022  -1.161  0.00  0.00    -0.010 C 
ATOM     15  H   UNL     1       0.043  -0.052  -0.292  0.00  0.00    -0.084 HD
ATOM     16  H   UNL     1      -0.435   1.078   1.020  0.00  0.00    -0.084 HD
ENDBRANCH   3   5
BRANCH   1  17
ATOM     17  C   UNL     1       0.070   7.207  -2.387  0.00  0.00    +0.100 C 
BRANCH  17  18
ATOM     18  C   UNL     1      -0.297   7.688  -3.792  0.00  0.00    +0.051 C 
BRANCH  18  21
ATOM     19  C   UNL     1       2.032   9.135  -4.642  0.00  0.00    +0.064 C 
ATOM     20  C   UNL     1       0.790   9.877  -4.221  0.00  0.00    +0.026 A 
ATOM     21  C   UNL     1      -0.305   9.195  -3.821  0.00  0.00    +0.036 A 
ATOM     22  C   UNL     1      -1.458   9.915  -3.424  0.00  0.00    +0.257 A 
ATOM     23  O   UNL     1      -2.455   9.322  -3.055  0.00  0.00    -0.267 OA
ATOM     24  N   UNL     1      -1.441  11.262  -3.458  0.00  0.00    -0.275 N 
ATOM     25  H   UNL     1      -2.331  11.832  -3.152  0.00  0.00    +0.173 HD
ATOM     26  C   UNL     1      -0.337  11.917  -3.866  0.00  0.00    +0.327 A 
ATOM     27  O   UNL     1      -0.337  13.132  -3.891  0.00  0.00    -0.247 OA
ATOM     28  N   UNL     1       0.765  11.245  -4.245  0.00  0.00    -0.311 N 
ATOM     29  H   UNL     1       1.651  11.805  -4.578  0.00  0.00    +0.170 HD
ENDBRANCH  18  21
ENDBRANCH  17  18
ENDBRANCH   1  17
TORSDOF 4
