REMARK  Name = ZINC08682473
REMARK  4 active torsions:
REMARK  status: ('A' for Active; 'I' for Inactive)
REMARK    1  A    between atoms: C_1  and  N_2
REMARK    2  A    between atoms: C_13  and  C_21
REMARK    3  A    between atoms: C_15  and  C_19
REMARK    4  A    between atoms: C_16  and  N_18
REMARK                            x       y       z     vdW  Elec       q    Type
REMARK                         _______ _______ _______ _____ _____    ______ ____
ROOT
ATOM      1  C   UNL     1      -0.018   1.461   0.010  0.00  0.00    +0.127 C 
ATOM      2  N   UNL     1       0.002  -0.004   0.002  0.00  0.00    -0.326 N 
ATOM      3  C   UNL     1       0.618  -0.691   1.026  0.00  0.00    +0.161 A 
ATOM      4  N   UNL     1       1.227  -0.197   2.083  0.00  0.00    -0.207 NA
ATOM      5  C   UNL     1       1.786  -0.974   3.008  0.00  0.00    +0.154 A 
ATOM      6  C   UNL     1       1.664  -2.344   2.747  0.00  0.00    +0.100 A 
ATOM      7  S   UNL     1       0.761  -2.357   1.221  0.00  0.00    -0.047 S 
ATOM      8  C   UNL     1       2.183  -3.313   3.598  0.00  0.00    +0.157 A 
ATOM      9  C   UNL     1       2.844  -2.900   4.744  0.00  0.00    +0.073 A 
ATOM     10  C   UNL     1       2.964  -1.532   5.001  0.00  0.00    +0.258 A 
ATOM     11  N   UNL     1       2.458  -0.611   4.168  0.00  0.00    -0.306 N 
ATOM     12  O   UNL     1       3.547  -1.166   6.010  0.00  0.00    -0.267 OA
ATOM     13  C   UNL     1       3.424  -3.904   5.701  0.00  0.00    +0.103 C 
ATOM     14  C   UNL     1       3.533  -5.249   5.039  0.00  0.00    +0.098 C 
ATOM     15  C   UNL     1       2.851  -5.530   3.904  0.00  0.00    +0.199 C 
ATOM     16  O   UNL     1       2.047  -4.628   3.316  0.00  0.00    -0.440 OA
ATOM     17  H   UNL     1      -0.418  -0.491  -0.724  0.00  0.00    +0.148 HD
ATOM     18  H   UNL     1       2.564   0.330   4.381  0.00  0.00    +0.170 HD
ENDROOT
BRANCH  13  19
ATOM     19  C   UNL     1       2.530  -4.016   6.909  0.00  0.00    -0.034 A 
ATOM     20  C   UNL     1       1.216  -4.420   6.761  0.00  0.00    +0.004 A 
ATOM     21  C   UNL     1       0.396  -4.523   7.870  0.00  0.00    +0.000 A 
ATOM     22  C   UNL     1       0.890  -4.223   9.125  0.00  0.00    +0.000 A 
ATOM     23  C   UNL     1       2.204  -3.820   9.273  0.00  0.00    +0.000 A 
ATOM     24  C   UNL     1       3.025  -3.721   8.165  0.00  0.00    +0.004 A 
ENDBRANCH  13  19
BRANCH  15  25
ATOM     25  N   UNL     1       2.984  -6.773   3.337  0.00  0.00    -0.328 N 
ATOM     26  H   UNL     1       3.561  -7.435   3.750  0.00  0.00    +0.145 HD
ATOM     27  H   UNL     1       2.502  -6.989   2.523  0.00  0.00    +0.145 HD
ENDBRANCH  15  25
BRANCH  14  28
ATOM     28  C   UNL     1       4.374  -6.252   5.620  0.00  0.00    +0.101 C 
ATOM     29  N   UNL     1       5.042  -7.048   6.081  0.00  0.00    -0.191 NA
ENDBRANCH  14  28
TORSDOF 3
