REMARK  Name = ZINC63827736
REMARK  7 active torsions:
REMARK  status: ('A' for Active; 'I' for Inactive)
REMARK    1  A    between atoms: C_1  and  N_2
REMARK    2  A    between atoms: N_2  and  C_3
REMARK    3  A    between atoms: C_14  and  C_16
REMARK    4  A    between atoms: C_16  and  S_17
REMARK    5  A    between atoms: S_17  and  C_18
REMARK    6  A    between atoms: C_21  and  C_26
REMARK    7  A    between atoms: N_22  and  C_23
REMARK                            x       y       z     vdW  Elec       q    Type
REMARK                         _______ _______ _______ _____ _____    ______ ____
ROOT
ATOM      1  C   UNL     1       0.199  -0.040  -5.313  0.00  0.00    +0.193 A 
ATOM      2  N   UNL     1       0.085   1.280  -5.314  0.00  0.00    -0.122 NA
ATOM      3  N   UNL     1      -0.225   1.697  -6.489  0.00  0.00    -0.129 NA
ATOM      4  C   UNL     1      -0.330   0.666  -7.316  0.00  0.00    +0.163 A 
ATOM      5  N   UNL     1      -0.054  -0.472  -6.579  0.00  0.00    -0.299 N 
ENDROOT
BRANCH   4   6
ATOM      6  C   UNL     1      -0.654   0.720  -8.681  0.00  0.00    +0.025 C 
ATOM      7  C   UNL     1      -0.924   1.859  -9.440  0.00  0.00    +0.006 A 
ATOM      8  C   UNL     1      -0.959   3.232  -9.118  0.00  0.00    +0.010 A 
ATOM      9  C   UNL     1      -1.258   4.142 -10.080  0.00  0.00    +0.001 A 
ATOM     10  C   UNL     1      -1.535   3.754 -11.393  0.00  0.00    +0.002 A 
ATOM     11  C   UNL     1      -1.520   2.453 -11.773  0.00  0.00    +0.026 A 
ATOM     12  C   UNL     1      -1.215   1.444 -10.822  0.00  0.00    +0.043 A 
ATOM     13  N   UNL     1      -1.135   0.133 -10.937  0.00  0.00    -0.380 N 
ATOM     14  C   UNL     1      -0.777  -0.445  -9.638  0.00  0.00    +0.152 C 
ATOM     15  H   UNL     1      -1.286  -0.369 -11.753  0.00  0.00    +0.160 HD
ENDBRANCH   4   6
BRANCH   5  16
ATOM     16  C   UNL     1      -0.040  -1.855  -7.061  0.00  0.00    +0.091 C 
ATOM     17  C   UNL     1      -0.101  -2.969  -6.013  0.00  0.00    +0.027 C 
ATOM     18  C   UNL     1       1.204  -2.695  -6.763  0.00  0.00    +0.027 C 
ENDBRANCH   5  16
BRANCH   1  19
ATOM     19  S   UNL     1       0.610  -1.050  -3.930  0.00  0.00    -0.077 S 
BRANCH  19  20
ATOM     20  C   UNL     1       0.817   0.132  -2.569  0.00  0.00    +0.173 C 
BRANCH  20  23
ATOM     21  C   UNL     1       1.251   1.526  -0.140  0.00  0.00    +0.132 C 
ATOM     22  N   UNL     1       1.379   0.066  -0.161  0.00  0.00    -0.297 N 
ATOM     23  C   UNL     1       1.175  -0.611  -1.308  0.00  0.00    +0.226 C 
ATOM     24  O   UNL     1       1.281  -1.819  -1.325  0.00  0.00    -0.275 OA
BRANCH  22  25
ATOM     25  C   UNL     1       1.727  -0.656   1.065  0.00  0.00    +0.106 C 
ATOM     26  C   UNL     1       0.654  -0.401   2.122  0.00  0.00    +0.027 C 
ATOM     27  C   UNL     1       1.142  -0.981   3.455  0.00  0.00    +0.007 C 
ATOM     28  C   UNL     1       2.299  -0.121   3.959  0.00  0.00    +0.035 C 
ATOM     29  C   UNL     1       3.337   0.055   2.882  0.00  0.00    -0.042 A 
ATOM     30  C   UNL     1       3.073  -0.187   1.553  0.00  0.00    -0.024 A 
ATOM     31  C   UNL     1       4.073   0.002   0.608  0.00  0.00    +0.006 A 
ATOM     32  C   UNL     1       5.329   0.426   0.992  0.00  0.00    +0.000 A 
ATOM     33  C   UNL     1       5.594   0.665   2.327  0.00  0.00    +0.000 A 
ATOM     34  C   UNL     1       4.602   0.479   3.266  0.00  0.00    +0.004 A 
ENDBRANCH  22  25
ENDBRANCH  20  23
ENDBRANCH  19  20
ENDBRANCH   1  19
TORSDOF 6
