REMARK  Name = ZINC50925403
REMARK  14 active torsions:
REMARK  status: ('A' for Active; 'I' for Inactive)
REMARK    1  A    between atoms: C_1  and  C_2
REMARK    2  A    between atoms: C_2  and  C_3
REMARK    3  A    between atoms: C_2  and  S_4
REMARK    4  A    between atoms: S_4  and  N_7
REMARK    5  A    between atoms: N_7  and  C_8
REMARK    6  A    between atoms: C_8  and  C_9
REMARK    7  A    between atoms: N_13  and  C_15
REMARK    8  A    between atoms: C_15  and  C_16
REMARK    9  A    between atoms: C_18  and  C_24
REMARK   10  A    between atoms: C_20  and  O_23
REMARK   11  A    between atoms: C_21  and  O_22
REMARK   12  A    between atoms: C_24  and  C_25
REMARK   13  A    between atoms: C_24  and  C_26
REMARK   14  A    between atoms: C_24  and  C_27
REMARK                            x       y       z     vdW  Elec       q    Type
REMARK                         _______ _______ _______ _____ _____    ______ ____
ROOT
ATOM      1  C   UNL     1      -2.714   0.388  -3.793  0.00  0.00    -0.012 C 
ATOM      2  C   UNL     1      -3.996  -0.368  -3.430  0.00  0.00    +0.001 C 
ATOM      3  C   UNL     1      -5.033  -0.154  -4.536  0.00  0.00    -0.018 C 
ATOM      4  C   UNL     1      -4.447  -0.613  -5.873  0.00  0.00    -0.078 C 
ATOM      5  N   UNL     1      -3.240   0.164  -6.176  0.00  0.00    +0.383 N 
ATOM      6  C   UNL     1      -2.214  -0.092  -5.157  0.00  0.00    -0.074 C 
ATOM      7  H   UNL     1      -3.467   1.147  -6.183  0.00  0.00    -0.081 HD
ENDROOT
BRANCH   1   8
ATOM      8  C   UNL     1      -1.644   0.117  -2.733  0.00  0.00    +0.107 C 
BRANCH   8   9
ATOM      9  N   UNL     1      -2.072   0.683  -1.451  0.00  0.00    -0.194 NA
ATOM     10  H   UNL     1      -2.802   1.321  -1.423  0.00  0.00    +0.148 HD
BRANCH   9  11
ATOM     11  S   UNL     1      -1.310   0.233  -0.052  0.00  0.00    +0.032 S 
ATOM     12  O   UNL     1      -1.317  -1.188  -0.075  0.00  0.00    -0.158 OA
ATOM     13  O   UNL     1      -1.988   0.944   0.975  0.00  0.00    -0.158 OA
BRANCH  11  15
ATOM     14  C   UNL     1       0.360   2.372  -0.392  0.00  0.00    +0.033 C 
ATOM     15  C   UNL     1       0.386   0.852  -0.225  0.00  0.00    +0.142 C 
ATOM     16  C   UNL     1       1.192   0.489   1.024  0.00  0.00    +0.033 C 
ENDBRANCH  11  15
ENDBRANCH   9  11
ENDBRANCH   8   9
ENDBRANCH   1   8
BRANCH   5  17
ATOM     17  C   UNL     1      -2.726  -0.226  -7.495  0.00  0.00    -0.039 C 
BRANCH  17  18
ATOM     18  C   UNL     1      -3.719   0.168  -8.558  0.00  0.00    -0.019 A 
ATOM     19  C   UNL     1      -4.550  -0.786  -9.116  0.00  0.00    +0.009 A 
ATOM     20  C   UNL     1      -5.462  -0.428 -10.091  0.00  0.00    -0.038 A 
ATOM     21  C   UNL     1      -5.547   0.886 -10.513  0.00  0.00    +0.053 A 
ATOM     22  C   UNL     1      -4.718   1.847  -9.958  0.00  0.00    +0.159 A 
ATOM     23  C   UNL     1      -3.804   1.487  -8.972  0.00  0.00    +0.160 A 
BRANCH  20  24
ATOM     24  C   UNL     1      -6.365  -1.472 -10.695  0.00  0.00    -0.013 C 
ATOM     25  C   UNL     1      -7.224  -2.101  -9.597  0.00  0.00    +0.015 C 
ATOM     26  C   UNL     1      -7.271  -0.819 -11.741  0.00  0.00    +0.015 C 
ATOM     27  C   UNL     1      -5.516  -2.557 -11.362  0.00  0.00    +0.015 C 
ENDBRANCH  20  24
BRANCH  23  28
ATOM     28  O   UNL     1      -2.991   2.428  -8.421  0.00  0.00    -0.503 OA
ATOM     29  H   UNL     1      -2.185   2.598  -8.927  0.00  0.00    +0.292 HD
ENDBRANCH  23  28
BRANCH  22  30
ATOM     30  O   UNL     1      -4.801   3.140 -10.372  0.00  0.00    -0.503 OA
ATOM     31  H   UNL     1      -5.429   3.675  -9.868  0.00  0.00    +0.292 HD
ENDBRANCH  22  30
ENDBRANCH  17  18
ENDBRANCH   5  17
TORSDOF 9
