REMARK  Name = ZINC04556323
REMARK  7 active torsions:
REMARK  status: ('A' for Active; 'I' for Inactive)
REMARK    1  A    between atoms: C_1  and  C_2
REMARK    2  A    between atoms: C_2  and  N_46
REMARK    3  A    between atoms: C_10  and  O_24
REMARK    4  A    between atoms: C_12  and  C_15
REMARK    5  A    between atoms: C_19  and  O_22
REMARK    6  A    between atoms: C_20  and  O_21
REMARK    7  A    between atoms: O_22  and  C_23
REMARK                            x       y       z     vdW  Elec       q    Type
REMARK                         _______ _______ _______ _____ _____    ______ ____
ROOT
ATOM      1  C   UNL     1      -0.205   0.937  -2.401  0.00  0.00    -0.074 C 
ATOM      2  C   UNL     1      -1.178   1.155  -3.563  0.00  0.00    +0.018 C 
ATOM      3  C   UNL     1      -1.487   2.646  -3.652  0.00  0.00    -0.027 A 
ATOM      4  C   UNL     1      -1.224   3.454  -2.598  0.00  0.00    -0.021 A 
ATOM      5  S   UNL     1      -1.722   5.070  -3.129  0.00  0.00    -0.080 S 
ATOM      6  C   UNL     1      -2.266   4.676  -4.703  0.00  0.00    +0.080 A 
ATOM      7  C   UNL     1      -2.057   3.296  -4.816  0.00  0.00    +0.067 A 
ATOM      8  C   UNL     1      -2.432   2.655  -6.103  0.00  0.00    +0.220 C 
ATOM      9  N   UNL     1      -2.740   3.433  -7.103  0.00  0.00    -0.223 NA
ATOM     10  C   UNL     1      -2.649   4.887  -7.084  0.00  0.00    +0.227 C 
ATOM     11  N   UNL     1      -2.807   5.425  -5.720  0.00  0.00    -0.313 N 
ATOM     12  C   UNL     1      -0.639   3.042  -1.284  0.00  0.00    -0.035 C 
ATOM     13  H   UNL     1      -3.267   6.262  -5.550  0.00  0.00    +0.149 HD
ATOM     14  N   UNL     1      -0.749   1.566  -1.181  0.00  0.00    +0.383 N 
ATOM     15  H   UNL     1      -1.739   1.310  -1.086  0.00  0.00    -0.081 HD
ENDROOT
BRANCH  10  16
ATOM     16  C   UNL     1      -1.305   5.302  -7.624  0.00  0.00    +0.040 A 
ATOM     17  C   UNL     1      -0.665   6.414  -7.106  0.00  0.00    +0.011 A 
ATOM     18  C   UNL     1       0.570   6.794  -7.596  0.00  0.00    +0.004 A 
ATOM     19  C   UNL     1       1.167   6.072  -8.613  0.00  0.00    +0.049 A 
ATOM     20  C   UNL     1       0.529   4.961  -9.139  0.00  0.00    +0.162 A 
ATOM     21  C   UNL     1      -0.713   4.574  -8.643  0.00  0.00    +0.165 A 
BRANCH  21  22
ATOM     22  O   UNL     1      -1.343   3.484  -9.156  0.00  0.00    -0.503 OA
ATOM     23  H   UNL     1      -1.924   3.682  -9.904  0.00  0.00    +0.292 HD
ENDBRANCH  21  22
BRANCH  20  24
ATOM     24  O   UNL     1       1.115   4.249 -10.139  0.00  0.00    -0.491 OA
ATOM     25  C   UNL     1       2.389   4.704 -10.599  0.00  0.00    +0.277 C 
ENDBRANCH  20  24
ENDBRANCH  10  16
BRANCH  14  27
ATOM     26  C   UNL     1      -0.729   1.579   1.267  0.00  0.00    -0.017 C 
ATOM     27  C   UNL     1      -0.013   1.086   0.008  0.00  0.00    -0.082 C 
ENDBRANCH  14  27
BRANCH   8  28
ATOM     28  O   UNL     1      -2.454   1.308  -6.232  0.00  0.00    -0.492 OA
ATOM     29  H   UNL     1      -2.712   1.001  -7.113  0.00  0.00    +0.294 HD
ENDBRANCH   8  28
TORSDOF 5
