REMARK  Name = ZINC46056057
REMARK  8 active torsions:
REMARK  status: ('A' for Active; 'I' for Inactive)
REMARK    1  A    between atoms: C_8  and  C_18
REMARK    2  A    between atoms: N_9  and  C_10
REMARK    3  A    between atoms: C_10  and  C_11
REMARK    4  A    between atoms: C_18  and  N_19
REMARK    5  A    between atoms: C_22  and  C_25
REMARK    6  A    between atoms: N_27  and  C_28
REMARK    7  A    between atoms: C_28  and  C_29
REMARK    8  A    between atoms: C_29  and  C_30
REMARK                            x       y       z     vdW  Elec       q    Type
REMARK                         _______ _______ _______ _____ _____    ______ ____
ROOT
ATOM      1  N   UNL     1       4.247  -3.549  -1.644  0.00  0.00    +0.383 N 
ATOM      2  C   UNL     1       5.085  -2.474  -2.188  0.00  0.00    -0.078 C 
ATOM      3  C   UNL     1       5.317  -2.709  -3.682  0.00  0.00    -0.006 C 
ATOM      4  C   UNL     1       6.021  -4.055  -3.878  0.00  0.00    +0.071 C 
ATOM      5  C   UNL     1       5.173  -5.160  -3.241  0.00  0.00    -0.006 C 
ATOM      6  C   UNL     1       4.946  -4.834  -1.764  0.00  0.00    -0.078 C 
ATOM      7  H   UNL     1       3.380  -3.590  -2.158  0.00  0.00    -0.081 HD
ENDROOT
BRANCH   4   8
ATOM      8  C   UNL     1       6.182  -4.329  -5.351  0.00  0.00    +0.216 C 
ATOM      9  O   UNL     1       5.776  -3.528  -6.165  0.00  0.00    -0.276 OA
ATOM     10  N   UNL     1       6.779  -5.465  -5.763  0.00  0.00    -0.315 N 
ATOM     11  H   UNL     1       7.104  -6.106  -5.112  0.00  0.00    +0.149 HD
BRANCH  10  12
ATOM     12  C   UNL     1       6.936  -5.732  -7.195  0.00  0.00    +0.108 C 
BRANCH  12  13
ATOM     13  C   UNL     1       7.639  -7.077  -7.389  0.00  0.00    +0.049 C 
BRANCH  13  14
ATOM     14  C   UNL     1       7.801  -7.351  -8.862  0.00  0.00    -0.072 C 
ATOM     15  C   UNL     1       8.923  -7.027  -9.420  0.00  0.00    -0.028 C 
ATOM     16  C   UNL     1       9.227  -7.228 -10.876  0.00  0.00    +0.027 C 
ATOM     17  C   UNL     1       8.240  -8.224 -11.488  0.00  0.00    +0.004 C 
ATOM     18  C   UNL     1       6.818  -7.798 -11.100  0.00  0.00    +0.005 C 
ATOM     19  C   UNL     1       6.654  -7.989  -9.589  0.00  0.00    +0.030 C 
ENDBRANCH  13  14
ENDBRANCH  12  13
ENDBRANCH  10  12
ENDBRANCH   4   8
BRANCH   1  20
ATOM     20  C   UNL     1       3.962  -3.278  -0.229  0.00  0.00    -0.024 C 
BRANCH  20  28
ATOM     21  C   UNL     1       0.340   1.611  -0.297  0.00  0.00    +0.001 A 
ATOM     22  C   UNL     1       0.867   1.805   0.973  0.00  0.00    +0.002 A 
ATOM     23  C   UNL     1       1.788   0.922   1.493  0.00  0.00    +0.026 A 
ATOM     24  C   UNL     1       2.196  -0.174   0.740  0.00  0.00    +0.049 A 
ATOM     25  C   UNL     1       1.658  -0.366  -0.545  0.00  0.00    +0.000 A 
ATOM     26  C   UNL     1       0.726   0.541  -1.053  0.00  0.00    +0.010 A 
ATOM     27  C   UNL     1       2.279  -1.587  -1.066  0.00  0.00    +0.029 A 
ATOM     28  C   UNL     1       3.112  -2.039  -0.116  0.00  0.00    +0.004 A 
ATOM     29  N   UNL     1       3.076  -1.208   0.971  0.00  0.00    -0.341 N 
BRANCH  29  30
ATOM     30  C   UNL     1       3.856  -1.391   2.197  0.00  0.00    +0.157 C 
BRANCH  30  31
ATOM     31  C   UNL     1       3.058  -2.203   3.184  0.00  0.00    -0.025 A 
ATOM     32  C   UNL     1       2.218  -1.570   4.082  0.00  0.00    +0.005 A 
ATOM     33  C   UNL     1       1.485  -2.314   4.987  0.00  0.00    +0.003 A 
ATOM     34  C   UNL     1       1.591  -3.692   4.997  0.00  0.00    +0.038 A 
ATOM     35  C   UNL     1       2.432  -4.327   4.099  0.00  0.00    +0.124 A 
ATOM     36  C   UNL     1       3.161  -3.581   3.188  0.00  0.00    +0.043 A 
ATOM     37  F   UNL     1       2.537  -5.674   4.108  0.00  0.00    -0.205 F 
ENDBRANCH  30  31
ENDBRANCH  29  30
ENDBRANCH  20  28
ENDBRANCH   1  20
TORSDOF 8
