REMARK  Name = ZINC59018680
REMARK  7 active torsions:
REMARK  status: ('A' for Active; 'I' for Inactive)
REMARK    1  A    between atoms: C_4  and  C_7
REMARK    2  A    between atoms: C_7  and  C_9
REMARK    3  A    between atoms: C_9  and  S_10
REMARK    4  A    between atoms: S_10  and  C_11
REMARK    5  A    between atoms: N_16  and  N_17
REMARK    6  A    between atoms: C_18  and  C_19
REMARK    7  A    between atoms: C_22  and  O_26
REMARK                            x       y       z     vdW  Elec       q    Type
REMARK                         _______ _______ _______ _____ _____    ______ ____
ROOT
ATOM      1  C   UNL     1       5.297  -4.519  -0.075  0.00  0.00    +0.210 A 
ATOM      2  N   UNL     1       6.321  -5.379  -0.085  0.00  0.00    -0.186 NA
ATOM      3  C   UNL     1       5.863  -6.613  -0.088  0.00  0.00    +0.232 A 
ATOM      4  N   UNL     1       4.514  -6.557  -0.081  0.00  0.00    -0.245 N 
ATOM      5  N   UNL     1       4.173  -5.195  -0.067  0.00  0.00    -0.144 NA
ATOM      6  N   UNL     1       6.628  -7.765  -0.098  0.00  0.00    -0.205 N 
ATOM      7  H   UNL     1       6.197  -8.634  -0.101  0.00  0.00    +0.177 HD
ATOM      8  H   UNL     1       3.901  -7.309  -0.081  0.00  0.00    +0.192 HD
ENDROOT
BRANCH   6   9
ATOM      9  N   UNL     1       8.026  -7.677  -0.105  0.00  0.00    -0.188 NA
ATOM     10  C   UNL     1       8.745  -8.758  -0.114  0.00  0.00    +0.138 C 
BRANCH  10  11
ATOM     11  C   UNL     1      10.216  -8.665  -0.121  0.00  0.00    -0.003 A 
ATOM     12  C   UNL     1      10.839  -7.415  -0.112  0.00  0.00    +0.028 A 
ATOM     13  C   UNL     1      12.216  -7.332  -0.118  0.00  0.00    +0.061 A 
ATOM     14  C   UNL     1      12.983  -8.491  -0.135  0.00  0.00    +0.145 A 
ATOM     15  C   UNL     1      12.367  -9.736  -0.144  0.00  0.00    +0.061 A 
ATOM     16  C   UNL     1      10.991  -9.828  -0.131  0.00  0.00    +0.028 A 
ATOM     17 BR   UNL     1      13.418 -11.308  -0.166  0.00  0.00    -0.046 Br
ATOM     18 BR   UNL     1      13.061  -5.641  -0.106  0.00  0.00    -0.046 Br
BRANCH  14  19
ATOM     19  O   UNL     1      14.339  -8.405  -0.142  0.00  0.00    -0.505 OA
ATOM     20  H   UNL     1      14.737  -8.389   0.739  0.00  0.00    +0.292 HD
ENDBRANCH  14  19
ENDBRANCH  10  11
ENDBRANCH   6   9
BRANCH   1  21
ATOM     21  S   UNL     1       5.436  -2.762  -0.067  0.00  0.00    -0.076 S 
BRANCH  21  22
ATOM     22  C   UNL     1       3.716  -2.186  -0.046  0.00  0.00    +0.157 C 
BRANCH  22  23
ATOM     23  C   UNL     1       3.691  -0.679  -0.038  0.00  0.00    +0.173 C 
ATOM     24  O   UNL     1       4.731  -0.056  -0.045  0.00  0.00    -0.291 OA
BRANCH  23  28
ATOM     25  C   UNL     1      -0.017   1.380   0.010  0.00  0.00    +0.000 A 
ATOM     26  C   UNL     1       1.168   2.095   0.002  0.00  0.00    +0.001 A 
ATOM     27  C   UNL     1       2.377   1.433  -0.013  0.00  0.00    +0.011 A 
ATOM     28  C   UNL     1       2.405   0.035  -0.021  0.00  0.00    +0.018 A 
ATOM     29  C   UNL     1       1.203  -0.681  -0.013  0.00  0.00    +0.011 A 
ATOM     30  C   UNL     1       0.002  -0.004   0.002  0.00  0.00    +0.001 A 
ENDBRANCH  23  28
ENDBRANCH  22  23
ENDBRANCH  21  22
ENDBRANCH   1  21
TORSDOF 7
