REMARK  Name = ZINC20185475
REMARK  7 active torsions:
REMARK  status: ('A' for Active; 'I' for Inactive)
REMARK    1  A    between atoms: C_1  and  C_2
REMARK    2  A    between atoms: C_2  and  C_4
REMARK    3  A    between atoms: C_2  and  N_12
REMARK    4  A    between atoms: C_7  and  O_11
REMARK    5  A    between atoms: C_9  and  O_10
REMARK    6  A    between atoms: N_12  and  C_13
REMARK    7  A    between atoms: C_13  and  C_14
REMARK                            x       y       z     vdW  Elec       q    Type
REMARK                         _______ _______ _______ _____ _____    ______ ____
ROOT
ATOM      1  N   UNL     1       0.633  -0.799   3.550  0.00  0.00    +0.388 N 
ATOM      2  H   UNL     1      -0.132  -1.466   3.974  0.00  0.00    -0.084 HD
ATOM      3  H   UNL     1       1.441  -1.401   3.110  0.00  0.00    -0.084 HD
ENDROOT
BRANCH   1   5
ATOM      4  C   UNL     1      -1.411   0.385   2.904  0.00  0.00    -0.009 C 
ATOM      5  C   UNL     1       0.026   0.042   2.509  0.00  0.00    -0.040 C 
BRANCH   5   6
ATOM      6  C   UNL     1       0.023  -0.705   1.199  0.00  0.00    -0.020 A 
ATOM      7  C   UNL     1       0.041  -2.087   1.192  0.00  0.00    +0.009 A 
ATOM      8  C   UNL     1       0.039  -2.774  -0.006  0.00  0.00    +0.046 A 
ATOM      9  C   UNL     1       0.018  -2.077  -1.206  0.00  0.00    +0.120 A 
ATOM     10  C   UNL     1      -0.006  -0.692  -1.202  0.00  0.00    +0.091 A 
ATOM     11  C   UNL     1       0.002  -0.004   0.002  0.00  0.00    +0.122 A 
BRANCH  11  12
ATOM     12  O   UNL     1      -0.016   1.355   0.009  0.00  0.00    -0.506 OA
ATOM     13  H   UNL     1      -0.033   1.910  -0.940  0.00  0.00    +0.292 HD
ENDBRANCH  11  12
BRANCH   9  14
ATOM     14  O   UNL     1       0.016  -2.754  -2.385  0.00  0.00    -0.507 OA
ATOM     15  H   UNL     1      -0.001  -2.202  -3.336  0.00  0.00    +0.292 HD
ENDBRANCH   9  14
ENDBRANCH   5   6
ENDBRANCH   1   5
BRANCH   1  16
ATOM     16  C   UNL     1       1.193   0.024   4.630  0.00  0.00    -0.004 C 
BRANCH  16  17
ATOM     17  C   UNL     1       1.805  -0.870   5.677  0.00  0.00    +0.121 A 
ATOM     18  N   UNL     1       3.043  -1.291   5.707  0.00  0.00    -0.136 NA
ATOM     19  N   UNL     1       3.236  -2.038   6.737  0.00  0.00    -0.129 NA
ATOM     20  C   UNL     1       2.112  -2.134   7.429  0.00  0.00    +0.161 A 
ATOM     21  N   UNL     1       1.172  -1.383   6.767  0.00  0.00    -0.288 N 
ATOM     22  C   UNL     1      -0.103  -1.294   7.245  0.00  0.00    +0.094 A 
ATOM     23  C   UNL     1      -0.456  -1.933   8.379  0.00  0.00    +0.018 A 
ATOM     24  C   UNL     1       0.486  -2.705   9.082  0.00  0.00    +0.005 A 
ATOM     25  C   UNL     1       1.759  -2.807   8.615  0.00  0.00    +0.048 A 
ENDBRANCH  16  17
ENDBRANCH   1  16
TORSDOF 6
