REMARK  Name = ZINC39737979
REMARK  8 active torsions:
REMARK  status: ('A' for Active; 'I' for Inactive)
REMARK    1  A    between atoms: C_1  and  C_2
REMARK    2  A    between atoms: C_4  and  C_15
REMARK    3  A    between atoms: C_5  and  C_14
REMARK    4  A    between atoms: C_10  and  C_13
REMARK    5  A    between atoms: C_15  and  C_17
REMARK    6  A    between atoms: C_17  and  N_18
REMARK    7  A    between atoms: C_21  and  C_26
REMARK    8  A    between atoms: C_26  and  C_27
REMARK                            x       y       z     vdW  Elec       q    Type
REMARK                         _______ _______ _______ _____ _____    ______ ____
ROOT
ATOM      1  N   UNL     1       0.050  -4.598  -3.555  0.00  0.00    -0.217 N 
ATOM      2  C   UNL     1       1.173  -5.277  -3.862  0.00  0.00    +0.244 C 
ATOM      3  O   UNL     1       2.317  -4.909  -3.704  0.00  0.00    -0.273 OA
ATOM      4  C   UNL     1       0.708  -6.597  -4.445  0.00  0.00    +0.165 C 
ATOM      5  N   UNL     1      -0.761  -6.498  -4.394  0.00  0.00    -0.287 N 
ATOM      6  C   UNL     1      -1.049  -5.300  -3.856  0.00  0.00    +0.310 C 
ATOM      7  O   UNL     1      -2.180  -4.898  -3.666  0.00  0.00    -0.252 OA
ATOM      8  H   UNL     1      -1.397  -7.169  -4.689  0.00  0.00    +0.151 HD
ENDROOT
BRANCH   1   9
ATOM      9  C   UNL     1       0.035  -3.259  -2.961  0.00  0.00    +0.197 C 
BRANCH   9  10
ATOM     10  C   UNL     1       0.042  -3.377  -1.458  0.00  0.00    +0.183 C 
ATOM     11  O   UNL     1       0.058  -4.471  -0.935  0.00  0.00    -0.290 OA
BRANCH  10  15
ATOM     12  C   UNL     1      -0.018   1.503   0.010  0.00  0.00    +0.064 C 
ATOM     13  C   UNL     1       0.002  -0.004   0.002  0.00  0.00    +0.023 A 
ATOM     14  C   UNL     1       0.008  -0.776  -1.096  0.00  0.00    +0.034 A 
ATOM     15  C   UNL     1       0.029  -2.169  -0.629  0.00  0.00    +0.040 A 
ATOM     16  C   UNL     1       0.034  -2.108   0.751  0.00  0.00    +0.033 A 
ATOM     17  N   UNL     1       0.024  -0.803   1.113  0.00  0.00    -0.303 N 
ATOM     18  C   UNL     1       0.030  -0.343   2.422  0.00  0.00    +0.157 C 
ATOM     19  N   UNL     1      -1.009  -0.112   3.146  0.00  0.00    -0.070 NA
ATOM     20  O   UNL     1      -0.687   0.358   4.439  0.00  0.00    -0.389 OA
ATOM     21  C   UNL     1       0.699   0.044   4.685  0.00  0.00    +0.209 C 
ATOM     22  C   UNL     1       1.264  -0.031   3.248  0.00  0.00    +0.125 C 
ATOM     23  C   UNL     1       1.379   1.154   5.489  0.00  0.00    +0.055 C 
ATOM     24  C   UNL     1       0.053  -3.288   1.689  0.00  0.00    +0.064 C 
ENDBRANCH  10  15
ENDBRANCH   9  10
ENDBRANCH   1   9
BRANCH   4  25
ATOM     25  C   UNL     1       1.202  -7.766  -3.591  0.00  0.00    +0.069 C 
BRANCH  25  26
ATOM     26  C   UNL     1       0.831  -9.066  -4.258  0.00  0.00    -0.020 A 
ATOM     27  C   UNL     1       1.592  -9.759  -5.301  0.00  0.00    +0.003 A 
ATOM     28  C   UNL     1       2.789  -9.492  -5.968  0.00  0.00    +0.010 A 
ATOM     29  C   UNL     1       3.244 -10.362  -6.918  0.00  0.00    +0.001 A 
ATOM     30  C   UNL     1       2.526 -11.509  -7.226  0.00  0.00    +0.002 A 
ATOM     31  C   UNL     1       1.342 -11.792  -6.580  0.00  0.00    +0.026 A 
ATOM     32  C   UNL     1       0.860 -10.921  -5.609  0.00  0.00    +0.047 A 
ATOM     33  N   UNL     1      -0.258 -10.921  -4.806  0.00  0.00    -0.360 N 
ATOM     34  C   UNL     1      -0.256  -9.812  -4.004  0.00  0.00    +0.087 A 
ATOM     35  H   UNL     1      -0.944 -11.607  -4.806  0.00  0.00    +0.165 HD
ENDBRANCH  25  26
ENDBRANCH   4  25
TORSDOF 5
