REMARK  Name = ZINC08922958
REMARK  7 active torsions:
REMARK  status: ('A' for Active; 'I' for Inactive)
REMARK    1  A    between atoms: C_1  and  C_2
REMARK    2  A    between atoms: C_2  and  C_3
REMARK    3  A    between atoms: C_3  and  C_25
REMARK    4  A    between atoms: N_6  and  N_10
REMARK    5  A    between atoms: C_11  and  C_13
REMARK    6  A    between atoms: C_13  and  S_14
REMARK    7  A    between atoms: S_14  and  C_15
REMARK                            x       y       z     vdW  Elec       q    Type
REMARK                         _______ _______ _______ _____ _____    ______ ____
ROOT
ATOM      1  C   UNL     1      -1.332   2.114   0.020  0.00  0.00    +0.139 C 
ATOM      2  C   UNL     1      -1.812   2.367  -1.395  0.00  0.00    +0.268 C 
ATOM      3  O   UNL     1      -1.255   3.018  -2.253  0.00  0.00    -0.271 OA
ATOM      4  N   UNL     1      -2.988   1.717  -1.502  0.00  0.00    -0.137 N 
ATOM      5  C   UNL     1      -3.314   1.095  -0.363  0.00  0.00    +0.327 C 
ATOM      6  O   UNL     1      -4.329   0.444  -0.216  0.00  0.00    -0.251 OA
ATOM      7  N   UNL     1      -2.392   1.272   0.600  0.00  0.00    -0.280 N 
ATOM      8  H   UNL     1      -2.420   0.914   1.502  0.00  0.00    +0.152 HD
ENDROOT
BRANCH   1   9
ATOM      9  C   UNL     1      -0.017   1.378   0.010  0.00  0.00    -0.015 A 
ATOM     10  C   UNL     1       1.171   2.086   0.002  0.00  0.00    +0.006 A 
ATOM     11  C   UNL     1       2.377   1.411  -0.015  0.00  0.00    +0.000 A 
ATOM     12  C   UNL     1       2.396   0.029  -0.022  0.00  0.00    +0.000 A 
ATOM     13  C   UNL     1       1.208  -0.679  -0.013  0.00  0.00    +0.000 A 
ATOM     14  C   UNL     1       0.002  -0.004   0.002  0.00  0.00    +0.006 A 
ENDBRANCH   1   9
BRANCH   4  15
ATOM     15  N   UNL     1      -3.773   1.696  -2.663  0.00  0.00    -0.223 N 
ATOM     16  C   UNL     1      -3.812   0.589  -3.430  0.00  0.00    +0.240 C 
ATOM     17  O   UNL     1      -3.167  -0.390  -3.116  0.00  0.00    -0.273 OA
ATOM     18  H   UNL     1      -4.289   2.478  -2.914  0.00  0.00    +0.174 HD
BRANCH  16  19
ATOM     19  C   UNL     1      -4.656   0.566  -4.678  0.00  0.00    +0.174 C 
BRANCH  19  20
ATOM     20  S   UNL     1      -4.498  -1.047  -5.484  0.00  0.00    -0.077 S 
BRANCH  20  21
ATOM     21  C   UNL     1      -5.556  -0.801  -6.872  0.00  0.00    +0.192 A 
ATOM     22  N   UNL     1      -6.231   0.290  -7.158  0.00  0.00    -0.122 NA
ATOM     23  N   UNL     1      -6.895   0.121  -8.248  0.00  0.00    -0.134 NA
ATOM     24  C   UNL     1      -6.681  -1.073  -8.716  0.00  0.00    +0.134 A 
ATOM     25  N   UNL     1      -5.826  -1.701  -7.856  0.00  0.00    -0.306 N 
ATOM     26  C   UNL     1      -5.324  -3.070  -7.972  0.00  0.00    +0.125 C 
ATOM     27  C   UNL     1      -5.284  -3.470  -9.449  0.00  0.00    +0.022 C 
ATOM     28  C   UNL     1      -6.621  -4.088  -9.854  0.00  0.00    +0.002 C 
ATOM     29  C   UNL     1      -7.753  -3.080  -9.684  0.00  0.00    +0.008 C 
ATOM     30  C   UNL     1      -7.242  -1.672  -9.980  0.00  0.00    +0.076 C 
ENDBRANCH  20  21
ENDBRANCH  19  20
ENDBRANCH  16  19
ENDBRANCH   4  15
BRANCH   1  32
ATOM     31  C   UNL     1      -2.578   4.096   0.891  0.00  0.00    +0.007 C 
ATOM     32  C   UNL     1      -1.204   3.431   0.788  0.00  0.00    +0.037 C 
ENDBRANCH   1  32
TORSDOF 6
