REMARK  Name = ZINC64970719
REMARK  10 active torsions:
REMARK  status: ('A' for Active; 'I' for Inactive)
REMARK    1  A    between atoms: C_1  and  C_2
REMARK    2  A    between atoms: C_3  and  C_8
REMARK    3  A    between atoms: C_4  and  C_7
REMARK    4  A    between atoms: C_8  and  C_9
REMARK    5  A    between atoms: C_9  and  N_10
REMARK    6  A    between atoms: C_11  and  C_13
REMARK    7  A    between atoms: C_13  and  N_14
REMARK    8  A    between atoms: C_18  and  C_31
REMARK    9  A    between atoms: N_19  and  C_25
REMARK   10  A    between atoms: C_22  and  C_24
REMARK                            x       y       z     vdW  Elec       q    Type
REMARK                         _______ _______ _______ _____ _____    ______ ____
ROOT
ATOM      1  N   UNL     1       4.157   1.022  -6.552  0.00  0.00    -0.220 N 
ATOM      2  C   UNL     1       4.707   0.029  -7.280  0.00  0.00    +0.279 A 
ATOM      3  O   UNL     1       4.138  -1.042  -7.398  0.00  0.00    -0.265 OA
ATOM      4  C   UNL     1       6.002   0.262  -7.926  0.00  0.00    +0.091 A 
ATOM      5  C   UNL     1       6.853  -0.469  -8.717  0.00  0.00    +0.055 A 
ATOM      6  N   UNL     1       7.914   0.306  -9.005  0.00  0.00    -0.236 N 
ATOM      7  N   UNL     1       7.764   1.560  -8.399  0.00  0.00    -0.164 NA
ATOM      8  C   UNL     1       6.630   1.582  -7.739  0.00  0.00    +0.121 A 
ATOM      9  C   UNL     1       5.917   2.567  -6.921  0.00  0.00    +0.086 A 
ATOM     10  N   UNL     1       4.770   2.263  -6.396  0.00  0.00    -0.171 NA
ATOM     11  C   UNL     1       6.512   3.933  -6.696  0.00  0.00    +0.070 C 
ATOM     12  C   UNL     1       6.637  -1.886  -9.180  0.00  0.00    +0.066 C 
ENDROOT
BRANCH   6  13
ATOM     13  C   UNL     1       9.005  -0.083  -9.792  0.00  0.00    +0.066 A 
ATOM     14  C   UNL     1       8.798  -0.795 -10.965  0.00  0.00    +0.028 A 
ATOM     15  C   UNL     1       9.876  -1.177 -11.739  0.00  0.00    +0.002 A 
ATOM     16  C   UNL     1      11.161  -0.851 -11.347  0.00  0.00    +0.000 A 
ATOM     17  C   UNL     1      11.371  -0.141 -10.178  0.00  0.00    +0.002 A 
ATOM     18  C   UNL     1      10.297   0.249  -9.403  0.00  0.00    +0.028 A 
ENDBRANCH   6  13
BRANCH   1  19
ATOM     19  C   UNL     1       2.862   0.790  -5.907  0.00  0.00    +0.243 C 
BRANCH  19  21
ATOM     20  N   UNL     1       2.028  -0.058  -3.738  0.00  0.00    -0.313 N 
ATOM     21  C   UNL     1       3.083   0.235  -4.523  0.00  0.00    +0.235 C 
ATOM     22  O   UNL     1       4.211   0.052  -4.116  0.00  0.00    -0.274 OA
ATOM     23  H   UNL     1       1.126   0.089  -4.063  0.00  0.00    +0.149 HD
BRANCH  20  24
ATOM     24  C   UNL     1       2.243  -0.597  -2.393  0.00  0.00    +0.109 C 
BRANCH  24  25
ATOM     25  C   UNL     1       0.891  -0.840  -1.719  0.00  0.00    +0.059 C 
BRANCH  25  28
ATOM     26  C   UNL     1       1.210   0.863   0.943  0.00  0.00    +0.069 C 
ATOM     27  C   UNL     1       1.253  -0.641   0.844  0.00  0.00    +0.084 A 
ATOM     28  C   UNL     1       1.112  -1.395  -0.335  0.00  0.00    +0.019 A 
ATOM     29  C   UNL     1       1.208  -2.699  -0.013  0.00  0.00    +0.138 A 
ATOM     30  O   UNL     1       1.403  -2.785   1.312  0.00  0.00    -0.359 OA
ATOM     31  N   UNL     1       1.433  -1.468   1.834  0.00  0.00    -0.083 NA
ATOM     32  C   UNL     1       1.114  -3.858  -0.971  0.00  0.00    +0.089 C 
ENDBRANCH  25  28
ENDBRANCH  24  25
ENDBRANCH  20  24
ENDBRANCH  19  21
ENDBRANCH   1  19
TORSDOF 6
