REMARK  Name = ZINC19336303
REMARK  5 active torsions:
REMARK  status: ('A' for Active; 'I' for Inactive)
REMARK    1  A    between atoms: C_6  and  C_7
REMARK    2  A    between atoms: N_10  and  C_19
REMARK    3  A    between atoms: C_12  and  C_14
REMARK    4  A    between atoms: C_19  and  C_20
REMARK    5  A    between atoms: C_26  and  C_29
REMARK                            x       y       z     vdW  Elec       q    Type
REMARK                         _______ _______ _______ _____ _____    ______ ____
ROOT
ATOM      1  C   UNL     1       2.490   1.047  -0.016  0.00  0.00    +0.010 C 
ATOM      2  C   UNL     1       3.313   1.450  -1.254  0.00  0.00    -0.069 C 
ATOM      3  N   UNL     1       4.554   2.086  -0.761  0.00  0.00    +0.386 N 
ATOM      4  C   UNL     1       4.781   1.532   0.598  0.00  0.00    -0.068 C 
ATOM      5  C   UNL     1       3.354   1.464   1.196  0.00  0.00    +0.029 C 
ATOM      6  H   UNL     1       4.466   3.183  -0.747  0.00  0.00    -0.081 HD
ENDROOT
BRANCH   1  12
ATOM      7  C   UNL     1      -0.013   1.076   0.008  0.00  0.00    +0.005 A 
ATOM      8  C   UNL     1      -1.219   1.750   0.017  0.00  0.00    +0.020 A 
ATOM      9  C   UNL     1      -1.237   3.134   0.030  0.00  0.00    +0.041 A 
ATOM     10  C   UNL     1      -0.048   3.841   0.022  0.00  0.00    +0.020 A 
ATOM     11  C   UNL     1       1.157   3.165   0.008  0.00  0.00    +0.005 A 
ATOM     12  C   UNL     1       1.175   1.783   0.000  0.00  0.00    -0.045 A 
ATOM     13 CL   UNL     1      -2.752   3.982   0.049  0.00  0.00    -0.084 Cl
ENDBRANCH   1  12
BRANCH   5  14
ATOM     14  C   UNL     1       3.281   0.425   2.286  0.00  0.00    +0.074 A 
ATOM     15  C   UNL     1       4.075  -0.680   2.309  0.00  0.00    +0.092 A 
ATOM     16  S   UNL     1       3.529  -1.451   3.761  0.00  0.00    +0.028 S 
ATOM     17  N   UNL     1       2.422  -0.412   4.196  0.00  0.00    -0.110 NA
ATOM     18  N   UNL     1       2.440   0.504   3.295  0.00  0.00    -0.146 NA
ENDBRANCH   5  14
BRANCH   3  19
ATOM     19  C   UNL     1       5.686   1.787  -1.648  0.00  0.00    +0.019 C 
BRANCH  19  20
ATOM     20  C   UNL     1       6.867   2.640  -1.261  0.00  0.00    +0.199 C 
ATOM     21  O   UNL     1       6.774   3.421  -0.337  0.00  0.00    -0.278 OA
ATOM     22  N   UNL     1       8.025   2.536  -1.941  0.00  0.00    -0.302 N 
ATOM     23  C   UNL     1       8.153   1.595  -3.062  0.00  0.00    +0.108 C 
ATOM     24  C   UNL     1       9.371   0.699  -2.817  0.00  0.00    +0.020 C 
ATOM     25  C   UNL     1      10.605   1.573  -2.586  0.00  0.00    +0.016 C 
ATOM     26  C   UNL     1      10.390   2.445  -1.347  0.00  0.00    +0.092 C 
ATOM     27  C   UNL     1       9.183   3.366  -1.579  0.00  0.00    +0.120 C 
BRANCH  26  28
ATOM     28  C   UNL     1      11.620   3.282  -1.101  0.00  0.00    +0.215 C 
ATOM     29  O   UNL     1      12.574   3.189  -1.844  0.00  0.00    -0.276 OA
ATOM     30  N   UNL     1      11.658   4.132  -0.056  0.00  0.00    -0.329 N 
ATOM     31  H   UNL     1      12.555   4.743   0.123  0.00  0.00    +0.145 HD
ATOM     32  H   UNL     1      10.792   4.216   0.617  0.00  0.00    +0.145 HD
ENDBRANCH  26  28
ENDBRANCH  19  20
ENDBRANCH   3  19
TORSDOF 5
