REMARK  Name = ZINC15859972
REMARK  6 active torsions:
REMARK  status: ('A' for Active; 'I' for Inactive)
REMARK    1  A    between atoms: C_3  and  C_6
REMARK    2  A    between atoms: C_6  and  C_8
REMARK    3  A    between atoms: C_6  and  N_59
REMARK    4  A    between atoms: C_8  and  N_9
REMARK    5  A    between atoms: C_10  and  C_12
REMARK    6  A    between atoms: C_14  and  C_17
REMARK                            x       y       z     vdW  Elec       q    Type
REMARK                         _______ _______ _______ _____ _____    ______ ____
ROOT
ATOM      1  N   UNL     1      -7.932  -2.576   0.018  0.00  0.00    -0.311 N 
ATOM      2  C   UNL     1      -7.261  -1.410  -0.052  0.00  0.00    +0.266 C 
ATOM      3  O   UNL     1      -7.869  -0.366  -0.187  0.00  0.00    -0.268 OA
ATOM      4  H   UNL     1      -7.447  -3.409   0.126  0.00  0.00    +0.149 HD
ENDROOT
BRANCH   2   5
ATOM      5  C   UNL     1      -5.780  -1.399   0.035  0.00  0.00    +0.168 A 
ATOM      6  C   UNL     1      -4.934  -0.262  -0.016  0.00  0.00    +0.086 A 
ATOM      7  C   UNL     1      -3.676  -0.786   0.102  0.00  0.00    +0.168 A 
ATOM      8  O   UNL     1      -3.829  -2.117   0.218  0.00  0.00    -0.354 OA
ATOM      9  N   UNL     1      -4.994  -2.438   0.179  0.00  0.00    -0.073 NA
BRANCH   7  10
ATOM     10  C   UNL     1      -2.401  -0.038   0.107  0.00  0.00    +0.024 A 
ATOM     11  C   UNL     1      -2.405   1.351  -0.024  0.00  0.00    +0.015 A 
ATOM     12  C   UNL     1      -1.214   2.046  -0.024  0.00  0.00    +0.050 A 
ATOM     13  C   UNL     1      -0.009   1.369   0.113  0.00  0.00    +0.162 A 
ATOM     14  C   UNL     1       0.001  -0.016   0.246  0.00  0.00    +0.163 A 
ATOM     15  C   UNL     1      -1.191  -0.719   0.243  0.00  0.00    +0.061 A 
ATOM     16  O   UNL     1       1.174  -0.694   0.382  0.00  0.00    -0.485 OA
ATOM     17  C   UNL     1       2.367   0.002   0.006  0.00  0.00    +0.270 C 
ATOM     18  C   UNL     1       2.314   1.409   0.618  0.00  0.00    +0.270 C 
ATOM     19  O   UNL     1       1.154   2.076   0.110  0.00  0.00    -0.485 OA
ENDBRANCH   7  10
ENDBRANCH   2   5
BRANCH   1  20
ATOM     20  C   UNL     1      -9.395  -2.587  -0.068  0.00  0.00    +0.094 C 
BRANCH  20  21
ATOM     21  C   UNL     1      -9.894  -4.033  -0.098  0.00  0.00    -0.013 C 
BRANCH  21  28
ATOM     22  C   UNL     1     -11.894  -3.191   0.996  0.00  0.00    -0.078 C 
ATOM     23  C   UNL     1     -13.370  -3.381   1.218  0.00  0.00    -0.019 C 
ATOM     24  C   UNL     1     -13.567  -4.435   2.328  0.00  0.00    -0.002 C 
ATOM     25  C   UNL     1     -13.385  -5.796   1.834  0.00  0.00    -0.002 C 
ATOM     26  C   UNL     1     -11.963  -6.029   1.281  0.00  0.00    -0.019 C 
ATOM     27  C   UNL     1     -11.882  -5.430  -0.097  0.00  0.00    -0.078 C 
ATOM     28  N   UNL     1     -11.364  -4.020  -0.140  0.00  0.00    +0.386 N 
ATOM     29  H   UNL     1     -11.667  -3.591  -1.022  0.00  0.00    -0.081 HD
ENDBRANCH  21  28
BRANCH  21  32
ATOM     30  C   UNL     1      -8.064  -6.062  -2.752  0.00  0.00    +0.008 A 
ATOM     31  C   UNL     1      -8.338  -5.550  -1.498  0.00  0.00    +0.009 A 
ATOM     32  C   UNL     1      -9.393  -4.712  -1.346  0.00  0.00    -0.022 A 
ATOM     33  S   UNL     1     -10.028  -4.614  -3.012  0.00  0.00    -0.103 S 
ATOM     34  C   UNL     1      -8.851  -5.703  -3.795  0.00  0.00    +0.045 A 
ENDBRANCH  21  32
ENDBRANCH  20  21
ENDBRANCH   1  20
TORSDOF 6
