REMARK  Name = ZINC03412824
REMARK  13 active torsions:
REMARK  status: ('A' for Active; 'I' for Inactive)
REMARK    1  A    between atoms: C_1  and  C_2
REMARK    2  A    between atoms: C_4  and  N_11
REMARK    3  A    between atoms: C_5  and  O_9
REMARK    4  A    between atoms: O_9  and  C_10
REMARK    5  A    between atoms: C_21  and  S_22
REMARK    6  A    between atoms: S_22  and  C_23
REMARK    7  A    between atoms: C_23  and  C_24
REMARK    8  A    between atoms: N_26  and  C_27
REMARK    9  A    between atoms: C_27  and  C_28
REMARK   10  A    between atoms: C_27  and  C_29
REMARK   11  A    between atoms: C_27  and  C_31
REMARK   12  A    between atoms: C_31  and  C_32
REMARK   13  A    between atoms: C_31  and  C_33
REMARK                            x       y       z     vdW  Elec       q    Type
REMARK                         _______ _______ _______ _____ _____    ______ ____
ROOT
ATOM      1  N   UNL     1       0.037  -2.766  -0.013  0.00  0.00    -0.252 N 
ATOM      2  C   UNL     1       1.240  -2.146  -0.021  0.00  0.00    +0.267 A 
ATOM      3  O   UNL     1       2.278  -2.781  -0.034  0.00  0.00    -0.267 OA
ATOM      4  C   UNL     1       1.245  -0.677  -0.013  0.00  0.00    +0.065 A 
ATOM      5  C   UNL     1       2.432   0.055  -0.020  0.00  0.00    +0.015 A 
ATOM      6  C   UNL     1       2.381   1.422  -0.012  0.00  0.00    +0.001 A 
ATOM      7  C   UNL     1       1.161   2.086   0.002  0.00  0.00    +0.002 A 
ATOM      8  C   UNL     1      -0.017   1.394   0.010  0.00  0.00    +0.028 A 
ATOM      9  C   UNL     1       0.002  -0.004   0.002  0.00  0.00    +0.079 A 
ATOM     10  N   UNL     1      -1.136  -0.726   0.009  0.00  0.00    -0.223 NA
ATOM     11  C   UNL     1      -1.119  -2.036   0.002  0.00  0.00    +0.177 A 
ENDROOT
BRANCH   1  15
ATOM     12  C   UNL     1      -0.122  -7.008   2.470  0.00  0.00    +0.045 C 
ATOM     13  C   UNL     1      -0.102  -6.248   1.169  0.00  0.00    -0.030 A 
ATOM     14  C   UNL     1      -0.037  -4.868   1.177  0.00  0.00    +0.034 A 
ATOM     15  C   UNL     1      -0.024  -4.167  -0.020  0.00  0.00    +0.094 A 
ATOM     16  C   UNL     1      -0.066  -4.859  -1.228  0.00  0.00    +0.145 A 
ATOM     17  C   UNL     1      -0.125  -6.243  -1.229  0.00  0.00    +0.068 A 
ATOM     18  C   UNL     1      -0.144  -6.935  -0.032  0.00  0.00    +0.047 A 
ATOM     19 CL   UNL     1      -0.219  -8.670  -0.035  0.00  0.00    -0.083 Cl
BRANCH  16  20
ATOM     20  O   UNL     1      -0.048  -4.177  -2.404  0.00  0.00    -0.493 OA
ATOM     21  C   UNL     1      -0.093  -4.952  -3.604  0.00  0.00    +0.277 C 
ENDBRANCH  16  20
ENDBRANCH   1  15
BRANCH  11  22
ATOM     22  S   UNL     1      -2.656  -2.897   0.012  0.00  0.00    -0.078 S 
BRANCH  22  23
ATOM     23  C   UNL     1      -3.801  -1.495   0.030  0.00  0.00    +0.173 C 
BRANCH  23  24
ATOM     24  C   UNL     1      -5.219  -2.005   0.041  0.00  0.00    +0.224 C 
ATOM     25  O   UNL     1      -5.435  -3.199   0.037  0.00  0.00    -0.275 OA
ATOM     26  N   UNL     1      -6.248  -1.135   0.056  0.00  0.00    -0.297 N 
ATOM     27  H   UNL     1      -6.076  -0.180   0.059  0.00  0.00    +0.150 HD
BRANCH  26  28
ATOM     28  C   UNL     1      -7.627  -1.630   0.066  0.00  0.00    +0.121 C 
ATOM     29  C   UNL     1      -7.851  -2.488   1.313  0.00  0.00    +0.048 C 
BRANCH  28  30
ATOM     30  C   UNL     1      -8.595  -0.445   0.082  0.00  0.00    +0.020 C 
ATOM     31  C   UNL     1     -10.031  -0.959  -0.033  0.00  0.00    +0.010 C 
ATOM     32  C   UNL     1      -8.433   0.328   1.392  0.00  0.00    +0.010 C 
ENDBRANCH  28  30
BRANCH  28  33
ATOM     33  C   UNL     1      -7.865  -2.443  -1.138  0.00  0.00    +0.088 C 
ATOM     34  N   UNL     1      -8.050  -3.070  -2.067  0.00  0.00    -0.194 NA
ENDBRANCH  28  33
ENDBRANCH  26  28
ENDBRANCH  23  24
ENDBRANCH  22  23
ENDBRANCH  11  22
TORSDOF 8
