REMARK  Name = ZINC06606729
REMARK  4 active torsions:
REMARK  status: ('A' for Active; 'I' for Inactive)
REMARK    1  A    between atoms: C_4  and  C_7
REMARK    2  A    between atoms: C_15  and  C_18
REMARK    3  A    between atoms: C_18  and  S_19
REMARK    4  A    between atoms: S_19  and  C_20
REMARK                            x       y       z     vdW  Elec       q    Type
REMARK                         _______ _______ _______ _____ _____    ______ ____
ROOT
ATOM      1  C   UNL     1       3.711  -0.707  -0.038  0.00  0.00    +0.340 C 
ATOM      2  O   UNL     1       4.469  -0.365   1.129  0.00  0.00    -0.333 OA
ATOM      3  C   UNL     1       5.783  -0.932   1.129  0.00  0.00    +0.203 C 
ATOM      4  C   UNL     1       5.692  -2.400   0.795  0.00  0.00    +0.023 A 
ATOM      5  C   UNL     1       6.767  -3.228   1.059  0.00  0.00    +0.047 A 
ATOM      6  C   UNL     1       6.695  -4.576   0.753  0.00  0.00    +0.124 A 
ATOM      7  C   UNL     1       5.546  -5.097   0.181  0.00  0.00    +0.046 A 
ATOM      8  C   UNL     1       4.471  -4.272  -0.082  0.00  0.00    +0.008 A 
ATOM      9  C   UNL     1       4.541  -2.920   0.226  0.00  0.00    +0.134 A 
ATOM     10  O   UNL     1       3.473  -2.118  -0.034  0.00  0.00    -0.459 OA
ATOM     11  F   UNL     1       7.747  -5.384   1.011  0.00  0.00    -0.205 F 
ENDROOT
BRANCH   1  15
ATOM     12  C   UNL     1      -0.017   1.378   0.010  0.00  0.00    +0.000 A 
ATOM     13  C   UNL     1       1.171   2.086   0.002  0.00  0.00    +0.000 A 
ATOM     14  C   UNL     1       2.377   1.411  -0.013  0.00  0.00    +0.010 A 
ATOM     15  C   UNL     1       2.396   0.029  -0.020  0.00  0.00    +0.020 A 
ATOM     16  C   UNL     1       1.208  -0.679  -0.012  0.00  0.00    +0.010 A 
ATOM     17  C   UNL     1       0.002  -0.004   0.002  0.00  0.00    +0.000 A 
ENDBRANCH   1  15
BRANCH   8  18
ATOM     18  C   UNL     1       3.221  -4.839  -0.705  0.00  0.00    +0.116 C 
BRANCH  18  19
ATOM     19  S   UNL     1       2.090  -5.389   0.603  0.00  0.00    -0.080 S 
BRANCH  19  20
ATOM     20  C   UNL     1       0.698  -6.018  -0.274  0.00  0.00    +0.210 A 
ATOM     21  N   UNL     1      -0.404  -6.534   0.282  0.00  0.00    -0.188 NA
ATOM     22  C   UNL     1      -1.244  -6.906  -0.660  0.00  0.00    +0.209 A 
ATOM     23  N   UNL     1      -0.680  -6.628  -1.854  0.00  0.00    -0.246 N 
ATOM     24  H   UNL     1      -1.064  -6.790  -2.730  0.00  0.00    +0.192 HD
ATOM     25  N   UNL     1       0.570  -6.050  -1.579  0.00  0.00    -0.144 NA
ATOM     26  N   UNL     1      -2.485  -7.481  -0.462  0.00  0.00    -0.328 N 
ATOM     27  H   UNL     1      -2.807  -7.643   0.439  0.00  0.00    +0.145 HD
ATOM     28  H   UNL     1      -3.035  -7.723  -1.224  0.00  0.00    +0.145 HD
ENDBRANCH  19  20
ENDBRANCH  18  19
ENDBRANCH   8  18
TORSDOF 4
