REMARK  Name = ZINC34791276
REMARK  13 active torsions:
REMARK  status: ('A' for Active; 'I' for Inactive)
REMARK    1  A    between atoms: C_1  and  C_2
REMARK    2  A    between atoms: C_2  and  N_3
REMARK    3  A    between atoms: C_6  and  C_11
REMARK    4  A    between atoms: C_14  and  C_18
REMARK    5  A    between atoms: C_16  and  C_17
REMARK    6  A    between atoms: N_21  and  C_23
REMARK    7  A    between atoms: C_23  and  C_25
REMARK    8  A    between atoms: C_23  and  C_29
REMARK    9  A    between atoms: C_25  and  C_26
REMARK   10  A    between atoms: C_26  and  C_27
REMARK   11  A    between atoms: C_26  and  C_28
REMARK   12  A    between atoms: N_31  and  C_32
REMARK   13  A    between atoms: C_32  and  C_33
REMARK                            x       y       z     vdW  Elec       q    Type
REMARK                         _______ _______ _______ _____ _____    ______ ____
ROOT
ATOM      1  N   UNL     1       0.384  -0.488  -1.397  0.00  0.00    -0.257 N 
ATOM      2  C   UNL     1      -0.219  -0.863  -2.563  0.00  0.00    +0.042 C 
ATOM      3  C   UNL     1       0.505  -1.300  -3.615  0.00  0.00    +0.058 C 
ATOM      4  C   UNL     1       2.011  -1.360  -3.457  0.00  0.00    +0.142 C 
ATOM      5  N   UNL     1       2.563  -0.933  -2.160  0.00  0.00    -0.288 N 
ATOM      6  C   UNL     1       1.709  -0.516  -1.205  0.00  0.00    +0.307 C 
ATOM      7  O   UNL     1       2.156  -0.158  -0.132  0.00  0.00    -0.252 OA
ATOM      8  C   UNL     1      -0.344  -1.625  -4.693  0.00  0.00    +0.247 C 
ATOM      9  O   UNL     1       0.041  -2.044  -5.769  0.00  0.00    -0.270 OA
ATOM     10  N   UNL     1      -1.634  -1.411  -4.377  0.00  0.00    -0.281 N 
ATOM     11  C   UNL     1      -1.667  -0.908  -2.995  0.00  0.00    +0.160 C 
ATOM     12  H   UNL     1       3.519  -0.949  -1.999  0.00  0.00    +0.151 HD
ENDROOT
BRANCH   4  13
ATOM     13  C   UNL     1       2.624  -0.497  -4.529  0.00  0.00    -0.020 A 
ATOM     14  C   UNL     1       1.864   0.473  -5.156  0.00  0.00    +0.006 A 
ATOM     15  C   UNL     1       2.427   1.264  -6.139  0.00  0.00    +0.004 A 
ATOM     16  C   UNL     1       3.751   1.087  -6.496  0.00  0.00    -0.050 A 
ATOM     17  C   UNL     1       4.511   0.118  -5.869  0.00  0.00    +0.007 A 
ATOM     18  C   UNL     1       3.949  -0.671  -4.882  0.00  0.00    -0.045 A 
ATOM     19  C   UNL     1       4.780  -1.724  -4.195  0.00  0.00    +0.044 C 
ATOM     20  C   UNL     1       4.364   1.949  -7.569  0.00  0.00    +0.044 C 
ENDBRANCH   4  13
BRANCH   1  22
ATOM     21  C   UNL     1      -0.661   1.490  -0.408  0.00  0.00    +0.025 C 
ATOM     22  C   UNL     1      -0.465  -0.024  -0.297  0.00  0.00    +0.111 C 
ENDBRANCH   1  22
BRANCH  10  23
ATOM     23  C   UNL     1      -2.791  -1.636  -5.248  0.00  0.00    +0.163 C 
BRANCH  23  24
ATOM     24  C   UNL     1      -2.844  -3.088  -5.646  0.00  0.00    +0.234 C 
ATOM     25  O   UNL     1      -1.999  -3.859  -5.243  0.00  0.00    -0.274 OA
ATOM     26  N   UNL     1      -3.830  -3.530  -6.451  0.00  0.00    -0.310 N 
ATOM     27  H   UNL     1      -4.506  -2.914  -6.774  0.00  0.00    +0.149 HD
BRANCH  26  28
ATOM     28  C   UNL     1      -3.882  -4.942  -6.839  0.00  0.00    +0.139 C 
BRANCH  28  29
ATOM     29  C   UNL     1      -5.072  -5.174  -7.734  0.00  0.00    -0.030 A 
ATOM     30  C   UNL     1      -6.294  -5.513  -7.185  0.00  0.00    +0.005 A 
ATOM     31  C   UNL     1      -7.386  -5.726  -8.007  0.00  0.00    +0.000 A 
ATOM     32  C   UNL     1      -7.255  -5.599  -9.377  0.00  0.00    +0.000 A 
ATOM     33  C   UNL     1      -6.032  -5.259  -9.926  0.00  0.00    +0.000 A 
ATOM     34  C   UNL     1      -4.942  -5.042  -9.104  0.00  0.00    +0.005 A 
ENDBRANCH  28  29
ENDBRANCH  26  28
ENDBRANCH  23  24
BRANCH  23  35
ATOM     35  C   UNL     1      -2.663  -0.767  -6.501  0.00  0.00    +0.035 C 
BRANCH  35  36
ATOM     36  C   UNL     1      -2.734   0.709  -6.107  0.00  0.00    -0.015 C 
ATOM     37  C   UNL     1      -2.482   1.579  -7.341  0.00  0.00    +0.007 C 
ATOM     38  C   UNL     1      -4.120   1.020  -5.540  0.00  0.00    +0.007 C 
ENDBRANCH  35  36
ENDBRANCH  23  35
ENDBRANCH  10  23
TORSDOF 8
