REMARK  Name = ZINC21584133
REMARK  10 active torsions:
REMARK  status: ('A' for Active; 'I' for Inactive)
REMARK    1  A    between atoms: C_1  and  C_2
REMARK    2  A    between atoms: C_5  and  S_9
REMARK    3  A    between atoms: C_7  and  C_8
REMARK    4  A    between atoms: S_9  and  N_12
REMARK    5  A    between atoms: C_18  and  C_20
REMARK    6  A    between atoms: C_20  and  N_21
REMARK    7  A    between atoms: N_21  and  C_22
REMARK    8  A    between atoms: N_21  and  C_28
REMARK    9  A    between atoms: C_22  and  C_23
REMARK   10  A    between atoms: C_28  and  C_29
REMARK                            x       y       z     vdW  Elec       q    Type
REMARK                         _______ _______ _______ _____ _____    ______ ____
ROOT
ATOM      1  N   UNL     1      -6.009   6.803  -2.286  0.00  0.00    -0.174 NA
ATOM      2  C   UNL     1      -5.339   7.326  -1.087  0.00  0.00    +0.128 C 
ATOM      3  C   UNL     1      -3.835   7.428  -1.371  0.00  0.00    +0.125 C 
ATOM      4  N   UNL     1      -3.377   6.152  -1.939  0.00  0.00    -0.300 N 
ATOM      5  C   UNL     1      -4.043   5.633  -3.141  0.00  0.00    +0.125 C 
ATOM      6  C   UNL     1      -5.551   5.528  -2.854  0.00  0.00    +0.128 C 
ATOM      7  C   UNL     1      -2.360   5.474  -1.371  0.00  0.00    +0.199 C 
ATOM      8  O   UNL     1      -1.815   5.916  -0.382  0.00  0.00    -0.278 OA
ENDROOT
BRANCH   1   9
ATOM      9  S   UNL     1      -7.257   7.637  -2.985  0.00  0.00    +0.061 S 
ATOM     10  O   UNL     1      -8.027   6.686  -3.707  0.00  0.00    -0.153 OA
ATOM     11  O   UNL     1      -7.818   8.456  -1.968  0.00  0.00    -0.153 OA
BRANCH   9  16
ATOM     12  C   UNL     1      -4.847  11.367  -7.070  0.00  0.00    +0.044 C 
ATOM     13  C   UNL     1      -5.449  10.435  -6.049  0.00  0.00    -0.047 A 
ATOM     14  C   UNL     1      -5.625  10.859  -4.745  0.00  0.00    +0.005 A 
ATOM     15  C   UNL     1      -6.182  10.006  -3.811  0.00  0.00    +0.029 A 
ATOM     16  C   UNL     1      -6.553   8.726  -4.178  0.00  0.00    +0.106 A 
ATOM     17  C   UNL     1      -6.378   8.303  -5.481  0.00  0.00    +0.032 A 
ATOM     18  C   UNL     1      -5.826   9.157  -6.417  0.00  0.00    -0.046 A 
ATOM     19  C   UNL     1      -5.634   8.695  -7.839  0.00  0.00    +0.044 C 
ENDBRANCH   9  16
ENDBRANCH   1   9
BRANCH   7  20
ATOM     20  C   UNL     1      -1.901   4.167  -1.965  0.00  0.00    +0.019 C 
BRANCH  20  21
ATOM     21  N   UNL     1      -0.838   3.595  -1.127  0.00  0.00    +0.390 N 
ATOM     22  H   UNL     1      -1.158   3.671  -0.077  0.00  0.00    -0.081 HD
BRANCH  21  23
ATOM     23  C   UNL     1       0.412   4.353  -1.273  0.00  0.00    -0.035 C 
BRANCH  23  24
ATOM     24  C   UNL     1       0.881   4.276  -2.703  0.00  0.00    -0.027 A 
ATOM     25  C   UNL     1       0.659   5.143  -3.722  0.00  0.00    +0.009 A 
ATOM     26  C   UNL     1       1.195   4.866  -4.966  0.00  0.00    +0.008 A 
ATOM     27  C   UNL     1       1.927   3.737  -5.130  0.00  0.00    +0.045 A 
ATOM     28  S   UNL     1       1.881   3.025  -3.494  0.00  0.00    -0.103 S 
ENDBRANCH  23  24
ENDBRANCH  21  23
BRANCH  21  29
ATOM     29  C   UNL     1      -0.632   2.174  -1.436  0.00  0.00    -0.046 C 
BRANCH  29  30
ATOM     30  C   UNL     1       0.055   1.490  -0.253  0.00  0.00    +0.102 C 
ATOM     31  C   UNL     1       0.124  -0.031  -0.495  0.00  0.00    +0.032 C 
ATOM     32  C   UNL     1       1.637  -0.355  -0.442  0.00  0.00    +0.030 C 
ATOM     33  C   UNL     1       2.202   0.857   0.342  0.00  0.00    +0.160 C 
ATOM     34  O   UNL     1       1.407   1.965  -0.131  0.00  0.00    -0.378 OA
ENDBRANCH  29  30
ENDBRANCH  21  29
ENDBRANCH  20  21
ENDBRANCH   7  20
TORSDOF 8
