REMARK  Name = ZINC39661131
REMARK  6 active torsions:
REMARK  status: ('A' for Active; 'I' for Inactive)
REMARK    1  A    between atoms: C_1  and  C_2
REMARK    2  A    between atoms: C_2  and  C_3
REMARK    3  A    between atoms: C_3  and  C_5
REMARK    4  A    between atoms: C_3  and  C_6
REMARK    5  A    between atoms: C_10  and  C_19
REMARK    6  A    between atoms: N_21  and  C_22
REMARK                            x       y       z     vdW  Elec       q    Type
REMARK                         _______ _______ _______ _____ _____    ______ ____
ROOT
ATOM      1  C   UNL     1       0.775  -1.689  -1.423  0.00  0.00    +0.218 C 
ATOM      2  O   UNL     1       0.265  -2.201  -0.449  0.00  0.00    -0.275 OA
ATOM      3  N   UNL     1       1.394  -2.457  -2.341  0.00  0.00    -0.300 N 
ATOM      4  C   UNL     1       2.075  -2.017  -3.582  0.00  0.00    +0.121 C 
ATOM      5  C   UNL     1       3.329  -2.915  -3.678  0.00  0.00    +0.100 C 
ATOM      6  C   UNL     1       2.977  -4.170  -2.862  0.00  0.00    -0.004 C 
ATOM      7  C   UNL     1       1.554  -3.930  -2.335  0.00  0.00    +0.115 C 
ATOM      8  C   UNL     1       3.945  -4.329  -1.694  0.00  0.00    -0.010 C 
ATOM      9  C   UNL     1       3.610  -5.614  -0.931  0.00  0.00    -0.082 C 
ATOM     10  N   UNL     1       3.711  -6.764  -1.837  0.00  0.00    +0.379 N 
ATOM     11  C   UNL     1       2.712  -6.649  -2.906  0.00  0.00    -0.082 C 
ATOM     12  C   UNL     1       3.010  -5.408  -3.753  0.00  0.00    -0.010 C 
ATOM     13  H   UNL     1       4.635  -6.791  -2.243  0.00  0.00    -0.086 HD
ATOM     14  H   UNL     1       3.550  -7.615  -1.318  0.00  0.00    -0.086 HD
ENDROOT
BRANCH   5  15
ATOM     15  C   UNL     1       4.522  -2.216  -3.081  0.00  0.00    +0.219 C 
ATOM     16  O   UNL     1       4.372  -1.437  -2.163  0.00  0.00    -0.275 OA
ATOM     17  N   UNL     1       5.757  -2.455  -3.566  0.00  0.00    -0.304 N 
ATOM     18  H   UNL     1       5.877  -3.078  -4.300  0.00  0.00    +0.149 HD
BRANCH  17  19
ATOM     19  C   UNL     1       6.917  -1.775  -2.986  0.00  0.00    +0.151 C 
ATOM     20  C   UNL     1       8.012  -1.664  -4.048  0.00  0.00    +0.042 C 
ATOM     21  C   UNL     1       9.365  -1.502  -3.315  0.00  0.00    +0.079 C 
ATOM     22  S   UNL     1       9.054  -2.415  -1.754  0.00  0.00    -0.086 S 
ATOM     23  C   UNL     1       7.383  -2.546  -1.774  0.00  0.00    +0.209 C 
ATOM     24  O   UNL     1       6.689  -3.139  -0.974  0.00  0.00    -0.283 OA
ENDBRANCH  17  19
ENDBRANCH   5  15
BRANCH   1  25
ATOM     25  C   UNL     1       0.716  -0.194  -1.607  0.00  0.00    +0.072 C 
ATOM     26  C   UNL     1      -0.013   0.131  -2.912  0.00  0.00    +0.017 C 
BRANCH  25  28
ATOM     27  C   UNL     1       0.010   1.959  -0.554  0.00  0.00    +0.004 C 
ATOM     28  C   UNL     1      -0.037   0.434  -0.433  0.00  0.00    +0.009 C 
ENDBRANCH  25  28
ENDBRANCH   1  25
TORSDOF 4
