REMARK  Name = ZINC13717713
REMARK  10 active torsions:
REMARK  status: ('A' for Active; 'I' for Inactive)
REMARK    1  A    between atoms: C_1  and  C_2
REMARK    2  A    between atoms: C_2  and  O_3
REMARK    3  A    between atoms: O_3  and  C_4
REMARK    4  A    between atoms: C_6  and  C_22
REMARK    5  A    between atoms: C_9  and  O_10
REMARK    6  A    between atoms: O_10  and  C_11
REMARK    7  A    between atoms: N_15  and  C_16
REMARK    8  A    between atoms: C_22  and  N_52
REMARK    9  A    between atoms: C_23  and  C_24
REMARK   10  A    between atoms: C_23  and  N_52
REMARK                            x       y       z     vdW  Elec       q    Type
REMARK                         _______ _______ _______ _____ _____    ______ ____
ROOT
ATOM      1  C   UNL     1       3.351  -0.794   2.176  0.00  0.00    +0.163 A 
ATOM      2  C   UNL     1       2.669  -0.266   1.091  0.00  0.00    +0.051 A 
ATOM      3  C   UNL     1       2.205   1.036   1.135  0.00  0.00    -0.061 A 
ATOM      4  C   UNL     1       2.425   1.815   2.255  0.00  0.00    +0.005 A 
ATOM      5  C   UNL     1       3.100   1.292   3.342  0.00  0.00    +0.050 A 
ATOM      6  C   UNL     1       3.568  -0.012   3.306  0.00  0.00    +0.173 A 
ENDROOT
BRANCH   1   7
ATOM      7  O   UNL     1       3.809  -2.074   2.135  0.00  0.00    -0.489 OA
BRANCH   7   9
ATOM      8  C   UNL     1       4.136  -4.224   1.082  0.00  0.00    +0.048 C 
ATOM      9  C   UNL     1       3.550  -2.817   0.942  0.00  0.00    +0.226 C 
ENDBRANCH   7   9
ENDBRANCH   1   7
BRANCH   6  10
ATOM     10  O   UNL     1       4.237  -0.526   4.373  0.00  0.00    -0.419 OA
BRANCH  10  11
ATOM     11  C   UNL     1       4.285   0.211   5.508  0.00  0.00    +0.347 A 
ATOM     12  N   UNL     1       3.650   1.338   5.734  0.00  0.00    -0.070 NA
ATOM     13  N   UNL     1       3.911   1.774   6.914  0.00  0.00    -0.019 NA
ATOM     14  N   UNL     1       4.725   0.976   7.516  0.00  0.00    -0.036 NA
ATOM     15  N   UNL     1       5.000  -0.074   6.623  0.00  0.00    -0.162 N 
BRANCH  15  16
ATOM     16  C   UNL     1       5.836  -1.179   6.839  0.00  0.00    +0.072 A 
ATOM     17  C   UNL     1       5.507  -2.416   6.300  0.00  0.00    +0.028 A 
ATOM     18  C   UNL     1       6.335  -3.502   6.511  0.00  0.00    +0.002 A 
ATOM     19  C   UNL     1       7.484  -3.360   7.266  0.00  0.00    +0.000 A 
ATOM     20  C   UNL     1       7.812  -2.131   7.809  0.00  0.00    +0.002 A 
ATOM     21  C   UNL     1       6.991  -1.041   7.597  0.00  0.00    +0.028 A 
ENDBRANCH  15  16
ENDBRANCH  10  11
ENDBRANCH   6  10
BRANCH   3  22
ATOM     22  C   UNL     1       1.463   1.609  -0.045  0.00  0.00    -0.046 C 
BRANCH  22  23
ATOM     23  N   UNL     1       0.021   1.345   0.116  0.00  0.00    +0.384 N 
ATOM     24  H   UNL     1      -0.309   1.786   0.983  0.00  0.00    -0.085 HD
ATOM     25  H   UNL     1      -0.135   0.331   0.167  0.00  0.00    -0.085 HD
BRANCH  23  26
ATOM     26  C   UNL     1      -0.732   1.896  -1.027  0.00  0.00    -0.045 C 
BRANCH  26  27
ATOM     27  C   UNL     1      -2.199   1.612  -0.834  0.00  0.00    -0.046 A 
ATOM     28  C   UNL     1      -2.793   0.558  -1.504  0.00  0.00    +0.003 A 
ATOM     29  C   UNL     1      -4.138   0.295  -1.324  0.00  0.00    +0.000 A 
ATOM     30  C   UNL     1      -4.893   1.092  -0.483  0.00  0.00    +0.001 A 
ATOM     31  C   UNL     1      -4.301   2.148   0.183  0.00  0.00    +0.020 A 
ATOM     32  C   UNL     1      -2.954   2.409   0.008  0.00  0.00    +0.042 A 
ATOM     33 CL   UNL     1      -2.210   3.737   0.843  0.00  0.00    -0.083 Cl
ENDBRANCH  26  27
ENDBRANCH  23  26
ENDBRANCH  22  23
ENDBRANCH   3  22
TORSDOF 9
