REMARK  Name = ZINC26539484
REMARK  10 active torsions:
REMARK  status: ('A' for Active; 'I' for Inactive)
REMARK    1  A    between atoms: C_1  and  C_2
REMARK    2  A    between atoms: C_5  and  O_8
REMARK    3  A    between atoms: O_8  and  C_9
REMARK    4  A    between atoms: C_9  and  C_10
REMARK    5  A    between atoms: C_12  and  C_15
REMARK    6  A    between atoms: C_15  and  C_16
REMARK    7  A    between atoms: N_18  and  N_19
REMARK    8  A    between atoms: C_20  and  C_22
REMARK    9  A    between atoms: C_22  and  C_23
REMARK   10  A    between atoms: N_31  and  C_32
REMARK                            x       y       z     vdW  Elec       q    Type
REMARK                         _______ _______ _______ _____ _____    ______ ____
ROOT
ATOM      1  C   UNL     1      -5.503   3.952   2.983  0.00  0.00    +0.235 C 
ATOM      2  O   UNL     1      -4.945   2.917   2.684  0.00  0.00    -0.274 OA
ATOM      3  N   UNL     1      -6.231   4.022   4.114  0.00  0.00    -0.234 N 
ATOM      4  H   UNL     1      -6.737   4.960   4.386  0.00  0.00    +0.173 HD
ENDROOT
BRANCH   3   5
ATOM      5  N   UNL     1      -6.344   2.899   4.945  0.00  0.00    -0.234 N 
ATOM      6  C   UNL     1      -7.073   2.969   6.077  0.00  0.00    +0.236 C 
ATOM      7  O   UNL     1      -7.631   4.004   6.376  0.00  0.00    -0.274 OA
ATOM      8  H   UNL     1      -5.838   1.961   4.674  0.00  0.00    +0.173 HD
BRANCH   6   9
ATOM      9  C   UNL     1      -7.195   1.762   6.971  0.00  0.00    +0.171 C 
BRANCH   9  10
ATOM     10  C   UNL     1      -8.056   2.102   8.159  0.00  0.00    +0.119 A 
ATOM     11  N   UNL     1      -7.615   2.576   9.288  0.00  0.00    -0.232 NA
ATOM     12  C   UNL     1      -8.655   2.771  10.139  0.00  0.00    +0.089 A 
ATOM     13  C   UNL     1      -8.753   3.251  11.448  0.00  0.00    +0.030 A 
ATOM     14  C   UNL     1      -9.974   3.327  12.056  0.00  0.00    +0.002 A 
ATOM     15  C   UNL     1     -11.124   2.931  11.386  0.00  0.00    +0.002 A 
ATOM     16  C   UNL     1     -11.051   2.455  10.095  0.00  0.00    +0.028 A 
ATOM     17  C   UNL     1      -9.819   2.371   9.461  0.00  0.00    +0.069 A 
ATOM     18  N   UNL     1      -9.407   1.952   8.211  0.00  0.00    -0.330 N 
ATOM     19  C   UNL     1     -10.266   1.442   7.140  0.00  0.00    +0.150 C 
ENDBRANCH   9  10
ENDBRANCH   6   9
ENDBRANCH   3   5
BRANCH   1  20
ATOM     20  C   UNL     1      -5.381   5.159   2.089  0.00  0.00    +0.153 C 
BRANCH  20  23
ATOM     21  C   UNL     1      -2.545   4.034   0.036  0.00  0.00    +0.116 A 
ATOM     22  N   UNL     1      -3.308   4.329   1.063  0.00  0.00    -0.245 NA
ATOM     23  C   UNL     1      -4.519   4.819   0.900  0.00  0.00    +0.058 A 
ATOM     24  C   UNL     1      -4.976   5.005  -0.365  0.00  0.00    +0.070 A 
ATOM     25  S   UNL     1      -3.565   4.445  -1.308  0.00  0.00    -0.077 S 
BRANCH  21  26
ATOM     26  C   UNL     1      -1.145   3.475   0.026  0.00  0.00    +0.291 C 
BRANCH  26  27
ATOM     27  O   UNL     1      -1.202   2.048   0.019  0.00  0.00    -0.485 OA
BRANCH  27  32
ATOM     28  C   UNL     1       3.711  -0.707  -0.037  0.00  0.00    +0.044 C 
ATOM     29  C   UNL     1       2.396   0.030  -0.021  0.00  0.00    -0.050 A 
ATOM     30  C   UNL     1       1.208  -0.677  -0.013  0.00  0.00    +0.007 A 
ATOM     31  C   UNL     1       0.002  -0.004   0.002  0.00  0.00    +0.046 A 
ATOM     32  C   UNL     1      -0.017   1.383   0.010  0.00  0.00    +0.121 A 
ATOM     33  C   UNL     1       1.177   2.091   0.002  0.00  0.00    +0.046 A 
ATOM     34  C   UNL     1       2.380   1.413  -0.013  0.00  0.00    +0.007 A 
ENDBRANCH  27  32
ENDBRANCH  26  27
ENDBRANCH  21  26
ENDBRANCH  20  23
ENDBRANCH   1  20
TORSDOF 8
