REMARK  Name = ZINC43043255
REMARK  7 active torsions:
REMARK  status: ('A' for Active; 'I' for Inactive)
REMARK    1  A    between atoms: C_1  and  C_2
REMARK    2  A    between atoms: C_7  and  N_12
REMARK    3  A    between atoms: C_9  and  C_11
REMARK    4  A    between atoms: N_15  and  N_16
REMARK    5  A    between atoms: N_16  and  C_17
REMARK    6  A    between atoms: C_17  and  N_19
REMARK    7  A    between atoms: N_19  and  C_20
REMARK                            x       y       z     vdW  Elec       q    Type
REMARK                         _______ _______ _______ _____ _____    ______ ____
ROOT
ATOM      1  N   UNL     1       0.735  -0.503   3.687  0.00  0.00    -0.295 N 
ATOM      2  C   UNL     1       0.634   0.166   4.853  0.00  0.00    +0.316 C 
ATOM      3  O   UNL     1      -0.045   1.173   4.919  0.00  0.00    -0.251 OA
ATOM      4  N   UNL     1       1.286  -0.280   5.945  0.00  0.00    -0.219 N 
ATOM      5  H   UNL     1       1.276  -1.306   3.634  0.00  0.00    +0.151 HD
ATOM      6  H   UNL     1       1.213   0.201   6.784  0.00  0.00    +0.174 HD
ENDROOT
BRANCH   1  12
ATOM      7  C   UNL     1      -0.019   1.526   0.010  0.00  0.00    +0.008 C 
ATOM      8  C   UNL     1       0.002  -0.004   0.002  0.00  0.00    -0.009 C 
ATOM      9  C   UNL     1      -1.433  -0.534   0.013  0.00  0.00    +0.003 C 
ATOM     10  C   UNL     1      -2.149  -0.040   1.272  0.00  0.00    +0.002 C 
ATOM     11  C   UNL     1      -1.409  -0.547   2.511  0.00  0.00    +0.022 C 
ATOM     12  C   UNL     1       0.026  -0.018   2.500  0.00  0.00    +0.078 C 
ATOM     13  C   UNL     1       0.742  -0.511   1.242  0.00  0.00    +0.009 C 
ATOM     14  C   UNL     1       2.178   0.019   1.231  0.00  0.00    +0.009 C 
ENDBRANCH   1  12
BRANCH   4  15
ATOM     15  N   UNL     1       2.068  -1.440   5.868  0.00  0.00    -0.245 N 
ATOM     16  H   UNL     1       2.140  -1.921   5.029  0.00  0.00    +0.172 HD
BRANCH  15  17
ATOM     17  C   UNL     1       2.720  -1.886   6.960  0.00  0.00    +0.147 C 
ATOM     18  S   UNL     1       3.676  -3.303   6.866  0.00  0.00    -0.017 S 
BRANCH  17  19
ATOM     19  N   UNL     1       2.619  -1.217   8.126  0.00  0.00    -0.323 N 
ATOM     20  H   UNL     1       2.077  -0.414   8.179  0.00  0.00    +0.148 HD
BRANCH  19  21
ATOM     21  C   UNL     1       3.328  -1.702   9.312  0.00  0.00    +0.072 C 
ATOM     22  C   UNL     1       2.451  -2.720  10.072  0.00  0.00    +0.022 C 
ATOM     23  C   UNL     1       2.742  -2.432  11.565  0.00  0.00    +0.002 C 
ATOM     24  C   UNL     1       2.863  -0.888  11.598  0.00  0.00    +0.002 C 
ATOM     25  C   UNL     1       3.589  -0.538  10.283  0.00  0.00    +0.022 C 
ENDBRANCH  19  21
ENDBRANCH  17  19
ENDBRANCH  15  17
ENDBRANCH   4  15
TORSDOF 5
