REMARK  Name = ZINC07026795
REMARK  12 active torsions:
REMARK  status: ('A' for Active; 'I' for Inactive)
REMARK    1  A    between atoms: C_1  and  C_2
REMARK    2  A    between atoms: C_2  and  N_3
REMARK    3  A    between atoms: N_3  and  C_4
REMARK    4  A    between atoms: C_7  and  C_13
REMARK    5  A    between atoms: C_9  and  N_10
REMARK    6  A    between atoms: N_15  and  N_16
REMARK    7  A    between atoms: C_17  and  C_18
REMARK    8  A    between atoms: C_17  and  C_19
REMARK    9  A    between atoms: C_20  and  C_21
REMARK   10  A    between atoms: C_23  and  C_30
REMARK   11  A    between atoms: C_27  and  C_28
REMARK   12  A    between atoms: C_27  and  C_29
REMARK                            x       y       z     vdW  Elec       q    Type
REMARK                         _______ _______ _______ _____ _____    ______ ____
ROOT
ATOM      1  C   UNL     1      -2.336  -6.062  -0.115  0.00  0.00    +0.263 C 
ATOM      2  O   UNL     1      -3.476  -6.482  -0.060  0.00  0.00    -0.268 OA
ATOM      3  N   UNL     1      -1.306  -6.923  -0.231  0.00  0.00    -0.203 N 
ATOM      4  H   UNL     1      -0.396  -6.588  -0.274  0.00  0.00    +0.178 HD
ENDROOT
BRANCH   1   8
ATOM      5  C   UNL     1      -1.603  -1.884   0.060  0.00  0.00    +0.058 A 
ATOM      6  C   UNL     1      -0.537  -2.772  -0.060  0.00  0.00    +0.026 A 
ATOM      7  C   UNL     1      -0.771  -4.126  -0.117  0.00  0.00    +0.015 A 
ATOM      8  C   UNL     1      -2.082  -4.611  -0.054  0.00  0.00    +0.041 A 
ATOM      9  C   UNL     1      -3.150  -3.717   0.066  0.00  0.00    +0.047 A 
ATOM     10  C   UNL     1      -2.908  -2.363   0.128  0.00  0.00    +0.148 A 
BRANCH  10  11
ATOM     11  N   UNL     1      -4.038  -1.416   0.262  0.00  0.00    +0.058 N 
ATOM     12  O   UNL     1      -4.996  -1.705   0.957  0.00  0.00    -0.126 OA
ATOM     13  O   UNL     1      -4.010  -0.348  -0.323  0.00  0.00    -0.126 OA
ENDBRANCH  10  11
BRANCH   5  14
ATOM     14  N   UNL     1      -1.363  -0.515   0.118  0.00  0.00    -0.342 N 
ATOM     15  H   UNL     1      -2.095   0.099   0.287  0.00  0.00    +0.146 HD
BRANCH  14  17
ATOM     16  C   UNL     1      -0.017   1.525   0.036  0.00  0.00    +0.024 C 
ATOM     17  C   UNL     1      -0.005  -0.001  -0.076  0.00  0.00    +0.098 C 
ENDBRANCH  14  17
ENDBRANCH   5  14
ENDBRANCH   1   8
BRANCH   3  18
ATOM     18  N   UNL     1      -1.547  -8.302  -0.288  0.00  0.00    -0.185 NA
ATOM     19  C   UNL     1      -0.553  -9.132  -0.400  0.00  0.00    +0.056 C 
ATOM     20  C   UNL     1       0.859  -8.611  -0.467  0.00  0.00    +0.067 C 
BRANCH  19  21
ATOM     21  C   UNL     1      -0.806 -10.575  -0.460  0.00  0.00    +0.021 C 
ATOM     22  C   UNL     1      -2.054 -11.036  -0.400  0.00  0.00    -0.017 C 
BRANCH  22  23
ATOM     23  C   UNL     1      -2.315 -12.519  -0.462  0.00  0.00    +0.043 C 
ATOM     24  C   UNL     1      -2.998 -12.957   0.800  0.00  0.00    -0.069 C 
ATOM     25  C   UNL     1      -4.264 -13.215   0.887  0.00  0.00    -0.027 C 
ATOM     26  C   UNL     1      -5.222 -13.123  -0.265  0.00  0.00    +0.028 C 
ATOM     27  C   UNL     1      -4.607 -12.297  -1.397  0.00  0.00    +0.011 C 
ATOM     28  C   UNL     1      -3.196 -12.829  -1.674  0.00  0.00    -0.025 C 
ATOM     29  C   UNL     1      -2.622 -12.143  -2.916  0.00  0.00    +0.012 C 
ATOM     30  C   UNL     1      -3.251 -14.342  -1.896  0.00  0.00    +0.012 C 
ATOM     31  C   UNL     1      -2.160 -13.105   2.043  0.00  0.00    +0.039 C 
ENDBRANCH  22  23
ENDBRANCH  19  21
ENDBRANCH   3  18
TORSDOF 7
