REMARK  Name = ZINC34906142
REMARK  9 active torsions:
REMARK  status: ('A' for Active; 'I' for Inactive)
REMARK    1  A    between atoms: C_1  and  C_2
REMARK    2  A    between atoms: C_6  and  N_9
REMARK    3  A    between atoms: C_7  and  C_8
REMARK    4  A    between atoms: N_12  and  C_13
REMARK    5  A    between atoms: C_19  and  N_21
REMARK    6  A    between atoms: C_22  and  C_24
REMARK    7  A    between atoms: C_27  and  C_29
REMARK    8  A    between atoms: C_29  and  O_30
REMARK    9  A    between atoms: O_30  and  C_31
REMARK                            x       y       z     vdW  Elec       q    Type
REMARK                         _______ _______ _______ _____ _____    ______ ____
ROOT
ATOM      1  C   UNL     1      -0.210  -6.281   3.541  0.00  0.00    +0.095 C 
ATOM      2  C   UNL     1      -1.670  -6.700   3.357  0.00  0.00    +0.024 C 
ATOM      3  C   UNL     1      -2.509  -6.143   4.509  0.00  0.00    +0.002 C 
ATOM      4  C   UNL     1      -1.983  -6.694   5.836  0.00  0.00    +0.002 C 
ATOM      5  C   UNL     1      -0.523  -6.274   6.019  0.00  0.00    +0.024 C 
ATOM      6  C   UNL     1       0.316  -6.831   4.868  0.00  0.00    +0.093 C 
ENDROOT
BRANCH   1  10
ATOM      7  N   UNL     1       0.051  -2.797   2.393  0.00  0.00    -0.269 N 
ATOM      8  C   UNL     1      -0.032  -4.143   2.386  0.00  0.00    +0.304 C 
ATOM      9  O   UNL     1      -0.029  -4.746   1.330  0.00  0.00    -0.252 OA
ATOM     10  N   UNL     1      -0.119  -4.819   3.548  0.00  0.00    -0.295 N 
ATOM     11  H   UNL     1       0.131  -2.321   3.234  0.00  0.00    +0.156 HD
ATOM     12  H   UNL     1      -0.121  -4.337   4.390  0.00  0.00    +0.151 HD
BRANCH   7  18
ATOM     13  C   UNL     1       1.201   1.236  -0.173  0.00  0.00    +0.044 C 
ATOM     14  C   UNL     1       0.572  -0.131  -0.085  0.00  0.00    -0.046 A 
ATOM     15  C   UNL     1      -0.033  -0.686  -1.198  0.00  0.00    +0.004 A 
ATOM     16  C   UNL     1      -0.611  -1.940  -1.121  0.00  0.00    +0.002 A 
ATOM     17  C   UNL     1      -0.585  -2.642   0.068  0.00  0.00    +0.023 A 
ATOM     18  C   UNL     1       0.023  -2.088   1.187  0.00  0.00    +0.038 A 
ATOM     19  C   UNL     1       0.607  -0.831   1.105  0.00  0.00    -0.026 A 
ATOM     20  C   UNL     1       1.273  -0.228   2.315  0.00  0.00    +0.046 C 
ENDBRANCH   7  18
ENDBRANCH   1  10
BRANCH   6  21
ATOM     21  N   UNL     1       1.714  -6.430   5.043  0.00  0.00    -0.305 N 
ATOM     22  C   UNL     1       2.533  -7.163   5.824  0.00  0.00    +0.263 C 
ATOM     23  O   UNL     1       2.111  -8.158   6.382  0.00  0.00    -0.269 OA
ATOM     24  H   UNL     1       2.050  -5.636   4.598  0.00  0.00    +0.149 HD
BRANCH  22  25
ATOM     25  C   UNL     1       3.938  -6.759   6.000  0.00  0.00    +0.133 A 
ATOM     26  C   UNL     1       4.806  -7.477   6.779  0.00  0.00    +0.080 A 
ATOM     27  S   UNL     1       6.231  -6.600   6.635  0.00  0.00    -0.076 S 
ATOM     28  C   UNL     1       5.696  -5.378   5.615  0.00  0.00    +0.116 A 
ATOM     29  N   UNL     1       4.442  -5.674   5.405  0.00  0.00    -0.236 NA
BRANCH  28  30
ATOM     30  C   UNL     1       6.482  -4.216   5.065  0.00  0.00    +0.291 C 
BRANCH  30  31
ATOM     31  O   UNL     1       6.383  -3.107   5.962  0.00  0.00    -0.485 OA
BRANCH  31  32
ATOM     32  C   UNL     1       7.040  -1.970   5.611  0.00  0.00    +0.121 A 
ATOM     33  C   UNL     1       7.759  -1.920   4.426  0.00  0.00    +0.047 A 
ATOM     34  C   UNL     1       8.426  -0.764   4.072  0.00  0.00    +0.023 A 
ATOM     35  C   UNL     1       8.377   0.345   4.899  0.00  0.00    +0.041 A 
ATOM     36  C   UNL     1       7.660   0.297   6.081  0.00  0.00    +0.023 A 
ATOM     37  C   UNL     1       6.987  -0.856   6.436  0.00  0.00    +0.047 A 
ATOM     38 CL   UNL     1       9.216   1.798   4.452  0.00  0.00    -0.084 Cl
ENDBRANCH  31  32
ENDBRANCH  30  31
ENDBRANCH  28  30
ENDBRANCH  22  25
ENDBRANCH   6  21
TORSDOF 7
