REMARK  Name = ZINC39394434
REMARK  8 active torsions:
REMARK  status: ('A' for Active; 'I' for Inactive)
REMARK    1  A    between atoms: C_1  and  N_2
REMARK    2  A    between atoms: N_2  and  C_3
REMARK    3  A    between atoms: C_3  and  C_4
REMARK    4  A    between atoms: C_14  and  C_16
REMARK    5  A    between atoms: C_16  and  C_17
REMARK    6  A    between atoms: N_24  and  C_25
REMARK    7  A    between atoms: C_25  and  C_26
REMARK    8  A    between atoms: C_27  and  C_28
REMARK                            x       y       z     vdW  Elec       q    Type
REMARK                         _______ _______ _______ _____ _____    ______ ____
ROOT
ATOM      1  C   UNL     1      -0.098  -0.959  -3.556  0.00  0.00    +0.152 C 
ATOM      2  C   UNL     1       0.068  -0.303  -4.898  0.00  0.00    +0.231 C 
ATOM      3  O   UNL     1       0.901   0.570  -5.019  0.00  0.00    -0.274 OA
ATOM      4  N   UNL     1      -0.664  -0.643  -5.964  0.00  0.00    -0.313 N 
ATOM      5  C   UNL     1      -1.715  -1.655  -5.916  0.00  0.00    +0.119 C 
ATOM      6  C   UNL     1      -1.539  -2.534  -4.677  0.00  0.00    +0.104 C 
ATOM      7  N   UNL     1      -1.385  -1.664  -3.500  0.00  0.00    -0.286 NA
ATOM      8  H   UNL     1      -0.489  -0.196  -6.808  0.00  0.00    +0.149 HD
ENDROOT
BRANCH   1   9
ATOM      9  C   UNL     1      -0.055   0.108  -2.461  0.00  0.00    +0.124 C 
BRANCH   9  12
ATOM     10  C   UNL     1      -0.560   2.147  -0.558  0.00  0.00    +0.132 C 
ATOM     11  N   UNL     1      -1.445   2.014  -1.718  0.00  0.00    -0.302 N 
ATOM     12  C   UNL     1      -1.219   1.050  -2.632  0.00  0.00    +0.217 C 
ATOM     13  O   UNL     1      -1.952   0.941  -3.592  0.00  0.00    -0.276 OA
BRANCH  11  14
ATOM     14  C   UNL     1      -2.577   2.930  -1.884  0.00  0.00    +0.140 C 
BRANCH  14  15
ATOM     15  C   UNL     1      -2.129   4.153  -2.687  0.00  0.00    +0.173 C 
ATOM     16  C   UNL     1      -3.214   5.199  -2.718  0.00  0.00    -0.019 C 
ATOM     17  C   UNL     1      -2.680   6.267  -2.118  0.00  0.00    +0.065 C 
ATOM     18  C   UNL     1      -3.432   7.566  -1.928  0.00  0.00    +0.057 C 
ATOM     19  C   UNL     1      -4.635   7.576  -2.877  0.00  0.00    +0.006 C 
ATOM     20  C   UNL     1      -5.428   6.275  -2.719  0.00  0.00    +0.005 C 
ATOM     21  C   UNL     1      -4.601   5.110  -3.283  0.00  0.00    +0.035 C 
ATOM     22  N   UNL     1      -1.415   5.995  -1.730  0.00  0.00    -0.158 NA
ATOM     23  N   UNL     1      -1.023   4.851  -2.005  0.00  0.00    -0.178 NA
ENDBRANCH  14  15
ENDBRANCH  11  14
ENDBRANCH   9  12
ENDBRANCH   1   9
BRANCH   7  24
ATOM     24  C   UNL     1      -1.508  -2.437  -2.257  0.00  0.00    +0.112 C 
BRANCH  24  25
ATOM     25  C   UNL     1      -2.892  -3.026  -2.167  0.00  0.00    -0.011 C 
ATOM     26  C   UNL     1      -3.047  -4.332  -1.999  0.00  0.00    +0.005 C 
BRANCH  26  27
ATOM     27  C   UNL     1      -4.404  -4.911  -1.911  0.00  0.00    -0.025 A 
ATOM     28  C   UNL     1      -5.525  -4.086  -2.010  0.00  0.00    +0.008 A 
ATOM     29  C   UNL     1      -6.789  -4.632  -1.927  0.00  0.00    +0.001 A 
ATOM     30  C   UNL     1      -6.947  -5.994  -1.746  0.00  0.00    +0.000 A 
ATOM     31  C   UNL     1      -5.840  -6.818  -1.647  0.00  0.00    +0.001 A 
ATOM     32  C   UNL     1      -4.570  -6.285  -1.735  0.00  0.00    +0.008 A 
ENDBRANCH  26  27
ENDBRANCH  24  25
ENDBRANCH   7  24
TORSDOF 7
