REMARK  Name = ZINC31809672
REMARK  7 active torsions:
REMARK  status: ('A' for Active; 'I' for Inactive)
REMARK    1  A    between atoms: C_1  and  O_2
REMARK    2  A    between atoms: O_2  and  C_3
REMARK    3  A    between atoms: C_3  and  C_5
REMARK    4  A    between atoms: C_5  and  C_7
REMARK    5  A    between atoms: C_5  and  N_14
REMARK    6  A    between atoms: C_7  and  C_8
REMARK    7  A    between atoms: C_26  and  C_28
REMARK                            x       y       z     vdW  Elec       q    Type
REMARK                         _______ _______ _______ _____ _____    ______ ____
ROOT
ATOM      1  N   UNL     1      -0.952  -2.217  -3.771  0.00  0.00    -0.286 N 
ATOM      2  C   UNL     1       0.341  -2.517  -3.536  0.00  0.00    +0.304 C 
ATOM      3  O   UNL     1       0.820  -2.318  -2.437  0.00  0.00    -0.253 OA
ATOM      4  N   UNL     1       1.102  -3.035  -4.520  0.00  0.00    -0.273 N 
ATOM      5  C   UNL     1       2.478  -3.480  -4.254  0.00  0.00    +0.116 C 
ATOM      6  C   UNL     1       3.453  -2.607  -5.053  0.00  0.00    +0.076 C 
ATOM      7  C   UNL     1       2.933  -2.460  -6.462  0.00  0.00    +0.066 A 
ATOM      8  C   UNL     1       1.658  -2.706  -6.833  0.00  0.00    +0.064 A 
ATOM      9  N   UNL     1       1.572  -2.459  -8.168  0.00  0.00    -0.346 N 
ATOM     10  H   UNL     1       0.779  -2.546  -8.721  0.00  0.00    +0.167 HD
ATOM     11  C   UNL     1       2.802  -2.072  -8.578  0.00  0.00    +0.197 A 
ATOM     12  N   UNL     1       3.609  -2.076  -7.549  0.00  0.00    -0.240 NA
ATOM     13  C   UNL     1       0.574  -3.178  -5.889  0.00  0.00    +0.156 C 
ATOM     14  H   UNL     1      -1.316  -2.307  -4.666  0.00  0.00    +0.151 HD
ENDROOT
BRANCH  13  15
ATOM     15  C   UNL     1       0.242  -4.622  -6.164  0.00  0.00    -0.021 A 
ATOM     16  C   UNL     1       1.245  -5.573  -6.165  0.00  0.00    +0.007 A 
ATOM     17  C   UNL     1       0.941  -6.898  -6.417  0.00  0.00    +0.015 A 
ATOM     18  C   UNL     1      -0.367  -7.272  -6.666  0.00  0.00    +0.018 A 
ATOM     19  C   UNL     1      -1.370  -6.320  -6.665  0.00  0.00    +0.015 A 
ATOM     20  C   UNL     1      -1.066  -4.996  -6.408  0.00  0.00    +0.007 A 
ATOM     21 BR   UNL     1      -0.783  -9.084  -7.011  0.00  0.00    -0.050 Br
ENDBRANCH  13  15
BRANCH   1  22
ATOM     22  C   UNL     1      -1.808  -1.756  -2.676  0.00  0.00    +0.187 C 
BRANCH  22  23
ATOM     23  C   UNL     1      -2.368  -2.946  -1.940  0.00  0.00    +0.328 C 
ATOM     24  O   UNL     1      -2.081  -4.065  -2.295  0.00  0.00    -0.249 OA
BRANCH  23  26
ATOM     25  C   UNL     1      -3.678  -3.937  -0.241  0.00  0.00    +0.280 C 
ATOM     26  O   UNL     1      -3.185  -2.764  -0.891  0.00  0.00    -0.467 OA
ENDBRANCH  23  26
ENDBRANCH  22  23
BRANCH  22  27
ATOM     27  C   UNL     1      -2.958  -0.921  -3.243  0.00  0.00    +0.069 C 
BRANCH  27  28
ATOM     28  C   UNL     1      -2.406   0.332  -3.873  0.00  0.00    -0.045 A 
ATOM     29  C   UNL     1      -2.249   1.476  -3.112  0.00  0.00    +0.004 A 
ATOM     30  C   UNL     1      -1.743   2.626  -3.689  0.00  0.00    +0.000 A 
ATOM     31  C   UNL     1      -1.392   2.631  -5.026  0.00  0.00    +0.000 A 
ATOM     32  C   UNL     1      -1.547   1.487  -5.786  0.00  0.00    +0.000 A 
ATOM     33  C   UNL     1      -2.050   0.336  -5.208  0.00  0.00    +0.004 A 
ENDBRANCH  27  28
ENDBRANCH  22  27
ENDBRANCH   1  22
TORSDOF 6
