REMARK  Name = ZINC40815431
REMARK  10 active torsions:
REMARK  status: ('A' for Active; 'I' for Inactive)
REMARK    1  A    between atoms: C_1  and  C_2
REMARK    2  A    between atoms: C_6  and  C_7
REMARK    3  A    between atoms: N_9  and  C_10
REMARK    4  A    between atoms: C_10  and  C_11
REMARK    5  A    between atoms: C_11  and  C_12
REMARK    6  A    between atoms: C_12  and  N_13
REMARK    7  A    between atoms: N_22  and  N_23
REMARK    8  A    between atoms: C_24  and  C_26
REMARK    9  A    between atoms: C_26  and  C_27
REMARK   10  A    between atoms: C_26  and  C_33
REMARK                            x       y       z     vdW  Elec       q    Type
REMARK                         _______ _______ _______ _____ _____    ______ ____
ROOT
ATOM      1  C   UNL     1       0.079   2.076   0.063  0.00  0.00    +0.048 C 
ATOM      2  C   UNL     1       0.104   0.575   0.189  0.00  0.00    +0.009 A 
ATOM      3  C   UNL     1       0.097  -0.357  -0.856  0.00  0.00    +0.042 A 
ATOM      4  C   UNL     1       0.127  -1.610  -0.291  0.00  0.00    +0.115 A 
ATOM      5  O   UNL     1       0.155  -1.465   1.031  0.00  0.00    -0.454 OA
ATOM      6  C   UNL     1       0.145  -0.150   1.347  0.00  0.00    +0.193 A 
ATOM      7  C   UNL     1       0.123  -2.878  -1.108  0.00  0.00    +0.075 C 
ATOM      8  C   UNL     1      -0.423  -2.580  -2.507  0.00  0.00    +0.014 C 
ATOM      9  C   UNL     1       0.335  -1.413  -3.146  0.00  0.00    +0.058 C 
ATOM     10  C   UNL     1       0.066  -0.162  -2.322  0.00  0.00    +0.070 C 
ATOM     11  N   UNL     1      -0.173   0.992  -2.866  0.00  0.00    -0.184 NA
ENDROOT
BRANCH   6  12
ATOM     12  C   UNL     1       0.171   0.405   2.705  0.00  0.00    +0.280 C 
ATOM     13  O   UNL     1       0.157   1.610   2.870  0.00  0.00    -0.267 OA
ATOM     14  N   UNL     1       0.212  -0.421   3.770  0.00  0.00    -0.309 N 
ATOM     15  H   UNL     1       0.223  -1.382   3.639  0.00  0.00    +0.149 HD
BRANCH  14  16
ATOM     16  C   UNL     1       0.238   0.134   5.126  0.00  0.00    +0.106 C 
BRANCH  16  17
ATOM     17  C   UNL     1       0.281  -1.009   6.143  0.00  0.00    +0.040 C 
BRANCH  17  18
ATOM     18  C   UNL     1       0.309  -0.430   7.559  0.00  0.00    +0.124 C 
BRANCH  18  19
ATOM     19  N   UNL     1       0.351  -1.524   8.533  0.00  0.00    -0.338 N 
ATOM     20  C   UNL     1      -0.727  -2.151   9.096  0.00  0.00    +0.104 A 
ATOM     21  C   UNL     1      -0.240  -3.091   9.930  0.00  0.00    +0.101 A 
ATOM     22  N   UNL     1       1.099  -3.038   9.876  0.00  0.00    -0.352 N 
ATOM     23  C   UNL     1       1.460  -2.105   9.038  0.00  0.00    +0.173 A 
ATOM     24  H   UNL     1       1.704  -3.606  10.378  0.00  0.00    +0.166 HD
ENDBRANCH  18  19
ENDBRANCH  17  18
ENDBRANCH  16  17
ENDBRANCH  14  16
ENDBRANCH   6  12
BRANCH  11  25
ATOM     25  N   UNL     1      -0.190   1.118  -4.261  0.00  0.00    -0.206 N 
ATOM     26  C   UNL     1      -0.438   2.317  -4.826  0.00  0.00    +0.244 C 
ATOM     27  O   UNL     1      -0.646   3.286  -4.127  0.00  0.00    -0.273 OA
ATOM     28  H   UNL     1      -0.023   0.344  -4.821  0.00  0.00    +0.177 HD
BRANCH  26  29
ATOM     29  C   UNL     1      -0.456   2.453  -6.327  0.00  0.00    +0.136 C 
BRANCH  29  30
ATOM     30  C   UNL     1      -0.754   3.883  -6.698  0.00  0.00    -0.031 A 
ATOM     31  C   UNL     1      -1.802   4.171  -7.552  0.00  0.00    +0.005 A 
ATOM     32  C   UNL     1      -2.076   5.483  -7.892  0.00  0.00    +0.000 A 
ATOM     33  C   UNL     1      -1.302   6.506  -7.378  0.00  0.00    +0.000 A 
ATOM     34  C   UNL     1      -0.254   6.218  -6.524  0.00  0.00    +0.000 A 
ATOM     35  C   UNL     1       0.017   4.906  -6.180  0.00  0.00    +0.005 A 
ENDBRANCH  29  30
BRANCH  29  36
ATOM     36  C   UNL     1       0.888   2.059  -6.883  0.00  0.00    -0.031 A 
ATOM     37  C   UNL     1       2.041   2.620  -6.367  0.00  0.00    +0.005 A 
ATOM     38  C   UNL     1       3.274   2.260  -6.877  0.00  0.00    +0.000 A 
ATOM     39  C   UNL     1       3.354   1.337  -7.904  0.00  0.00    +0.000 A 
ATOM     40  C   UNL     1       2.201   0.775  -8.420  0.00  0.00    +0.000 A 
ATOM     41  C   UNL     1       0.968   1.133  -7.907  0.00  0.00    +0.005 A 
ENDBRANCH  29  36
ENDBRANCH  26  29
ENDBRANCH  11  25
TORSDOF 9
