REMARK  Name = ZINC01048234
REMARK  10 active torsions:
REMARK  status: ('A' for Active; 'I' for Inactive)
REMARK    1  A    between atoms: C_1  and  O_2
REMARK    2  A    between atoms: O_2  and  C_3
REMARK    3  A    between atoms: C_7  and  C_10
REMARK    4  A    between atoms: C_8  and  O_9
REMARK    5  A    between atoms: N_11  and  N_12
REMARK    6  A    between atoms: C_13  and  C_15
REMARK    7  A    between atoms: N_20  and  C_23
REMARK    8  A    between atoms: C_23  and  N_25
REMARK    9  A    between atoms: N_25  and  N_26
REMARK   10  A    between atoms: N_26  and  C_27
REMARK                            x       y       z     vdW  Elec       q    Type
REMARK                         _______ _______ _______ _____ _____    ______ ____
ROOT
ATOM      1  C   UNL     1      -1.070   1.760  -1.224  0.00  0.00    +0.078 C 
ATOM      2  C   UNL     1      -0.216   1.246  -0.069  0.00  0.00    +0.014 C 
ATOM      3  C   UNL     1      -0.848   1.649   1.240  0.00  0.00    +0.020 C 
ATOM      4  C   UNL     1      -1.794   0.539   1.735  0.00  0.00    +0.107 C 
ATOM      5  N   UNL     1      -2.578  -0.055   0.635  0.00  0.00    -0.312 N 
ATOM      6  C   UNL     1      -3.178   0.738  -0.414  0.00  0.00    +0.107 C 
ATOM      7  C   UNL     1      -2.185   0.875  -1.594  0.00  0.00    +0.032 C 
ENDROOT
BRANCH   1   9
ATOM      8  N   UNL     1      -0.708   2.395  -3.587  0.00  0.00    -0.207 N 
ATOM      9  C   UNL     1      -0.185   1.945  -2.429  0.00  0.00    +0.235 C 
ATOM     10  O   UNL     1       0.999   1.688  -2.357  0.00  0.00    -0.274 OA
ATOM     11  H   UNL     1      -1.654   2.600  -3.644  0.00  0.00    +0.177 HD
BRANCH   8  13
ATOM     12  C   UNL     1      -0.388   3.000  -5.823  0.00  0.00    +0.142 C 
ATOM     13  N   UNL     1       0.116   2.566  -4.708  0.00  0.00    -0.188 NA
BRANCH  12  18
ATOM     14  C   UNL     1       2.652   3.059  -8.040  0.00  0.00    +0.162 A 
ATOM     15  C   UNL     1       2.104   3.523  -9.226  0.00  0.00    +0.049 A 
ATOM     16  C   UNL     1       0.753   3.814  -9.304  0.00  0.00    +0.004 A 
ATOM     17  C   UNL     1      -0.062   3.641  -8.205  0.00  0.00    +0.013 A 
ATOM     18  C   UNL     1       0.478   3.180  -7.002  0.00  0.00    +0.040 A 
ATOM     19  C   UNL     1       1.845   2.885  -6.922  0.00  0.00    +0.167 A 
BRANCH  14  21
ATOM     20  C   UNL     1       4.750   2.976  -9.157  0.00  0.00    +0.277 C 
ATOM     21  O   UNL     1       3.980   2.774  -7.970  0.00  0.00    -0.491 OA
ENDBRANCH  14  21
BRANCH  19  22
ATOM     22  O   UNL     1       2.378   2.430  -5.758  0.00  0.00    -0.503 OA
ATOM     23  H   UNL     1       2.368   1.468  -5.670  0.00  0.00    +0.292 HD
ENDBRANCH  19  22
ENDBRANCH  12  18
ENDBRANCH   8  13
ENDBRANCH   1   9
BRANCH   5  24
ATOM     24  C   UNL     1      -2.742  -1.393   0.608  0.00  0.00    +0.147 C 
ATOM     25  S   UNL     1      -2.038  -2.366   1.828  0.00  0.00    -0.017 S 
BRANCH  24  26
ATOM     26  N   UNL     1      -3.460  -1.964  -0.379  0.00  0.00    -0.262 N 
ATOM     27  H   UNL     1      -3.662  -2.912  -0.346  0.00  0.00    +0.168 HD
BRANCH  26  28
ATOM     28  N   UNL     1      -3.903  -1.207  -1.427  0.00  0.00    -0.238 NA
ATOM     29  H   UNL     1      -3.129  -0.825  -1.950  0.00  0.00    +0.145 HD
BRANCH  28  30
ATOM     30  C   UNL     1      -4.793  -1.985  -2.299  0.00  0.00    +0.080 C 
ATOM     31  C   UNL     1      -6.272  -1.780  -1.887  0.00  0.00    +0.028 C 
ATOM     32  C   UNL     1      -6.923  -1.142  -3.155  0.00  0.00    +0.014 C 
ATOM     33  C   UNL     1      -5.740  -0.236  -3.657  0.00  0.00    +0.016 C 
ATOM     34  C   UNL     1      -4.736  -1.447  -3.764  0.00  0.00    +0.030 C 
ATOM     35  C   UNL     1      -5.604  -2.431  -4.557  0.00  0.00    -0.026 C 
ATOM     36  C   UNL     1      -6.863  -2.256  -4.207  0.00  0.00    -0.027 C 
ENDBRANCH  28  30
ENDBRANCH  26  28
ENDBRANCH  24  26
ENDBRANCH   5  24
TORSDOF 9
