REMARK  Name = ZINC40361387
REMARK  7 active torsions:
REMARK  status: ('A' for Active; 'I' for Inactive)
REMARK    1  A    between atoms: C_1  and  C_2
REMARK    2  A    between atoms: C_2  and  C_3
REMARK    3  A    between atoms: C_3  and  C_4
REMARK    4  A    between atoms: C_4  and  C_6
REMARK    5  A    between atoms: C_4  and  N_9
REMARK    6  A    between atoms: C_6  and  N_8
REMARK    7  A    between atoms: N_12  and  C_13
REMARK                            x       y       z     vdW  Elec       q    Type
REMARK                         _______ _______ _______ _____ _____    ______ ____
ROOT
ATOM      1  N   UNL     1      -0.834  -2.537  -1.256  0.00  0.00    -0.291 N 
ATOM      2  C   UNL     1      -0.252  -3.751  -1.315  0.00  0.00    +0.301 C 
ATOM      3  O   UNL     1      -0.206  -4.453  -0.324  0.00  0.00    -0.253 OA
ATOM      4  N   UNL     1       0.280  -4.187  -2.474  0.00  0.00    -0.294 N 
ATOM      5  H   UNL     1      -0.871  -1.977  -2.047  0.00  0.00    +0.151 HD
ATOM      6  H   UNL     1       0.244  -3.627  -3.266  0.00  0.00    +0.151 HD
ENDROOT
BRANCH   4   7
ATOM      7  C   UNL     1       0.914  -5.506  -2.539  0.00  0.00    +0.037 C 
ATOM      8  C   UNL     1       2.082  -5.560  -1.553  0.00  0.00    +0.029 C 
ATOM      9  C   UNL     1       2.743  -6.938  -1.621  0.00  0.00    -0.008 C 
ATOM     10  C   UNL     1       3.261  -7.186  -3.039  0.00  0.00    +0.007 C 
ATOM     11  C   UNL     1       2.093  -7.132  -4.026  0.00  0.00    -0.008 C 
ATOM     12  C   UNL     1       1.432  -5.754  -3.958  0.00  0.00    +0.029 C 
ATOM     13  C   UNL     1       1.068  -8.208  -3.662  0.00  0.00    +0.007 C 
ATOM     14  C   UNL     1       0.550  -7.960  -2.244  0.00  0.00    -0.008 C 
ATOM     15  C   UNL     1       1.718  -8.014  -1.257  0.00  0.00    +0.007 C 
ATOM     16  C   UNL     1      -0.111  -6.582  -2.176  0.00  0.00    +0.029 C 
ENDBRANCH   4   7
BRANCH   1  17
ATOM     17  C   UNL     1      -1.413  -2.063   0.004  0.00  0.00    +0.126 C 
BRANCH  17  18
ATOM     18  C   UNL     1      -2.820  -2.586   0.139  0.00  0.00    +0.067 C 
ATOM     19  S   UNL     1      -3.486  -3.406  -1.061  0.00  0.00    -0.039 S 
BRANCH  18  20
ATOM     20  N   UNL     1      -3.517  -2.361   1.270  0.00  0.00    -0.354 N 
ATOM     21  H   UNL     1      -3.113  -1.863   1.998  0.00  0.00    +0.143 HD
ATOM     22  H   UNL     1      -4.423  -2.697   1.357  0.00  0.00    +0.143 HD
ENDBRANCH  18  20
ENDBRANCH  17  18
BRANCH  17  23
ATOM     23  C   UNL     1      -1.433  -0.534   0.013  0.00  0.00    +0.029 C 
BRANCH  23  25
ATOM     24  C   UNL     1      -0.019   1.526   0.010  0.00  0.00    +0.004 C 
ATOM     25  C   UNL     1       0.002  -0.004   0.002  0.00  0.00    -0.001 C 
ENDBRANCH  23  25
ENDBRANCH  17  23
ENDBRANCH   1  17
TORSDOF 6
