REMARK  Name = ZINC09259480
REMARK  13 active torsions:
REMARK  status: ('A' for Active; 'I' for Inactive)
REMARK    1  A    between atoms: C_1  and  C_2
REMARK    2  A    between atoms: C_2  and  O_3
REMARK    3  A    between atoms: O_3  and  C_4
REMARK    4  A    between atoms: C_4  and  C_6
REMARK    5  A    between atoms: C_6  and  N_7
REMARK    6  A    between atoms: C_11  and  C_12
REMARK    7  A    between atoms: C_14  and  O_25
REMARK    8  A    between atoms: C_15  and  O_19
REMARK    9  A    between atoms: O_19  and  C_20
REMARK   10  A    between atoms: C_20  and  C_21
REMARK   11  A    between atoms: C_21  and  O_23
REMARK   12  A    between atoms: O_23  and  C_24
REMARK   13  A    between atoms: O_25  and  C_26
REMARK                            x       y       z     vdW  Elec       q    Type
REMARK                         _______ _______ _______ _____ _____    ______ ____
ROOT
ATOM      1  C   UNL     1      -1.572  -6.495  -4.211  0.00  0.00    -0.019 A 
ATOM      2  C   UNL     1      -2.460  -7.479  -4.665  0.00  0.00    +0.057 A 
ATOM      3  C   UNL     1      -3.567  -7.116  -5.406  0.00  0.00    +0.163 A 
ATOM      4  C   UNL     1      -3.793  -5.774  -5.712  0.00  0.00    +0.177 A 
ATOM      5  C   UNL     1      -2.910  -4.798  -5.268  0.00  0.00    +0.064 A 
ATOM      6  C   UNL     1      -1.806  -5.150  -4.522  0.00  0.00    +0.027 A 
ATOM      7 BR   UNL     1      -3.224  -2.981  -5.687  0.00  0.00    -0.046 Br
ENDROOT
BRANCH   1  12
ATOM      8  N   UNL     1      -1.493  -9.478  -1.052  0.00  0.00    -0.218 N 
ATOM      9  C   UNL     1      -1.693  -8.554  -1.977  0.00  0.00    +0.261 C 
ATOM     10  O   UNL     1      -2.808  -8.293  -2.389  0.00  0.00    -0.269 OA
ATOM     11  C   UNL     1      -0.496  -7.853  -2.482  0.00  0.00    +0.080 C 
ATOM     12  C   UNL     1      -0.397  -6.874  -3.417  0.00  0.00    +0.028 C 
ATOM     13  S   UNL     1       0.787  -8.650  -1.526  0.00  0.00    -0.026 S 
ATOM     14  C   UNL     1      -0.257  -9.759  -0.593  0.00  0.00    +0.286 C 
ATOM     15  O   UNL     1       0.069 -10.573   0.250  0.00  0.00    -0.262 OA
BRANCH   8  16
ATOM     16  C   UNL     1      -2.641 -10.209  -0.510  0.00  0.00    +0.238 C 
BRANCH  16  17
ATOM     17  C   UNL     1      -2.888 -11.443  -1.339  0.00  0.00    +0.325 C 
ATOM     18  O   UNL     1      -2.178 -11.687  -2.286  0.00  0.00    -0.249 OA
BRANCH  17  19
ATOM     19  O   UNL     1      -3.897 -12.271  -1.026  0.00  0.00    -0.464 OA
BRANCH  19  21
ATOM     20  C   UNL     1      -5.266 -14.257  -1.360  0.00  0.00    +0.048 C 
ATOM     21  C   UNL     1      -4.076 -13.440  -1.868  0.00  0.00    +0.229 C 
ENDBRANCH  19  21
ENDBRANCH  17  19
ENDBRANCH  16  17
ENDBRANCH   8  16
ENDBRANCH   1  12
BRANCH   3  22
ATOM     22  O   UNL     1      -4.435  -8.068  -5.843  0.00  0.00    -0.491 OA
ATOM     23  C   UNL     1      -4.142  -9.422  -5.492  0.00  0.00    +0.277 C 
ENDBRANCH   3  22
BRANCH   4  24
ATOM     24  O   UNL     1      -4.880  -5.421  -6.447  0.00  0.00    -0.476 OA
BRANCH  24  25
ATOM     25  C   UNL     1      -4.718  -5.381  -7.866  0.00  0.00    +0.349 C 
BRANCH  25  26
ATOM     26  C   UNL     1      -6.019  -4.972  -8.508  0.00  0.00    +0.345 C 
ATOM     27  O   UNL     1      -6.985  -4.739  -7.821  0.00  0.00    -0.247 OA
BRANCH  26  28
ATOM     28  O   UNL     1      -6.105  -4.867  -9.844  0.00  0.00    -0.466 OA
ATOM     29  C   UNL     1      -7.388  -4.469 -10.393  0.00  0.00    +0.280 C 
ENDBRANCH  26  28
ENDBRANCH  25  26
ENDBRANCH  24  25
ENDBRANCH   4  24
TORSDOF 10
