REMARK  Name = ZINC21880772
REMARK  5 active torsions:
REMARK  status: ('A' for Active; 'I' for Inactive)
REMARK    1  A    between atoms: C_1  and  C_2
REMARK    2  A    between atoms: C_7  and  N_8
REMARK    3  A    between atoms: N_8  and  C_9
REMARK    4  A    between atoms: C_9  and  C_10
REMARK    5  A    between atoms: N_23  and  C_26
REMARK                            x       y       z     vdW  Elec       q    Type
REMARK                         _______ _______ _______ _____ _____    ______ ____
ROOT
ATOM      1  C   UNL     1      -6.004  -2.310  -0.281  0.00  0.00    +0.043 A 
ATOM      2  C   UNL     1      -6.770  -3.419  -0.328  0.00  0.00    +0.025 A 
ATOM      3  C   UNL     1      -5.907  -4.532  -0.295  0.00  0.00    +0.020 A 
ATOM      4  C   UNL     1      -4.644  -4.063  -0.234  0.00  0.00    +0.093 A 
ATOM      5  N   UNL     1      -4.695  -2.698  -0.229  0.00  0.00    -0.297 N 
ATOM      6  C   UNL     1      -3.594  -1.842  -0.174  0.00  0.00    +0.202 A 
ATOM      7  N   UNL     1      -3.545  -0.520  -0.163  0.00  0.00    -0.121 NA
ATOM      8  N   UNL     1      -2.452   0.108  -0.105  0.00  0.00    -0.124 NA
ATOM      9  C   UNL     1      -1.286  -0.519  -0.060  0.00  0.00    +0.186 A 
ATOM     10  S   UNL     1      -1.846  -2.219  -0.097  0.00  0.00    -0.013 S 
ATOM     11  N   UNL     1       0.002  -0.004   0.002  0.00  0.00    -0.305 N 
ATOM     12  C   UNL     1      -0.018   1.465   0.010  0.00  0.00    +0.126 C 
ATOM     13  C   UNL     1       1.419   1.992  -0.001  0.00  0.00    +0.124 C 
ATOM     14  N   UNL     1       2.138   1.472   1.171  0.00  0.00    -0.327 N 
ATOM     15  C   UNL     1       2.158   0.003   1.162  0.00  0.00    +0.124 C 
ATOM     16  C   UNL     1       0.721  -0.525   1.173  0.00  0.00    +0.126 C 
ENDROOT
BRANCH  14  17
ATOM     17  C   UNL     1       3.433   1.990   1.233  0.00  0.00    +0.030 A 
ATOM     18  C   UNL     1       4.524   1.131   1.284  0.00  0.00    +0.023 A 
ATOM     19  C   UNL     1       5.804   1.647   1.342  0.00  0.00    +0.002 A 
ATOM     20  C   UNL     1       6.000   3.016   1.359  0.00  0.00    +0.000 A 
ATOM     21  C   UNL     1       4.916   3.873   1.314  0.00  0.00    +0.002 A 
ATOM     22  C   UNL     1       3.634   3.364   1.251  0.00  0.00    +0.023 A 
ENDBRANCH  14  17
BRANCH   1  23
ATOM     23  C   UNL     1      -6.505  -0.889  -0.288  0.00  0.00    +0.155 C 
BRANCH  23  24
ATOM     24  N   UNL     1      -6.612  -0.402   1.090  0.00  0.00    -0.338 N 
ATOM     25  H   UNL     1      -6.342  -1.061   1.929  0.00  0.00    +0.146 HD
BRANCH  24  32
ATOM     26  C   UNL     1      -6.791   0.461   3.795  0.00  0.00    +0.045 C 
ATOM     27  C   UNL     1      -7.161   1.361   2.644  0.00  0.00    -0.030 A 
ATOM     28  C   UNL     1      -7.603   2.647   2.887  0.00  0.00    +0.005 A 
ATOM     29  C   UNL     1      -7.942   3.473   1.832  0.00  0.00    +0.000 A 
ATOM     30  C   UNL     1      -7.841   3.016   0.530  0.00  0.00    +0.002 A 
ATOM     31  C   UNL     1      -7.396   1.732   0.281  0.00  0.00    +0.023 A 
ATOM     32  C   UNL     1      -7.059   0.898   1.339  0.00  0.00    +0.030 A 
ENDBRANCH  24  32
ENDBRANCH  23  24
ENDBRANCH   1  23
TORSDOF 4
