REMARK  Name = ZINC65349327
REMARK  9 active torsions:
REMARK  status: ('A' for Active; 'I' for Inactive)
REMARK    1  A    between atoms: C_1  and  C_2
REMARK    2  A    between atoms: C_2  and  C_3
REMARK    3  A    between atoms: C_2  and  C_4
REMARK    4  A    between atoms: C_2  and  N_5
REMARK    5  A    between atoms: N_5  and  S_6
REMARK    6  A    between atoms: S_6  and  C_9
REMARK    7  A    between atoms: C_12  and  C_15
REMARK    8  A    between atoms: C_18  and  N_24
REMARK    9  A    between atoms: C_20  and  C_21
REMARK                            x       y       z     vdW  Elec       q    Type
REMARK                         _______ _______ _______ _____ _____    ______ ____
ROOT
ATOM      1  C   UNL     1       3.032  -0.218   0.036  0.00  0.00    +0.105 A 
ATOM      2  C   UNL     1       2.834   0.444   1.234  0.00  0.00    +0.029 A 
ATOM      3  C   UNL     1       3.590   0.114   2.341  0.00  0.00    +0.010 A 
ATOM      4  C   UNL     1       4.554  -0.890   2.249  0.00  0.00    -0.016 A 
ATOM      5  C   UNL     1       4.749  -1.554   1.038  0.00  0.00    +0.010 A 
ATOM      6  C   UNL     1       3.983  -1.218  -0.060  0.00  0.00    +0.029 A 
ENDROOT
BRANCH   4   7
ATOM      7  C   UNL     1       5.369  -1.248   3.433  0.00  0.00    +0.012 A 
ATOM      8  C   UNL     1       4.757  -1.623   4.627  0.00  0.00    +0.093 A 
ATOM      9  N   UNL     1       5.475  -1.943   5.683  0.00  0.00    -0.349 N 
ATOM     10  C   UNL     1       6.799  -1.926   5.665  0.00  0.00    +0.094 A 
ATOM     11  C   UNL     1       7.496  -1.565   4.516  0.00  0.00    +0.057 A 
ATOM     12  C   UNL     1       6.779  -1.222   3.369  0.00  0.00    +0.075 A 
ATOM     13  H   UNL     1       5.020  -2.199   6.500  0.00  0.00    +0.167 HD
BRANCH  12  14
ATOM     14  C   UNL     1       7.475  -0.837   2.125  0.00  0.00    +0.387 C 
ATOM     15  O   UNL     1       8.692  -0.932   2.051  0.00  0.00    -0.241 OA
ATOM     16  O   UNL     1       6.835  -0.425   1.168  0.00  0.00    -0.241 OA
ENDBRANCH  12  14
BRANCH  10  17
ATOM     17  N   UNL     1       7.503  -2.273   6.811  0.00  0.00    -0.345 N 
ATOM     18  H   UNL     1       7.025  -2.526   7.617  0.00  0.00    +0.144 HD
ATOM     19  H   UNL     1       8.473  -2.263   6.807  0.00  0.00    +0.144 HD
ENDBRANCH  10  17
ENDBRANCH   4   7
BRANCH   1  20
ATOM     20  S   UNL     1       2.063   0.208  -1.373  0.00  0.00    +0.059 S 
ATOM     21  O   UNL     1       2.687  -0.401  -2.494  0.00  0.00    -0.153 OA
ATOM     22  O   UNL     1       1.832   1.609  -1.297  0.00  0.00    -0.153 OA
BRANCH  20  23
ATOM     23  N   UNL     1       0.590  -0.525  -1.194  0.00  0.00    -0.185 NA
ATOM     24  H   UNL     1      -0.204   0.011  -1.044  0.00  0.00    +0.149 HD
BRANCH  23  26
ATOM     25  C   UNL     1       1.517  -2.615  -0.325  0.00  0.00    +0.029 C 
ATOM     26  C   UNL     1       0.485  -1.985  -1.262  0.00  0.00    +0.032 C 
ATOM     27  C   UNL     1       0.749  -2.448  -2.697  0.00  0.00    +0.029 C 
ATOM     28  C   UNL     1      -0.920  -2.416  -0.838  0.00  0.00    +0.029 C 
ENDBRANCH  23  26
ENDBRANCH  20  23
ENDBRANCH   1  20
TORSDOF 6
