REMARK  Name = ZINC20367599
REMARK  13 active torsions:
REMARK  status: ('A' for Active; 'I' for Inactive)
REMARK    1  A    between atoms: C_1  and  C_2
REMARK    2  A    between atoms: C_5  and  N_8
REMARK    3  A    between atoms: N_11  and  C_16
REMARK    4  A    between atoms: C_13  and  C_15
REMARK    5  A    between atoms: C_16  and  C_17
REMARK    6  A    between atoms: N_19  and  C_20
REMARK    7  A    between atoms: C_21  and  C_29
REMARK    8  A    between atoms: C_22  and  C_28
REMARK    9  A    between atoms: C_23  and  C_25
REMARK   10  A    between atoms: C_29  and  O_31
REMARK   11  A    between atoms: O_31  and  C_32
REMARK   12  A    between atoms: C_32  and  C_33
REMARK   13  A    between atoms: C_32  and  C_34
REMARK                            x       y       z     vdW  Elec       q    Type
REMARK                         _______ _______ _______ _____ _____    ______ ____
ROOT
ATOM      1  C   UNL     1      -0.115  10.092   0.436  0.00  0.00    +0.201 C 
ATOM      2  O   UNL     1       0.351   9.310   1.238  0.00  0.00    -0.278 OA
ATOM      3  N   UNL     1      -0.125  11.412   0.709  0.00  0.00    -0.281 N 
ATOM      4  H   UNL     1      -0.547  12.120  -0.018  0.00  0.00    +0.155 HD
ENDROOT
BRANCH   3   5
ATOM      5  C   UNL     1       0.396  11.874   1.902  0.00  0.00    +0.087 A 
ATOM      6  C   UNL     1       0.482  13.192   2.363  0.00  0.00    +0.091 A 
ATOM      7  C   UNL     1       1.049  13.403   3.611  0.00  0.00    -0.015 A 
ATOM      8  C   UNL     1       1.495  12.309   4.300  0.00  0.00    +0.079 A 
ATOM      9  S   UNL     1       1.110  10.965   3.193  0.00  0.00    -0.068 S 
ATOM     10  C   UNL     1       1.176  14.791   4.185  0.00  0.00    +0.046 C 
BRANCH   8  11
ATOM     11  C   UNL     1       2.131  12.254   5.618  0.00  0.00    +0.248 C 
ATOM     12  O   UNL     1       2.322  13.280   6.244  0.00  0.00    -0.270 OA
ATOM     13  N   UNL     1       2.506  11.068   6.137  0.00  0.00    -0.325 N 
ATOM     14  H   UNL     1       2.983  11.027   7.127  0.00  0.00    +0.145 HD
ATOM     15  H   UNL     1       2.334  10.141   5.571  0.00  0.00    +0.145 HD
ENDBRANCH   8  11
BRANCH   6  16
ATOM     16  C   UNL     1      -0.014  14.312   1.556  0.00  0.00    +0.342 C 
ATOM     17  O   UNL     1      -1.167  14.681   1.672  0.00  0.00    -0.245 OA
BRANCH  16  18
ATOM     18  O   UNL     1       0.808  14.932   0.685  0.00  0.00    -0.458 OA
BRANCH  18  19
ATOM     19  C   UNL     1       0.249  16.032  -0.080  0.00  0.00    +0.171 C 
ATOM     20  C   UNL     1       1.352  17.042  -0.402  0.00  0.00    +0.052 C 
ATOM     21  C   UNL     1      -0.347  15.496  -1.384  0.00  0.00    +0.052 C 
ENDBRANCH  18  19
ENDBRANCH  16  18
ENDBRANCH   6  16
ENDBRANCH   3   5
BRANCH   1  22
ATOM     22  C   UNL     1      -0.683   9.587  -0.865  0.00  0.00    +0.019 C 
BRANCH  22  26
ATOM     23  N   UNL     1      -1.857   5.540  -1.162  0.00  0.00    -0.331 N 
ATOM     24  C   UNL     1      -1.542   6.070   0.172  0.00  0.00    +0.087 C 
ATOM     25  C   UNL     1      -1.625   7.598   0.144  0.00  0.00    -0.059 C 
ATOM     26  N   UNL     1      -0.688   8.118  -0.861  0.00  0.00    +0.388 N 
ATOM     27  C   UNL     1      -1.002   7.589  -2.195  0.00  0.00    -0.056 C 
ATOM     28  C   UNL     1      -0.919   6.061  -2.167  0.00  0.00    +0.054 C 
ATOM     29  C   UNL     1      -1.286   5.504  -3.544  0.00  0.00    +0.026 C 
ATOM     30  H   UNL     1       0.323   7.779  -0.590  0.00  0.00    -0.081 HD
BRANCH  23  35
ATOM     31  C   UNL     1      -1.875  -0.131  -1.143  0.00  0.00    +0.044 C 
ATOM     32  C   UNL     1      -1.870   1.376  -1.148  0.00  0.00    -0.050 A 
ATOM     33  C   UNL     1      -3.039   2.069  -1.406  0.00  0.00    +0.005 A 
ATOM     34  C   UNL     1      -3.039   3.450  -1.406  0.00  0.00    +0.023 A 
ATOM     35  C   UNL     1      -1.861   4.143  -1.158  0.00  0.00    +0.030 A 
ATOM     36  C   UNL     1      -0.688   3.444  -0.904  0.00  0.00    +0.023 A 
ATOM     37  C   UNL     1      -0.696   2.063  -0.901  0.00  0.00    +0.005 A 
ENDBRANCH  23  35
ENDBRANCH  22  26
ENDBRANCH   1  22
TORSDOF 8
