REMARK  Name = ZINC58950010
REMARK  7 active torsions:
REMARK  status: ('A' for Active; 'I' for Inactive)
REMARK    1  A    between atoms: C_1  and  C_2
REMARK    2  A    between atoms: C_2  and  C_26
REMARK    3  A    between atoms: C_6  and  C_15
REMARK    4  A    between atoms: C_8  and  C_12
REMARK    5  A    between atoms: C_9  and  N_11
REMARK    6  A    between atoms: C_20  and  O_21
REMARK    7  A    between atoms: O_21  and  C_22
REMARK                            x       y       z     vdW  Elec       q    Type
REMARK                         _______ _______ _______ _____ _____    ______ ____
ROOT
ATOM      1  C   UNL     1      -0.038   1.531   0.005  0.00  0.00    +0.012 C 
ATOM      2  C   UNL     1      -0.012   0.001  -0.014  0.00  0.00    -0.021 C 
ATOM      3  C   UNL     1      -1.442  -0.538   0.057  0.00  0.00    +0.081 C 
ATOM      4  C   UNL     1      -1.415  -2.048   0.081  0.00  0.00    +0.115 C 
ATOM      5  C   UNL     1      -0.387  -2.708   0.645  0.00  0.00    +0.045 C 
ATOM      6  C   UNL     1      -0.366  -4.217   0.674  0.00  0.00    +0.099 C 
ATOM      7  C   UNL     1      -1.327  -4.770  -0.341  0.00  0.00    +0.083 C 
ATOM      8  C   UNL     1      -2.309  -3.989  -0.857  0.00  0.00    +0.193 C 
ATOM      9  O   UNL     1      -2.449  -2.709  -0.475  0.00  0.00    -0.446 OA
ATOM     10  C   UNL     1       0.698  -2.019   1.219  0.00  0.00    +0.164 C 
ATOM     11  O   UNL     1       1.599  -2.649   1.735  0.00  0.00    -0.292 OA
ATOM     12  C   UNL     1       0.762  -0.515   1.204  0.00  0.00    +0.086 C 
ATOM     13  C   UNL     1       0.663  -0.486  -1.297  0.00  0.00    +0.012 C 
ENDROOT
BRANCH   6  14
ATOM     14  C   UNL     1      -0.765  -4.696   2.046  0.00  0.00    +0.007 A 
ATOM     15  C   UNL     1      -2.007  -4.372   2.557  0.00  0.00    +0.008 A 
ATOM     16  C   UNL     1      -2.374  -4.810   3.816  0.00  0.00    +0.001 A 
ATOM     17  C   UNL     1      -1.498  -5.573   4.567  0.00  0.00    +0.004 A 
ATOM     18  C   UNL     1      -0.256  -5.900   4.060  0.00  0.00    +0.046 A 
ATOM     19  C   UNL     1       0.112  -5.466   2.795  0.00  0.00    +0.124 A 
BRANCH  19  20
ATOM     20  O   UNL     1       1.332  -5.790   2.292  0.00  0.00    -0.495 OA
ATOM     21  C   UNL     1       2.184  -6.586   3.119  0.00  0.00    +0.277 C 
ENDBRANCH  19  20
ENDBRANCH   6  14
BRANCH   7  22
ATOM     22  C   UNL     1      -1.207  -6.108  -0.760  0.00  0.00    +0.243 C 
ATOM     23  O   UNL     1      -0.357  -6.417  -1.577  0.00  0.00    -0.271 OA
ATOM     24  N   UNL     1      -2.032  -7.048  -0.258  0.00  0.00    -0.325 N 
ATOM     25  H   UNL     1      -2.708  -6.802   0.393  0.00  0.00    +0.145 HD
ATOM     26  H   UNL     1      -1.949  -7.970  -0.546  0.00  0.00    +0.145 HD
ENDBRANCH   7  22
BRANCH   8  27
ATOM     27  N   UNL     1      -3.171  -4.513  -1.784  0.00  0.00    -0.329 N 
ATOM     28  H   UNL     1      -3.126  -5.455  -2.010  0.00  0.00    +0.145 HD
ATOM     29  H   UNL     1      -3.828  -3.942  -2.213  0.00  0.00    +0.145 HD
ENDBRANCH   8  27
TORSDOF 4
