REMARK  Name = ZINC13637308
REMARK  6 active torsions:
REMARK  status: ('A' for Active; 'I' for Inactive)
REMARK    1  A    between atoms: C_4  and  C_7
REMARK    2  A    between atoms: C_7  and  N_8
REMARK    3  A    between atoms: N_8  and  S_9
REMARK    4  A    between atoms: S_9  and  C_12
REMARK    5  A    between atoms: C_25  and  C_28
REMARK    6  A    between atoms: C_31  and  O_34
REMARK                            x       y       z     vdW  Elec       q    Type
REMARK                         _______ _______ _______ _____ _____    ______ ____
ROOT
ATOM      1  C   UNL     1      -7.614   1.269  -0.236  0.00  0.00    +0.106 A 
ATOM      2  C   UNL     1      -7.130   1.990  -1.313  0.00  0.00    +0.030 A 
ATOM      3  C   UNL     1      -5.771   2.103  -1.517  0.00  0.00    +0.025 A 
ATOM      4  C   UNL     1      -4.877   1.492  -0.646  0.00  0.00    +0.031 A 
ATOM      5  C   UNL     1      -5.373   0.751   0.432  0.00  0.00    -0.018 A 
ATOM      6  C   UNL     1      -6.733   0.652   0.633  0.00  0.00    +0.034 A 
ATOM      7  C   UNL     1      -4.390   0.079   1.309  0.00  0.00    +0.049 C 
ATOM      8  C   UNL     1      -4.690  -0.239   2.728  0.00  0.00    -0.023 C 
ATOM      9  C   UNL     1      -3.559  -0.188   3.422  0.00  0.00    -0.030 C 
ATOM     10  C   UNL     1      -2.401   0.210   2.505  0.00  0.00    +0.033 C 
ATOM     11  C   UNL     1      -3.131   0.992   1.405  0.00  0.00    +0.029 C 
ATOM     12  C   UNL     1      -2.513   0.977   0.019  0.00  0.00    +0.105 C 
ATOM     13  N   UNL     1      -3.501   1.633  -0.865  0.00  0.00    -0.336 N 
ATOM     14  H   UNL     1      -3.191   2.171  -1.611  0.00  0.00    +0.147 HD
ENDROOT
BRANCH  12  15
ATOM     15  C   UNL     1      -1.220   1.750   0.017  0.00  0.00    -0.027 A 
ATOM     16  C   UNL     1      -0.013   1.076   0.008  0.00  0.00    +0.009 A 
ATOM     17  C   UNL     1       1.175   1.782   0.000  0.00  0.00    +0.046 A 
ATOM     18  C   UNL     1       1.155   3.169   0.008  0.00  0.00    +0.117 A 
ATOM     19  C   UNL     1      -0.057   3.844   0.023  0.00  0.00    +0.046 A 
ATOM     20  C   UNL     1      -1.242   3.133   0.031  0.00  0.00    +0.009 A 
BRANCH  18  21
ATOM     21  O   UNL     1       2.322   3.866   0.000  0.00  0.00    -0.507 OA
ATOM     22  H   UNL     1       2.651   4.073  -0.885  0.00  0.00    +0.292 HD
ENDBRANCH  18  21
ENDBRANCH  12  15
BRANCH   1  23
ATOM     23  S   UNL     1      -9.351   1.135   0.027  0.00  0.00    +0.059 S 
ATOM     24  O   UNL     1      -9.533   0.864   1.410  0.00  0.00    -0.153 OA
ATOM     25  O   UNL     1      -9.946   2.255  -0.614  0.00  0.00    -0.153 OA
BRANCH  23  26
ATOM     26  N   UNL     1      -9.868  -0.209  -0.791  0.00  0.00    -0.186 NA
ATOM     27  H   UNL     1     -10.478  -0.116  -1.540  0.00  0.00    +0.148 HD
BRANCH  26  28
ATOM     28  C   UNL     1      -9.404  -1.537  -0.384  0.00  0.00    +0.141 C 
BRANCH  28  32
ATOM     29  C   UNL     1     -11.877  -4.521  -2.181  0.00  0.00    +0.000 A 
ATOM     30  C   UNL     1     -10.746  -4.073  -2.838  0.00  0.00    +0.000 A 
ATOM     31  C   UNL     1      -9.946  -3.108  -2.256  0.00  0.00    +0.005 A 
ATOM     32  C   UNL     1     -10.277  -2.590  -1.018  0.00  0.00    -0.032 A 
ATOM     33  C   UNL     1     -11.404  -3.042  -0.359  0.00  0.00    +0.005 A 
ATOM     34  C   UNL     1     -12.207  -4.004  -0.942  0.00  0.00    +0.000 A 
ENDBRANCH  28  32
ENDBRANCH  26  28
ENDBRANCH  23  26
ENDBRANCH   1  23
TORSDOF 6
