REMARK  Name = ZINC35074272
REMARK  12 active torsions:
REMARK  status: ('A' for Active; 'I' for Inactive)
REMARK    1  A    between atoms: C_1  and  C_2
REMARK    2  A    between atoms: C_9  and  C_11
REMARK    3  A    between atoms: C_14  and  O_17
REMARK    4  A    between atoms: O_17  and  C_18
REMARK    5  A    between atoms: C_23  and  S_25
REMARK    6  A    between atoms: S_25  and  C_26
REMARK    7  A    between atoms: C_26  and  C_27
REMARK    8  A    between atoms: N_29  and  C_30
REMARK    9  A    between atoms: C_30  and  C_32
REMARK   10  A    between atoms: C_30  and  C_33
REMARK   11  A    between atoms: C_33  and  C_34
REMARK   12  A    between atoms: C_33  and  C_35
REMARK                            x       y       z     vdW  Elec       q    Type
REMARK                         _______ _______ _______ _____ _____    ______ ____
ROOT
ATOM      1  C   UNL     1      -0.660   1.035   0.584  0.00  0.00    +0.029 C 
ATOM      2  C   UNL     1      -0.073  -0.294   0.103  0.00  0.00    +0.091 C 
ATOM      3  C   UNL     1      -1.186  -1.159  -0.501  0.00  0.00    +0.128 C 
ATOM      4  N   UNL     1      -2.068  -1.614   0.584  0.00  0.00    -0.312 N 
ATOM      5  C   UNL     1      -1.478  -2.333   1.722  0.00  0.00    +0.125 C 
ATOM      6  C   UNL     1      -0.365  -1.468   2.325  0.00  0.00    +0.127 C 
ATOM      7  N   UNL     1       0.520  -1.011   1.241  0.00  0.00    -0.292 N 
ATOM      8  C   UNL     1       1.846  -1.249   1.286  0.00  0.00    +0.247 C 
ATOM      9  O   UNL     1       2.572  -0.814   0.412  0.00  0.00    -0.270 OA
ATOM     10  C   UNL     1      -3.430  -1.369   0.533  0.00  0.00    +0.127 A 
ATOM     11  C   UNL     1      -4.020  -0.886  -0.636  0.00  0.00    +0.083 A 
ATOM     12  C   UNL     1      -5.384  -0.656  -0.640  0.00  0.00    +0.135 A 
ATOM     13  N   UNL     1      -6.086  -0.900   0.458  0.00  0.00    -0.210 NA
ATOM     14  C   UNL     1      -5.499  -1.359   1.554  0.00  0.00    +0.192 A 
ATOM     15  N   UNL     1      -4.196  -1.596   1.596  0.00  0.00    -0.207 NA
ATOM     16 CL   UNL     1      -6.168  -0.055  -2.068  0.00  0.00    -0.062 Cl
ENDROOT
BRANCH   8  17
ATOM     17  C   UNL     1       2.417  -2.037   2.395  0.00  0.00    +0.037 A 
ATOM     18  C   UNL     1       3.277  -3.105   2.126  0.00  0.00    +0.016 A 
ATOM     19  C   UNL     1       3.808  -3.838   3.164  0.00  0.00    +0.046 A 
ATOM     20  C   UNL     1       3.490  -3.516   4.478  0.00  0.00    +0.120 A 
ATOM     21  C   UNL     1       2.635  -2.454   4.750  0.00  0.00    +0.046 A 
ATOM     22  C   UNL     1       2.105  -1.713   3.718  0.00  0.00    +0.016 A 
BRANCH  20  23
ATOM     23  O   UNL     1       4.015  -4.241   5.498  0.00  0.00    -0.495 OA
ATOM     24  C   UNL     1       3.646  -3.856   6.824  0.00  0.00    +0.277 C 
ENDBRANCH  20  23
ENDBRANCH   8  17
BRANCH  14  25
ATOM     25  S   UNL     1      -6.476  -1.667   2.987  0.00  0.00    -0.077 S 
BRANCH  25  26
ATOM     26  C   UNL     1      -8.157  -1.218   2.477  0.00  0.00    +0.173 C 
BRANCH  26  27
ATOM     27  C   UNL     1      -9.107  -1.437   3.627  0.00  0.00    +0.224 C 
ATOM     28  O   UNL     1      -8.689  -1.855   4.686  0.00  0.00    -0.275 OA
ATOM     29  N   UNL     1     -10.419  -1.169   3.478  0.00  0.00    -0.312 N 
ATOM     30  H   UNL     1     -10.752  -0.834   2.631  0.00  0.00    +0.149 HD
BRANCH  29  31
ATOM     31  C   UNL     1     -11.341  -1.382   4.596  0.00  0.00    +0.072 C 
ATOM     32  C   UNL     1     -11.341  -0.147   5.500  0.00  0.00    +0.028 C 
BRANCH  31  33
ATOM     33  C   UNL     1     -12.753  -1.618   4.055  0.00  0.00    +0.003 C 
ATOM     34  C   UNL     1     -12.753  -2.852   3.151  0.00  0.00    +0.009 C 
ATOM     35  C   UNL     1     -13.716  -1.840   5.222  0.00  0.00    +0.009 C 
ENDBRANCH  31  33
ENDBRANCH  29  31
ENDBRANCH  26  27
ENDBRANCH  25  26
ENDBRANCH  14  25
TORSDOF 7
