REMARK  Name = ZINC60469173
REMARK  15 active torsions:
REMARK  status: ('A' for Active; 'I' for Inactive)
REMARK    1  A    between atoms: C_1  and  C_2
REMARK    2  A    between atoms: C_2  and  O_3
REMARK    3  A    between atoms: O_3  and  C_4
REMARK    4  A    between atoms: C_7  and  O_10
REMARK    5  A    between atoms: O_10  and  C_11
REMARK    6  A    between atoms: C_11  and  C_12
REMARK    7  A    between atoms: C_12  and  C_13
REMARK    8  A    between atoms: C_12  and  O_28
REMARK    9  A    between atoms: C_13  and  N_14
REMARK   10  A    between atoms: C_17  and  N_20
REMARK   11  A    between atoms: C_21  and  O_23
REMARK   12  A    between atoms: O_23  and  C_24
REMARK   13  A    between atoms: C_24  and  C_25
REMARK   14  A    between atoms: C_24  and  C_26
REMARK   15  A    between atoms: C_24  and  C_27
REMARK                            x       y       z     vdW  Elec       q    Type
REMARK                         _______ _______ _______ _____ _____    ______ ____
ROOT
ATOM      1  N   UNL     1      -4.830  -9.967  -0.111  0.00  0.00    +0.382 N 
ATOM      2  C   UNL     1      -4.449 -10.458   1.219  0.00  0.00    -0.077 C 
ATOM      3  C   UNL     1      -4.470 -11.988   1.227  0.00  0.00    +0.004 C 
ATOM      4  C   UNL     1      -5.880 -12.477   0.886  0.00  0.00    +0.073 C 
ATOM      5  C   UNL     1      -6.296 -11.898  -0.470  0.00  0.00    +0.004 C 
ATOM      6  C   UNL     1      -6.208 -10.371  -0.415  0.00  0.00    -0.077 C 
ATOM      7  H   UNL     1      -4.207 -10.356  -0.802  0.00  0.00    -0.082 HD
ENDROOT
BRANCH   4   8
ATOM      8  N   UNL     1      -5.889 -13.940   0.817  0.00  0.00    -0.278 N 
ATOM      9  C   UNL     1      -7.034 -14.618   1.034  0.00  0.00    +0.401 C 
ATOM     10  O   UNL     1      -8.058 -14.015   1.286  0.00  0.00    -0.226 OA
ATOM     11  H   UNL     1      -5.071 -14.421   0.616  0.00  0.00    +0.152 HD
BRANCH   9  12
ATOM     12  O   UNL     1      -7.042 -15.963   0.971  0.00  0.00    -0.445 OA
BRANCH  12  13
ATOM     13  C   UNL     1      -8.290 -16.616   1.211  0.00  0.00    +0.107 C 
ATOM     14  C   UNL     1      -9.316 -16.150   0.177  0.00  0.00    +0.055 C 
ATOM     15  C   UNL     1      -8.102 -18.131   1.097  0.00  0.00    +0.055 C 
ATOM     16  C   UNL     1      -8.786 -16.268   2.615  0.00  0.00    +0.055 C 
ENDBRANCH  12  13
ENDBRANCH   9  12
ENDBRANCH   4   8
BRANCH   1  17
ATOM     17  C   UNL     1      -4.734  -8.502  -0.136  0.00  0.00    -0.044 C 
BRANCH  17  18
ATOM     18  C   UNL     1      -4.975  -7.999  -1.561  0.00  0.00    +0.135 C 
BRANCH  18  19
ATOM     19  O   UNL     1      -3.983  -8.547  -2.433  0.00  0.00    -0.390 OA
ATOM     20  H   UNL     1      -3.076  -8.309  -2.196  0.00  0.00    +0.210 HD
ENDBRANCH  18  19
BRANCH  18  21
ATOM     21  C   UNL     1      -4.888  -6.472  -1.585  0.00  0.00    +0.258 C 
BRANCH  21  22
ATOM     22  O   UNL     1      -5.226  -5.996  -2.889  0.00  0.00    -0.489 OA
BRANCH  22  26
ATOM     23  C   UNL     1      -5.143  -1.910  -3.473  0.00  0.00    +0.121 A 
ATOM     24  C   UNL     1      -5.488  -2.753  -4.519  0.00  0.00    +0.049 A 
ATOM     25  C   UNL     1      -5.516  -4.120  -4.324  0.00  0.00    +0.049 A 
ATOM     26  C   UNL     1      -5.198  -4.650  -3.082  0.00  0.00    +0.121 A 
ATOM     27  C   UNL     1      -4.852  -3.807  -2.036  0.00  0.00    +0.049 A 
ATOM     28  C   UNL     1      -4.820  -2.440  -2.233  0.00  0.00    +0.049 A 
BRANCH  23  29
ATOM     29  O   UNL     1      -5.115  -0.564  -3.665  0.00  0.00    -0.492 OA
BRANCH  29  31
ATOM     30  C   UNL     1      -5.372   1.439  -4.992  0.00  0.00    +0.048 C 
ATOM     31  C   UNL     1      -5.459  -0.088  -4.968  0.00  0.00    +0.225 C 
ENDBRANCH  29  31
ENDBRANCH  23  29
ENDBRANCH  22  26
ENDBRANCH  21  22
ENDBRANCH  18  21
ENDBRANCH  17  18
ENDBRANCH   1  17
TORSDOF 11
