REMARK  Name = ZINC14977506
REMARK  8 active torsions:
REMARK  status: ('A' for Active; 'I' for Inactive)
REMARK    1  A    between atoms: C_4  and  C_7
REMARK    2  A    between atoms: C_7  and  C_8
REMARK    3  A    between atoms: C_7  and  C_28
REMARK    4  A    between atoms: C_8  and  N_9
REMARK    5  A    between atoms: C_15  and  C_17
REMARK    6  A    between atoms: C_17  and  C_18
REMARK    7  A    between atoms: N_20  and  C_21
REMARK    8  A    between atoms: C_21  and  C_22
REMARK                            x       y       z     vdW  Elec       q    Type
REMARK                         _______ _______ _______ _____ _____    ______ ____
ROOT
ATOM      1  N   UNL     1       4.429  -2.366   1.502  0.00  0.00    +0.389 N 
ATOM      2  C   UNL     1       4.370  -3.361   0.420  0.00  0.00    -0.059 C 
ATOM      3  C   UNL     1       5.784  -3.874   0.144  0.00  0.00    +0.085 C 
ATOM      4  N   UNL     1       6.413  -4.296   1.394  0.00  0.00    -0.318 N 
ATOM      5  C   UNL     1       5.955  -3.919   2.593  0.00  0.00    +0.200 C 
ATOM      6  O   UNL     1       6.547  -4.292   3.584  0.00  0.00    -0.278 OA
ATOM      7  C   UNL     1       4.740  -3.053   2.763  0.00  0.00    +0.028 C 
ATOM      8  H   UNL     1       7.192  -4.872   1.352  0.00  0.00    +0.149 HD
ATOM      9  H   UNL     1       5.149  -1.688   1.301  0.00  0.00    -0.081 HD
ENDROOT
BRANCH   1  10
ATOM     10  C   UNL     1       3.131  -1.688   1.619  0.00  0.00    -0.065 C 
BRANCH  10  11
ATOM     11  C   UNL     1       2.985  -0.669   0.486  0.00  0.00    +0.032 C 
BRANCH  11  15
ATOM     12  C   UNL     1      -0.453   1.766   1.195  0.00  0.00    +0.000 A 
ATOM     13  C   UNL     1       0.771   2.355   0.938  0.00  0.00    +0.000 A 
ATOM     14  C   UNL     1       1.884   1.567   0.709  0.00  0.00    +0.004 A 
ATOM     15  C   UNL     1       1.772   0.190   0.737  0.00  0.00    -0.042 A 
ATOM     16  C   UNL     1       0.549  -0.400   0.995  0.00  0.00    +0.004 A 
ATOM     17  C   UNL     1      -0.564   0.388   1.222  0.00  0.00    +0.000 A 
ENDBRANCH  11  15
BRANCH  11  18
ATOM     18  C   UNL     1       2.824  -1.395  -0.824  0.00  0.00    -0.042 A 
ATOM     19  C   UNL     1       1.853  -2.370  -0.960  0.00  0.00    +0.004 A 
ATOM     20  C   UNL     1       1.706  -3.036  -2.162  0.00  0.00    +0.000 A 
ATOM     21  C   UNL     1       2.528  -2.727  -3.229  0.00  0.00    +0.000 A 
ATOM     22  C   UNL     1       3.498  -1.752  -3.094  0.00  0.00    +0.000 A 
ATOM     23  C   UNL     1       3.643  -1.083  -1.893  0.00  0.00    +0.004 A 
ENDBRANCH  11  18
ENDBRANCH  10  11
ENDBRANCH   1  10
BRANCH   7  24
ATOM     24  C   UNL     1       5.005  -2.014   3.854  0.00  0.00    +0.089 C 
BRANCH  24  25
ATOM     25  C   UNL     1       6.250  -1.236   3.516  0.00  0.00    +0.212 C 
ATOM     26  O   UNL     1       6.854  -1.474   2.491  0.00  0.00    -0.276 OA
ATOM     27  N   UNL     1       6.693  -0.276   4.351  0.00  0.00    -0.315 N 
ATOM     28  H   UNL     1       6.210  -0.086   5.171  0.00  0.00    +0.149 HD
BRANCH  27  29
ATOM     29  C   UNL     1       7.904   0.480   4.022  0.00  0.00    +0.107 C 
BRANCH  29  30
ATOM     30  C   UNL     1       8.184   1.500   5.127  0.00  0.00    +0.010 C 
ATOM     31  C   UNL     1       7.063   2.544   5.158  0.00  0.00    +0.033 C 
ATOM     32  C   UNL     1       7.391   3.603   6.213  0.00  0.00    +0.160 C 
ATOM     33  O   UNL     1       8.655   4.198   5.911  0.00  0.00    -0.380 OA
ATOM     34  C   UNL     1       9.749   3.278   5.915  0.00  0.00    +0.160 C 
ATOM     35  C   UNL     1       9.515   2.205   4.849  0.00  0.00    +0.033 C 
ENDBRANCH  29  30
ENDBRANCH  27  29
ENDBRANCH  24  25
ENDBRANCH   7  24
TORSDOF 8
