REMARK  Name = ZINC40683138
REMARK  5 active torsions:
REMARK  status: ('A' for Active; 'I' for Inactive)
REMARK    1  A    between atoms: C_4  and  N_7
REMARK    2  A    between atoms: N_7  and  N_8
REMARK    3  A    between atoms: C_10  and  N_26
REMARK    4  A    between atoms: C_11  and  O_15
REMARK    5  A    between atoms: O_15  and  C_16
REMARK                            x       y       z     vdW  Elec       q    Type
REMARK                         _______ _______ _______ _____ _____    ______ ____
ROOT
ATOM      1  N   UNL     1       3.662  -2.044   0.142  0.00  0.00    -0.249 N 
ATOM      2  C   UNL     1       4.871  -2.727   0.118  0.00  0.00    +0.163 A 
ATOM      3  C   UNL     1       4.898  -4.120   0.015  0.00  0.00    +0.129 A 
ATOM      4  C   UNL     1       6.138  -4.755  -0.005  0.00  0.00    +0.246 A 
ATOM      5  N   UNL     1       7.242  -4.017   0.074  0.00  0.00    -0.199 NA
ATOM      6  C   UNL     1       7.174  -2.705   0.170  0.00  0.00    +0.227 A 
ATOM      7  N   UNL     1       6.022  -2.064   0.187  0.00  0.00    -0.217 NA
ATOM      8  H   UNL     1       2.826  -2.534   0.091  0.00  0.00    +0.172 HD
ENDROOT
BRANCH   3   9
ATOM      9  N   UNL     1       3.708  -4.860  -0.065  0.00  0.00    -0.351 N 
ATOM     10  H   UNL     1       2.851  -4.404  -0.050  0.00  0.00    +0.143 HD
ATOM     11  H   UNL     1       3.741  -5.827  -0.137  0.00  0.00    +0.143 HD
ENDBRANCH   3   9
BRANCH   1  12
ATOM     12  N   UNL     1       3.648  -0.646   0.239  0.00  0.00    -0.265 N 
ATOM     13  H   UNL     1       4.483  -0.155   0.290  0.00  0.00    +0.170 HD
BRANCH  12  17
ATOM     14  C   UNL     1       0.023   1.401   0.309  0.00  0.00    +0.000 A 
ATOM     15  C   UNL     1       1.212   2.102   0.382  0.00  0.00    +0.002 A 
ATOM     16  C   UNL     1       2.417   1.426   0.359  0.00  0.00    +0.024 A 
ATOM     17  C   UNL     1       2.432   0.041   0.263  0.00  0.00    +0.044 A 
ATOM     18  C   UNL     1       1.235  -0.661   0.190  0.00  0.00    +0.024 A 
ATOM     19  C   UNL     1       0.034   0.021   0.213  0.00  0.00    +0.002 A 
ENDBRANCH  12  17
ENDBRANCH   1  12
BRANCH   4  20
ATOM     20  O   UNL     1       6.218  -6.106  -0.103  0.00  0.00    -0.436 OA
BRANCH  20  21
ATOM     21  C   UNL     1       7.451  -6.664  -0.223  0.00  0.00    +0.138 A 
ATOM     22  C   UNL     1       7.968  -6.945  -1.467  0.00  0.00    +0.047 A 
ATOM     23  C   UNL     1       9.229  -7.518  -1.602  0.00  0.00    +0.004 A 
ATOM     24  C   UNL     1       9.986  -7.815  -0.510  0.00  0.00    +0.009 A 
ATOM     25  C   UNL     1       9.495  -7.543   0.778  0.00  0.00    -0.014 A 
ATOM     26  C   UNL     1       8.214  -6.955   0.926  0.00  0.00    +0.024 A 
ATOM     27  C   UNL     1       7.726  -6.680   2.214  0.00  0.00    +0.012 A 
ATOM     28  C   UNL     1       8.491  -6.975   3.301  0.00  0.00    +0.001 A 
ATOM     29  C   UNL     1       9.753  -7.548   3.156  0.00  0.00    +0.001 A 
ATOM     30  C   UNL     1      10.253  -7.839   1.925  0.00  0.00    +0.008 A 
ENDBRANCH  20  21
ENDBRANCH   4  20
TORSDOF 5
