REMARK  Name = ZINC33330651
REMARK  7 active torsions:
REMARK  status: ('A' for Active; 'I' for Inactive)
REMARK    1  A    between atoms: C_1  and  C_2
REMARK    2  A    between atoms: C_2  and  C_4
REMARK    3  A    between atoms: C_2  and  N_10
REMARK    4  A    between atoms: C_11  and  C_13
REMARK    5  A    between atoms: C_13  and  S_14
REMARK    6  A    between atoms: S_14  and  C_15
REMARK    7  A    between atoms: C_20  and  C_28
REMARK                            x       y       z     vdW  Elec       q    Type
REMARK                         _______ _______ _______ _____ _____    ______ ____
ROOT
ATOM      1  C   UNL     1      -3.366  -0.658  -0.969  0.00  0.00    +0.198 A 
ATOM      2  N   UNL     1      -2.808  -1.809  -1.274  0.00  0.00    -0.122 NA
ATOM      3  N   UNL     1      -1.553  -1.786  -0.986  0.00  0.00    -0.128 NA
ATOM      4  C   UNL     1      -1.235  -0.621  -0.482  0.00  0.00    +0.173 A 
ATOM      5  N   UNL     1      -2.388   0.141  -0.455  0.00  0.00    -0.251 N 
ATOM      6  C   UNL     1      -2.351   1.428   0.032  0.00  0.00    +0.185 A 
ATOM      7  N   UNL     1      -1.252   1.978   0.487  0.00  0.00    -0.226 NA
ATOM      8  C   UNL     1      -0.067   1.322   0.500  0.00  0.00    +0.077 A 
ATOM      9  C   UNL     1       0.000  -0.007   0.021  0.00  0.00    +0.045 A 
ATOM     10  C   UNL     1       1.211  -0.693   0.035  0.00  0.00    +0.014 A 
ATOM     11  C   UNL     1       2.342  -0.069   0.519  0.00  0.00    +0.001 A 
ATOM     12  C   UNL     1       2.282   1.234   0.990  0.00  0.00    +0.002 A 
ATOM     13  C   UNL     1       1.093   1.931   0.985  0.00  0.00    +0.028 A 
ENDROOT
BRANCH   6  14
ATOM     14  C   UNL     1      -3.591   2.212   0.048  0.00  0.00    +0.170 A 
ATOM     15  C   UNL     1      -3.690   3.561  -0.135  0.00  0.00    +0.053 A 
ATOM     16  C   UNL     1      -5.054   3.883  -0.042  0.00  0.00    +0.042 A 
ATOM     17  C   UNL     1      -5.718   2.732   0.199  0.00  0.00    +0.196 A 
ATOM     18  O   UNL     1      -4.833   1.727   0.253  0.00  0.00    -0.460 OA
ENDBRANCH   6  14
BRANCH   1  19
ATOM     19  S   UNL     1      -5.061  -0.229  -1.186  0.00  0.00    -0.076 S 
BRANCH  19  20
ATOM     20  C   UNL     1      -5.687  -1.770  -1.899  0.00  0.00    +0.173 C 
BRANCH  20  22
ATOM     21  N   UNL     1      -7.846  -2.663  -2.711  0.00  0.00    -0.308 N 
ATOM     22  C   UNL     1      -7.162  -1.633  -2.176  0.00  0.00    +0.224 C 
ATOM     23  O   UNL     1      -7.734  -0.595  -1.916  0.00  0.00    -0.275 OA
ATOM     24  H   UNL     1      -7.327  -3.604  -2.947  0.00  0.00    +0.149 HD
BRANCH  21  26
ATOM     25  C   UNL     1     -10.069  -2.857  -1.711  0.00  0.00    +0.033 C 
ATOM     26  C   UNL     1      -9.280  -2.530  -2.980  0.00  0.00    +0.100 C 
BRANCH  26  27
ATOM     27  C   UNL     1      -9.676  -3.483  -4.078  0.00  0.00    -0.027 A 
ATOM     28  C   UNL     1      -9.136  -4.755  -4.117  0.00  0.00    +0.005 A 
ATOM     29  C   UNL     1      -9.502  -5.631  -5.122  0.00  0.00    +0.000 A 
ATOM     30  C   UNL     1     -10.403  -5.232  -6.092  0.00  0.00    +0.000 A 
ATOM     31  C   UNL     1     -10.939  -3.959  -6.056  0.00  0.00    +0.000 A 
ATOM     32  C   UNL     1     -10.576  -3.084  -5.049  0.00  0.00    +0.005 A 
ENDBRANCH  26  27
ENDBRANCH  21  26
ENDBRANCH  20  22
ENDBRANCH  19  20
ENDBRANCH   1  19
TORSDOF 6
