REMARK  Name = ZINC03327493
REMARK  7 active torsions:
REMARK  status: ('A' for Active; 'I' for Inactive)
REMARK    1  A    between atoms: C_1  and  C_2
REMARK    2  A    between atoms: N_7  and  C_8
REMARK    3  A    between atoms: C_14  and  C_16
REMARK    4  A    between atoms: C_16  and  C_17
REMARK    5  A    between atoms: C_17  and  N_18
REMARK    6  A    between atoms: C_19  and  C_21
REMARK    7  A    between atoms: C_24  and  N_27
REMARK                            x       y       z     vdW  Elec       q    Type
REMARK                         _______ _______ _______ _____ _____    ______ ____
ROOT
ATOM      1  C   UNL     1      -0.061   1.401  -0.183  0.00  0.00    +0.066 C 
ATOM      2  C   UNL     1      -0.044  -0.105  -0.124  0.00  0.00    +0.047 A 
ATOM      3  C   UNL     1      -0.070  -0.859  -1.251  0.00  0.00    +0.071 A 
ATOM      4  S   UNL     1      -0.033  -2.502  -0.554  0.00  0.00    -0.060 S 
ATOM      5  C   UNL     1       0.012  -2.064   1.071  0.00  0.00    +0.172 A 
ATOM      6  N   UNL     1       0.002  -0.749   1.027  0.00  0.00    -0.229 NA
ATOM      7  N   UNL     1       0.053  -2.892   2.188  0.00  0.00    -0.219 N 
ATOM      8  C   UNL     1       0.189  -2.357   3.418  0.00  0.00    +0.227 C 
ATOM      9  O   UNL     1       0.324  -3.081   4.382  0.00  0.00    -0.275 OA
ENDROOT
BRANCH   7  10
ATOM     10  C   UNL     1      -0.046  -4.281   2.035  0.00  0.00    +0.043 A 
ATOM     11  C   UNL     1      -1.158  -4.957   2.520  0.00  0.00    +0.024 A 
ATOM     12  C   UNL     1      -1.252  -6.326   2.367  0.00  0.00    +0.002 A 
ATOM     13  C   UNL     1      -0.241  -7.024   1.732  0.00  0.00    +0.000 A 
ATOM     14  C   UNL     1       0.867  -6.354   1.249  0.00  0.00    +0.002 A 
ATOM     15  C   UNL     1       0.965  -4.984   1.393  0.00  0.00    +0.024 A 
ENDBRANCH   7  10
BRANCH   8  16
ATOM     16  C   UNL     1       0.172  -0.861   3.595  0.00  0.00    +0.115 C 
BRANCH  16  17
ATOM     17  C   UNL     1       0.343  -0.521   5.077  0.00  0.00    +0.114 C 
BRANCH  17  18
ATOM     18  N   UNL     1       0.326   0.934   5.250  0.00  0.00    -0.311 N 
ATOM     19  C   UNL     1       0.462   1.468   6.479  0.00  0.00    +0.244 C 
ATOM     20  O   UNL     1       0.597   0.744   7.446  0.00  0.00    -0.270 OA
ATOM     21  H   UNL     1       0.218   1.512   4.478  0.00  0.00    +0.149 HD
BRANCH  19  22
ATOM     22  C   UNL     1       0.445   2.937   6.653  0.00  0.00    +0.037 A 
ATOM     23  C   UNL     1       0.283   3.772   5.546  0.00  0.00    +0.015 A 
ATOM     24  C   UNL     1       0.269   5.141   5.716  0.00  0.00    +0.033 A 
ATOM     25  C   UNL     1       0.413   5.686   6.979  0.00  0.00    +0.126 A 
ATOM     26  C   UNL     1       0.574   4.864   8.080  0.00  0.00    +0.033 A 
ATOM     27  C   UNL     1       0.585   3.493   7.925  0.00  0.00    +0.015 A 
BRANCH  25  28
ATOM     28  N   UNL     1       0.397   7.156   7.153  0.00  0.00    +0.056 N 
ATOM     29  O   UNL     1       0.257   7.877   6.192  0.00  0.00    -0.126 OA
ATOM     30  O   UNL     1       0.523   7.636   8.255  0.00  0.00    -0.126 OA
ENDBRANCH  25  28
ENDBRANCH  19  22
ENDBRANCH  17  18
ENDBRANCH  16  17
ENDBRANCH   8  16
TORSDOF 6
