REMARK  Name = ZINC57418826
REMARK  4 active torsions:
REMARK  status: ('A' for Active; 'I' for Inactive)
REMARK    1  A    between atoms: C_1  and  C_2
REMARK    2  A    between atoms: N_5  and  C_8
REMARK    3  A    between atoms: C_8  and  C_9
REMARK    4  A    between atoms: C_25  and  C_28
REMARK                            x       y       z     vdW  Elec       q    Type
REMARK                         _______ _______ _______ _____ _____    ______ ____
ROOT
ATOM      1  C   UNL     1      -0.174  -4.553   2.701  0.00  0.00    +0.116 A 
ATOM      2  N   UNL     1       1.124  -4.791   2.763  0.00  0.00    -0.219 NA
ATOM      3  C   UNL     1       1.747  -5.004   3.912  0.00  0.00    +0.133 A 
ATOM      4  C   UNL     1       0.996  -4.976   5.119  0.00  0.00    +0.051 A 
ATOM      5  C   UNL     1       1.470  -5.182   6.497  0.00  0.00    -0.025 A 
ATOM      6  C   UNL     1       0.552  -5.104   7.473  0.00  0.00    -0.004 A 
ATOM      7  S   UNL     1      -0.980  -4.753   6.640  0.00  0.00    -0.073 S 
ATOM      8  C   UNL     1      -0.379  -4.715   4.974  0.00  0.00    +0.114 A 
ATOM      9  N   UNL     1      -0.920  -4.509   3.788  0.00  0.00    -0.227 NA
ATOM     10  C   UNL     1       1.148  -5.336   8.835  0.00  0.00    +0.043 C 
ATOM     11  C   UNL     1       2.513  -6.003   8.553  0.00  0.00    +0.010 C 
ATOM     12  C   UNL     1       2.829  -5.479   7.138  0.00  0.00    +0.037 C 
ATOM     13  N   UNL     1       3.108  -5.252   3.937  0.00  0.00    -0.311 N 
ATOM     14  C   UNL     1       3.631  -6.614   3.756  0.00  0.00    +0.121 C 
ATOM     15  C   UNL     1       4.706  -6.582   2.664  0.00  0.00    +0.100 C 
ATOM     16  N   UNL     1       5.714  -5.570   3.004  0.00  0.00    -0.303 NA
ATOM     17  C   UNL     1       5.127  -4.224   3.038  0.00  0.00    +0.158 C 
ATOM     18  C   UNL     1       4.070  -4.158   4.139  0.00  0.00    +0.134 C 
ATOM     19  H   UNL     1       6.167  -5.790   3.879  0.00  0.00    +0.123 HD
ENDROOT
BRANCH  17  20
ATOM     20  C   UNL     1       6.208  -3.211   3.315  0.00  0.00    +0.229 C 
ATOM     21  O   UNL     1       7.254  -3.562   3.819  0.00  0.00    -0.274 OA
ATOM     22  N   UNL     1       6.013  -1.914   3.002  0.00  0.00    -0.328 N 
ATOM     23  H   UNL     1       5.177  -1.633   2.599  0.00  0.00    +0.145 HD
ATOM     24  H   UNL     1       6.709  -1.262   3.180  0.00  0.00    +0.145 HD
ENDBRANCH  17  20
BRANCH   1  25
ATOM     25  C   UNL     1      -0.816  -4.319   1.358  0.00  0.00    -0.001 C 
BRANCH  25  30
ATOM     26  C   UNL     1      -0.118   0.887  -0.862  0.00  0.00    +0.007 C 
ATOM     27  C   UNL     1      -0.099  -0.627  -0.645  0.00  0.00    -0.018 C 
ATOM     28  C   UNL     1      -1.534  -1.143  -0.508  0.00  0.00    -0.016 C 
ATOM     29  C   UNL     1      -1.505  -2.644  -0.212  0.00  0.00    -0.078 C 
ATOM     30  N   UNL     1      -0.775  -2.886   1.038  0.00  0.00    +0.384 N 
ATOM     31  C   UNL     1       0.622  -2.459   0.889  0.00  0.00    -0.078 C 
ATOM     32  C   UNL     1       0.674  -0.951   0.636  0.00  0.00    -0.016 C 
ATOM     33  H   UNL     1      -1.207  -2.364   1.785  0.00  0.00    -0.081 HD
ENDBRANCH  25  30
ENDBRANCH   1  25
TORSDOF 3
