REMARK  Name = ZINC39836520
REMARK  12 active torsions:
REMARK  status: ('A' for Active; 'I' for Inactive)
REMARK    1  A    between atoms: C_1  and  C_2
REMARK    2  A    between atoms: C_6  and  O_9
REMARK    3  A    between atoms: C_7  and  C_8
REMARK    4  A    between atoms: O_9  and  C_10
REMARK    5  A    between atoms: C_10  and  C_11
REMARK    6  A    between atoms: N_13  and  C_14
REMARK    7  A    between atoms: C_15  and  C_28
REMARK    8  A    between atoms: C_20  and  C_24
REMARK    9  A    between atoms: C_24  and  C_25
REMARK   10  A    between atoms: C_24  and  C_26
REMARK   11  A    between atoms: C_24  and  C_27
REMARK   12  A    between atoms: N_30  and  C_31
REMARK                            x       y       z     vdW  Elec       q    Type
REMARK                         _______ _______ _______ _____ _____    ______ ____
ROOT
ATOM      1  C   UNL     1       0.114  -6.663   5.107  0.00  0.00    +0.084 A 
ATOM      2  C   UNL     1       0.139  -8.002   5.468  0.00  0.00    +0.069 A 
ATOM      3  C   UNL     1       0.148  -8.307   6.887  0.00  0.00    -0.023 A 
ATOM      4  C   UNL     1       0.131  -7.218   7.687  0.00  0.00    -0.004 A 
ATOM      5  S   UNL     1       0.111  -5.844   6.573  0.00  0.00    -0.077 S 
ATOM      6  C   UNL     1       0.137  -7.202   9.184  0.00  0.00    +0.046 C 
ATOM      7  C   UNL     1       0.545  -8.597   9.680  0.00  0.00    -0.000 C 
ATOM      8  C   UNL     1      -0.275  -9.650   8.929  0.00  0.00    +0.009 C 
ATOM      9  C   UNL     1       0.174  -9.713   7.467  0.00  0.00    +0.037 C 
ENDROOT
BRANCH   1  12
ATOM     10  C   UNL     1       0.083  -4.787   3.662  0.00  0.00    +0.255 C 
ATOM     11  O   UNL     1       0.077  -4.055   4.629  0.00  0.00    -0.272 OA
ATOM     12  N   UNL     1       0.101  -6.125   3.830  0.00  0.00    -0.277 N 
ATOM     13  H   UNL     1       0.105  -6.710   3.056  0.00  0.00    +0.155 HD
BRANCH  10  14
ATOM     14  C   UNL     1       0.069  -4.202   2.274  0.00  0.00    +0.324 C 
BRANCH  14  15
ATOM     15  O   UNL     1       0.050  -2.776   2.358  0.00  0.00    -0.482 OA
BRANCH  15  21
ATOM     16  C   UNL     1      -0.018   1.503   0.010  0.00  0.00    +0.044 C 
ATOM     17  C   UNL     1       0.002  -0.004   0.002  0.00  0.00    -0.044 A 
ATOM     18  C   UNL     1       0.006  -0.688  -1.200  0.00  0.00    +0.004 A 
ATOM     19  C   UNL     1       0.024  -2.071  -1.211  0.00  0.00    +0.004 A 
ATOM     20  C   UNL     1       0.039  -2.772  -0.020  0.00  0.00    +0.046 A 
ATOM     21  C   UNL     1       0.035  -2.088   1.186  0.00  0.00    +0.124 A 
ATOM     22  C   UNL     1       0.023  -0.700   1.195  0.00  0.00    -0.006 A 
ATOM     23  C   UNL     1       0.026   0.046   2.504  0.00  0.00    +0.048 C 
ENDBRANCH  15  21
ENDBRANCH  14  15
ENDBRANCH  10  14
ENDBRANCH   1  12
BRANCH   7  24
ATOM     24  C   UNL     1       0.272  -8.707  11.182  0.00  0.00    -0.035 C 
ATOM     25  C   UNL     1      -1.219  -8.489  11.446  0.00  0.00    +0.011 C 
ATOM     26  C   UNL     1       0.680 -10.097  11.674  0.00  0.00    +0.011 C 
ATOM     27  C   UNL     1       1.083  -7.644  11.927  0.00  0.00    +0.011 C 
ENDBRANCH   7  24
BRANCH   2  28
ATOM     28  C   UNL     1       0.155  -9.064   4.457  0.00  0.00    +0.247 C 
ATOM     29  O   UNL     1       1.216  -9.487   4.035  0.00  0.00    -0.270 OA
ATOM     30  N   UNL     1      -1.004  -9.573   3.997  0.00  0.00    -0.307 N 
ATOM     31  H   UNL     1      -1.850  -9.236   4.333  0.00  0.00    +0.149 HD
BRANCH  30  32
ATOM     32  C   UNL     1      -0.989 -10.635   2.987  0.00  0.00    +0.096 C 
ATOM     33  C   UNL     1      -0.911 -10.015   1.582  0.00  0.00    +0.046 C 
ATOM     34  C   UNL     1      -1.215 -11.092   0.513  0.00  0.00    +0.168 C 
ATOM     35  S   UNL     1      -2.313 -12.259   1.415  0.00  0.00    -0.029 S 
ATOM     36  O   UNL     1      -1.672 -13.524   1.501  0.00  0.00    -0.174 OA
ATOM     37  O   UNL     1      -3.624 -12.175   0.872  0.00  0.00    -0.174 OA
ATOM     38  C   UNL     1      -2.300 -11.466   3.078  0.00  0.00    +0.188 C 
ENDBRANCH  30  32
ENDBRANCH   2  28
TORSDOF 7
