REMARK  Name = ZINC19524765
REMARK  9 active torsions:
REMARK  status: ('A' for Active; 'I' for Inactive)
REMARK    1  A    between atoms: C_1  and  C_2
REMARK    2  A    between atoms: C_2  and  N_3
REMARK    3  A    between atoms: C_5  and  C_12
REMARK    4  A    between atoms: C_12  and  C_14
REMARK    5  A    between atoms: C_12  and  O_34
REMARK    6  A    between atoms: C_14  and  N_15
REMARK    7  A    between atoms: C_22  and  O_33
REMARK    8  A    between atoms: C_27  and  O_31
REMARK    9  A    between atoms: O_31  and  C_32
REMARK                            x       y       z     vdW  Elec       q    Type
REMARK                         _______ _______ _______ _____ _____    ______ ____
ROOT
ATOM      1  N   UNL     1       1.467  -3.503   5.724  0.00  0.00    +0.382 N 
ATOM      2  C   UNL     1       1.995  -3.054   7.019  0.00  0.00    -0.075 C 
ATOM      3  C   UNL     1       1.834  -4.172   8.052  0.00  0.00    +0.029 C 
ATOM      4  C   UNL     1       2.583  -5.416   7.573  0.00  0.00    +0.110 C 
ATOM      5  C   UNL     1       2.054  -5.833   6.200  0.00  0.00    +0.029 C 
ATOM      6  C   UNL     1       2.210  -4.666   5.222  0.00  0.00    -0.075 C 
ATOM      7  C   UNL     1       2.370  -6.559   8.573  0.00  0.00    +0.084 C 
ATOM      8  C   UNL     1       2.806  -6.073   9.958  0.00  0.00    +0.152 C 
ATOM      9  C   UNL     1       4.161  -5.417   9.862  0.00  0.00    +0.023 A 
ATOM     10  C   UNL     1       4.901  -5.249  11.021  0.00  0.00    +0.013 A 
ATOM     11  C   UNL     1       6.144  -4.651  10.975  0.00  0.00    +0.046 A 
ATOM     12  C   UNL     1       6.657  -4.213   9.762  0.00  0.00    +0.124 A 
ATOM     13  C   UNL     1       5.920  -4.380   8.602  0.00  0.00    +0.091 A 
ATOM     14  C   UNL     1       4.669  -4.985   8.650  0.00  0.00    +0.130 A 
ATOM     15  O   UNL     1       3.980  -5.138   7.489  0.00  0.00    -0.485 OA
ATOM     16  H   UNL     1       0.423  -3.813   5.877  0.00  0.00    -0.082 HD
ENDROOT
BRANCH  12  17
ATOM     17  O   UNL     1       7.880  -3.621   9.713  0.00  0.00    -0.495 OA
ATOM     18  C   UNL     1       8.583  -3.482  10.949  0.00  0.00    +0.277 C 
ENDBRANCH  12  17
BRANCH   8  19
ATOM     19  O   UNL     1       2.878  -7.186  10.851  0.00  0.00    -0.387 OA
ATOM     20  H   UNL     1       3.177  -7.032  11.899  0.00  0.00    +0.210 HD
ENDBRANCH   8  19
BRANCH   1  21
ATOM     21  C   UNL     1       1.477  -2.409   4.744  0.00  0.00    -0.042 C 
BRANCH  21  22
ATOM     22  C   UNL     1       0.497  -1.320   5.186  0.00  0.00    +0.130 C 
BRANCH  22  25
ATOM     23  N   UNL     1      -0.020   1.094   2.454  0.00  0.00    -0.347 N 
ATOM     24  C   UNL     1      -0.341  -0.038   3.152  0.00  0.00    +0.093 A 
ATOM     25  C   UNL     1       0.508  -0.197   4.180  0.00  0.00    +0.004 A 
ATOM     26  C   UNL     1       1.442   0.931   4.143  0.00  0.00    +0.005 A 
ATOM     27  C   UNL     1       1.063   1.712   3.036  0.00  0.00    +0.049 A 
ATOM     28  C   UNL     1       1.778   2.869   2.742  0.00  0.00    +0.026 A 
ATOM     29  C   UNL     1       2.844   3.234   3.535  0.00  0.00    +0.002 A 
ATOM     30  C   UNL     1       3.213   2.460   4.626  0.00  0.00    +0.001 A 
ATOM     31  C   UNL     1       2.525   1.321   4.933  0.00  0.00    +0.010 A 
BRANCH  23  33
ATOM     32  C   UNL     1      -0.013   1.086   0.008  0.00  0.00    +0.027 C 
ATOM     33  C   UNL     1      -0.729   1.579   1.267  0.00  0.00    +0.118 C 
ENDBRANCH  23  33
ENDBRANCH  22  25
BRANCH  22  34
ATOM     34  O   UNL     1      -0.819  -1.870   5.272  0.00  0.00    -0.389 OA
ATOM     35  H   UNL     1      -1.022  -2.704   5.959  0.00  0.00    +0.210 HD
ENDBRANCH  22  34
ENDBRANCH  21  22
ENDBRANCH   1  21
TORSDOF 7
