REMARK  Name = ZINC11756976
REMARK  8 active torsions:
REMARK  status: ('A' for Active; 'I' for Inactive)
REMARK    1  A    between atoms: C_1  and  C_2
REMARK    2  A    between atoms: C_9  and  N_15
REMARK    3  A    between atoms: C_10  and  C_11
REMARK    4  A    between atoms: C_11  and  O_13
REMARK    5  A    between atoms: O_13  and  C_14
REMARK    6  A    between atoms: C_16  and  C_18
REMARK    7  A    between atoms: C_18  and  N_19
REMARK    8  A    between atoms: C_22  and  N_28
REMARK                            x       y       z     vdW  Elec       q    Type
REMARK                         _______ _______ _______ _____ _____    ______ ____
ROOT
ATOM      1  N   UNL     1       1.930  -5.845  -1.738  0.00  0.00    -0.278 N 
ATOM      2  C   UNL     1       2.227  -6.106  -3.026  0.00  0.00    +0.239 C 
ATOM      3  O   UNL     1       2.199  -5.214  -3.848  0.00  0.00    -0.273 OA
ATOM      4  H   UNL     1       1.953  -6.558  -1.081  0.00  0.00    +0.155 HD
ENDROOT
BRANCH   1  12
ATOM      5  C   UNL     1      -0.019   1.526   0.010  0.00  0.00    +0.008 C 
ATOM      6  C   UNL     1       0.002  -0.004   0.002  0.00  0.00    -0.009 C 
ATOM      7  C   UNL     1       0.742  -0.514   1.242  0.00  0.00    +0.008 C 
ATOM      8  C   UNL     1       0.557  -2.027   1.373  0.00  0.00    +0.037 C 
ATOM      9  C   UNL     1       0.941  -2.684   0.053  0.00  0.00    -0.021 A 
ATOM     10  C   UNL     1       1.008  -1.966  -1.089  0.00  0.00    -0.004 A 
ATOM     11  S   UNL     1       1.484  -3.133  -2.332  0.00  0.00    -0.077 S 
ATOM     12  C   UNL     1       1.592  -4.558  -1.351  0.00  0.00    +0.086 A 
ATOM     13  C   UNL     1       1.258  -4.096  -0.085  0.00  0.00    +0.091 A 
ATOM     14  C   UNL     1       0.736  -0.502  -1.252  0.00  0.00    +0.046 C 
BRANCH  13  15
ATOM     15  C   UNL     1       1.226  -4.998   1.068  0.00  0.00    +0.342 C 
ATOM     16  O   UNL     1       0.198  -5.582   1.355  0.00  0.00    -0.245 OA
BRANCH  15  17
ATOM     17  O   UNL     1       2.336  -5.182   1.812  0.00  0.00    -0.464 OA
ATOM     18  C   UNL     1       2.231  -6.090   2.940  0.00  0.00    +0.280 C 
ENDBRANCH  15  17
ENDBRANCH  13  15
ENDBRANCH   1  12
BRANCH   2  19
ATOM     19  C   UNL     1       2.594  -7.506  -3.446  0.00  0.00    +0.240 C 
BRANCH  19  20
ATOM     20  N   UNL     1       2.871  -7.528  -4.885  0.00  0.00    -0.255 N 
ATOM     21  C   UNL     1       1.946  -7.766  -5.868  0.00  0.00    +0.071 A 
ATOM     22  C   UNL     1       0.579  -8.026  -5.861  0.00  0.00    +0.050 A 
ATOM     23  C   UNL     1      -0.087  -8.220  -7.058  0.00  0.00    +0.027 A 
ATOM     24  C   UNL     1       0.600  -8.149  -8.271  0.00  0.00    +0.023 A 
ATOM     25  C   UNL     1       1.938  -7.889  -8.296  0.00  0.00    +0.013 A 
ATOM     26  C   UNL     1       2.632  -7.691  -7.096  0.00  0.00    +0.020 A 
ATOM     27  C   UNL     1       4.025  -7.402  -6.770  0.00  0.00    +0.143 A 
ATOM     28  N   UNL     1       4.121  -7.315  -5.474  0.00  0.00    -0.178 NA
BRANCH  23  29
ATOM     29  N   UNL     1      -1.458  -8.487  -7.052  0.00  0.00    -0.358 N 
ATOM     30  H   UNL     1      -1.929  -8.623  -7.889  0.00  0.00    +0.142 HD
ATOM     31  H   UNL     1      -1.939  -8.537  -6.211  0.00  0.00    +0.142 HD
ENDBRANCH  23  29
ENDBRANCH  19  20
ENDBRANCH   2  19
TORSDOF 6
