REMARK  Name = ZINC16038904
REMARK  8 active torsions:
REMARK  status: ('A' for Active; 'I' for Inactive)
REMARK    1  A    between atoms: C_1  and  C_2
REMARK    2  A    between atoms: C_2  and  C_3
REMARK    3  A    between atoms: C_2  and  C_4
REMARK    4  A    between atoms: C_2  and  C_5
REMARK    5  A    between atoms: C_5  and  C_7
REMARK    6  A    between atoms: C_9  and  C_32
REMARK    7  A    between atoms: C_32  and  C_34
REMARK    8  A    between atoms: C_38  and  N_40
REMARK                            x       y       z     vdW  Elec       q    Type
REMARK                         _______ _______ _______ _____ _____    ______ ____
ROOT
ATOM      1  C   UNL     1      -2.607  -2.739   0.964  0.00  0.00    +0.153 C 
ATOM      2  C   UNL     1      -2.173  -1.278   1.275  0.00  0.00    +0.109 C 
ATOM      3  C   UNL     1      -2.642  -0.464   0.052  0.00  0.00    +0.108 C 
ATOM      4  C   UNL     1      -1.521   0.302  -0.562  0.00  0.00    -0.008 A 
ATOM      5  C   UNL     1      -0.326  -0.101  -1.117  0.00  0.00    +0.006 A 
ATOM      6  C   UNL     1       0.510   0.895  -1.611  0.00  0.00    +0.000 A 
ATOM      7  C   UNL     1       0.156   2.227  -1.547  0.00  0.00    +0.002 A 
ATOM      8  C   UNL     1      -1.043   2.641  -0.989  0.00  0.00    +0.023 A 
ATOM      9  C   UNL     1      -1.892   1.652  -0.490  0.00  0.00    +0.038 A 
ATOM     10  N   UNL     1      -3.130   1.780   0.116  0.00  0.00    -0.284 N 
ATOM     11  C   UNL     1      -3.649   0.581   0.463  0.00  0.00    +0.231 C 
ATOM     12  O   UNL     1      -4.716   0.385   1.006  0.00  0.00    -0.274 OA
ATOM     13  C   UNL     1      -3.247  -1.490  -0.895  0.00  0.00    +0.117 C 
ATOM     14  N   UNL     1      -3.715  -2.571   0.016  0.00  0.00    -0.311 N 
ATOM     15  C   UNL     1      -4.125  -3.652  -0.726  0.00  0.00    +0.038 A 
ATOM     16  C   UNL     1      -3.813  -4.960  -0.411  0.00  0.00    +0.024 A 
ATOM     17  C   UNL     1      -4.264  -5.990  -1.216  0.00  0.00    +0.002 A 
ATOM     18  C   UNL     1      -5.028  -5.721  -2.339  0.00  0.00    +0.001 A 
ATOM     19  C   UNL     1      -5.351  -4.419  -2.669  0.00  0.00    +0.010 A 
ATOM     20  C   UNL     1      -4.907  -3.375  -1.869  0.00  0.00    -0.004 A 
ATOM     21  C   UNL     1      -5.240  -1.964  -2.176  0.00  0.00    +0.007 C 
ATOM     22  C   UNL     1      -4.419  -1.012  -1.697  0.00  0.00    -0.003 C 
ATOM     23  H   UNL     1      -3.575   2.628   0.268  0.00  0.00    +0.155 HD
ENDROOT
BRANCH   1  24
ATOM     24  C   UNL     1      -1.474  -3.505   0.331  0.00  0.00    +0.160 C 
ATOM     25  O   UNL     1      -1.238  -3.373  -0.846  0.00  0.00    -0.295 OA
BRANCH  24  27
ATOM     26  C   UNL     1       0.557  -4.928   0.344  0.00  0.00    +0.018 C 
ATOM     27  C   UNL     1      -0.635  -4.437   1.167  0.00  0.00    +0.022 C 
ATOM     28  C   UNL     1      -0.129  -3.695   2.406  0.00  0.00    +0.018 C 
ATOM     29  C   UNL     1      -1.482  -5.635   1.601  0.00  0.00    +0.018 C 
ENDBRANCH  24  27
ENDBRANCH   1  24
BRANCH   2  30
ATOM     30  C   UNL     1      -0.675  -1.194   1.420  0.00  0.00    +0.170 C 
ATOM     31  O   UNL     1       0.042  -1.825   0.673  0.00  0.00    -0.292 OA
BRANCH  30  32
ATOM     32  C   UNL     1      -0.084  -0.345   2.467  0.00  0.00    +0.020 A 
ATOM     33  C   UNL     1      -0.905   0.294   3.401  0.00  0.00    +0.011 A 
ATOM     34  C   UNL     1      -0.343   1.087   4.379  0.00  0.00    +0.003 A 
ATOM     35  C   UNL     1       1.030   1.251   4.438  0.00  0.00    +0.033 A 
ATOM     36  C   UNL     1       1.849   0.622   3.517  0.00  0.00    +0.127 A 
ATOM     37  C   UNL     1       1.303  -0.179   2.536  0.00  0.00    +0.044 A 
BRANCH  36  38
ATOM     38  N   UNL     1       3.317   0.804   3.588  0.00  0.00    +0.056 N 
ATOM     39  O   UNL     1       3.801   1.507   4.457  0.00  0.00    -0.126 OA
ATOM     40  O   UNL     1       4.039   0.251   2.778  0.00  0.00    -0.126 OA
ENDBRANCH  36  38
ENDBRANCH  30  32
ENDBRANCH   2  30
TORSDOF 5
