REMARK  Name = ZINC66220233
REMARK  5 active torsions:
REMARK  status: ('A' for Active; 'I' for Inactive)
REMARK    1  A    between atoms: C_4  and  C_7
REMARK    2  A    between atoms: C_7  and  N_11
REMARK    3  A    between atoms: N_14  and  N_15
REMARK    4  A    between atoms: C_16  and  C_18
REMARK    5  A    between atoms: N_21  and  C_23
REMARK                            x       y       z     vdW  Elec       q    Type
REMARK                         _______ _______ _______ _____ _____    ______ ____
ROOT
ATOM      1  N   UNL     1       4.818   0.081  -0.586  0.00  0.00    -0.289 N 
ATOM      2  C   UNL     1       5.112   1.287  -0.060  0.00  0.00    +0.317 C 
ATOM      3  O   UNL     1       4.519   1.681   0.926  0.00  0.00    -0.251 OA
ATOM      4  N   UNL     1       6.062   2.056  -0.627  0.00  0.00    -0.218 N 
ATOM      5  H   UNL     1       5.340  -0.266  -1.326  0.00  0.00    +0.151 HD
ATOM      6  H   UNL     1       6.274   2.924  -0.248  0.00  0.00    +0.174 HD
ENDROOT
BRANCH   1   7
ATOM      7  C   UNL     1       3.708  -0.705  -0.040  0.00  0.00    +0.061 C 
ATOM      8  C   UNL     1       3.935  -1.172   1.407  0.00  0.00    +0.031 C 
ATOM      9  C   UNL     1       4.603  -2.425   0.816  0.00  0.00    +0.005 C 
ATOM     10  C   UNL     1       3.750  -2.189  -0.442  0.00  0.00    +0.031 C 
BRANCH   7  14
ATOM     11  C   UNL     1      -0.095   1.134  -0.667  0.00  0.00    +0.000 A 
ATOM     12  C   UNL     1       0.002  -0.004   0.110  0.00  0.00    +0.000 A 
ATOM     13  C   UNL     1       1.233  -0.600   0.313  0.00  0.00    +0.006 A 
ATOM     14  C   UNL     1       2.366  -0.057  -0.262  0.00  0.00    -0.024 A 
ATOM     15  C   UNL     1       2.269   1.081  -1.040  0.00  0.00    +0.006 A 
ATOM     16  C   UNL     1       1.038   1.678  -1.242  0.00  0.00    +0.000 A 
ENDBRANCH   7  14
ENDBRANCH   1   7
BRANCH   4  17
ATOM     17  N   UNL     1       6.745   1.602  -1.763  0.00  0.00    -0.228 N 
ATOM     18  C   UNL     1       7.695   2.371  -2.330  0.00  0.00    +0.284 C 
ATOM     19  O   UNL     1       7.960   3.459  -1.855  0.00  0.00    -0.267 OA
ATOM     20  H   UNL     1       6.533   0.734  -2.142  0.00  0.00    +0.173 HD
BRANCH  18  21
ATOM     21  C   UNL     1       8.414   1.893  -3.526  0.00  0.00    +0.195 A 
ATOM     22  C   UNL     1       9.436   2.583  -4.226  0.00  0.00    +0.229 A 
ATOM     23  C   UNL     1       9.793   1.763  -5.247  0.00  0.00    +0.166 A 
ATOM     24  N   UNL     1       9.020   0.647  -5.152  0.00  0.00    -0.235 N 
ATOM     25  N   UNL     1       8.230   0.741  -4.143  0.00  0.00    -0.158 NA
ATOM     26  O   UNL     1       9.951   3.809  -3.935  0.00  0.00    -0.284 OA
BRANCH  24  27
ATOM     27  C   UNL     1       9.080  -0.448  -6.024  0.00  0.00    +0.065 A 
ATOM     28  C   UNL     1       9.983  -0.448  -7.079  0.00  0.00    +0.028 A 
ATOM     29  C   UNL     1      10.040  -1.529  -7.936  0.00  0.00    +0.002 A 
ATOM     30  C   UNL     1       9.200  -2.610  -7.746  0.00  0.00    +0.000 A 
ATOM     31  C   UNL     1       8.299  -2.613  -6.697  0.00  0.00    +0.002 A 
ATOM     32  C   UNL     1       8.240  -1.537  -5.832  0.00  0.00    +0.028 A 
ENDBRANCH  24  27
ENDBRANCH  18  21
ENDBRANCH   4  17
TORSDOF 5
