REMARK  Name = ZINC14650183
REMARK  14 active torsions:
REMARK  status: ('A' for Active; 'I' for Inactive)
REMARK    1  A    between atoms: C_1  and  C_2
REMARK    2  A    between atoms: C_2  and  C_3
REMARK    3  A    between atoms: C_3  and  C_4
REMARK    4  A    between atoms: C_4  and  O_5
REMARK    5  A    between atoms: O_5  and  C_6
REMARK    6  A    between atoms: C_11  and  C_12
REMARK    7  A    between atoms: N_14  and  C_15
REMARK    8  A    between atoms: C_15  and  N_17
REMARK    9  A    between atoms: C_23  and  C_25
REMARK   10  A    between atoms: C_25  and  C_26
REMARK   11  A    between atoms: C_26  and  O_28
REMARK   12  A    between atoms: O_28  and  C_29
REMARK   13  A    between atoms: C_29  and  C_30
REMARK   14  A    between atoms: C_29  and  C_31
REMARK                            x       y       z     vdW  Elec       q    Type
REMARK                         _______ _______ _______ _____ _____    ______ ____
ROOT
ATOM      1  C   UNL     1      -5.165   4.819   0.093  0.00  0.00    +0.140 C 
ATOM      2  S   UNL     1      -5.395   6.511   0.227  0.00  0.00    -0.018 S 
ENDROOT
BRANCH   1   3
ATOM      3  N   UNL     1      -6.231   4.002  -0.026  0.00  0.00    -0.299 N 
ATOM      4  C   UNL     1      -7.596   4.538  -0.164  0.00  0.00    +0.126 C 
ATOM      5  C   UNL     1      -8.155   4.079  -1.512  0.00  0.00    +0.123 C 
ATOM      6  N   UNL     1      -7.909   2.658  -1.716  0.00  0.00    -0.312 N 
ATOM      7  C   UNL     1      -6.960   1.957  -1.095  0.00  0.00    +0.234 C 
ATOM      8  O   UNL     1      -6.800   0.796  -1.407  0.00  0.00    -0.274 OA
ATOM      9  C   UNL     1      -6.076   2.540  -0.031  0.00  0.00    +0.171 C 
ATOM     10  H   UNL     1      -8.476   2.189  -2.349  0.00  0.00    +0.149 HD
BRANCH   9  11
ATOM     11  C   UNL     1      -6.484   1.977   1.332  0.00  0.00    +0.152 C 
BRANCH  11  12
ATOM     12  C   UNL     1      -5.512   2.450   2.382  0.00  0.00    +0.310 C 
ATOM     13  O   UNL     1      -4.520   3.058   2.056  0.00  0.00    -0.251 OA
BRANCH  12  14
ATOM     14  O   UNL     1      -5.748   2.196   3.678  0.00  0.00    -0.462 OA
BRANCH  14  15
ATOM     15  C   UNL     1      -4.769   2.682   4.634  0.00  0.00    +0.170 C 
ATOM     16  C   UNL     1      -5.150   4.095   5.081  0.00  0.00    +0.052 C 
ATOM     17  C   UNL     1      -4.739   1.753   5.850  0.00  0.00    +0.052 C 
ENDBRANCH  14  15
ENDBRANCH  12  14
ENDBRANCH  11  12
ENDBRANCH   9  11
ENDBRANCH   1   3
BRANCH   1  20
ATOM     18  C   UNL     1      -2.852   5.127   0.122  0.00  0.00    +0.253 C 
ATOM     19  O   UNL     1      -3.012   6.332   0.122  0.00  0.00    -0.270 OA
ATOM     20  N   UNL     1      -3.920   4.305   0.108  0.00  0.00    -0.264 N 
ATOM     21  H   UNL     1      -3.792   3.343   0.108  0.00  0.00    +0.157 HD
BRANCH  18  27
ATOM     22  C   UNL     1      -0.375   5.415   0.153  0.00  0.00    +0.133 A 
ATOM     23  C   UNL     1       0.903   4.875   0.168  0.00  0.00    +0.047 A 
ATOM     24  C   UNL     1       1.075   3.505   0.169  0.00  0.00    +0.019 A 
ATOM     25  C   UNL     1      -0.023   2.660   0.154  0.00  0.00    +0.019 A 
ATOM     26  C   UNL     1      -1.300   3.179   0.133  0.00  0.00    +0.032 A 
ATOM     27  C   UNL     1      -1.489   4.564   0.138  0.00  0.00    +0.080 A 
ATOM     28 BR   UNL     1       0.231   0.786   0.156  0.00  0.00    -0.050 Br
BRANCH  22  29
ATOM     29  O   UNL     1      -0.546   6.760   0.153  0.00  0.00    -0.491 OA
BRANCH  29  30
ATOM     30  C   UNL     1       0.636   7.564   0.169  0.00  0.00    +0.229 C 
BRANCH  30  31
ATOM     31  C   UNL     1       0.246   9.044   0.166  0.00  0.00    +0.041 C 
BRANCH  31  33
ATOM     32  C   UNL     1       1.121  11.384   0.181  0.00  0.00    +0.004 C 
ATOM     33  C   UNL     1       1.511   9.904   0.183  0.00  0.00    -0.000 C 
ENDBRANCH  31  33
ENDBRANCH  30  31
ENDBRANCH  29  30
ENDBRANCH  22  29
ENDBRANCH  18  27
ENDBRANCH   1  20
TORSDOF 11
