REMARK  Name = ZINC01885834
REMARK  11 active torsions:
REMARK  status: ('A' for Active; 'I' for Inactive)
REMARK    1  A    between atoms: C_1  and  C_2
REMARK    2  A    between atoms: C_2  and  O_3
REMARK    3  A    between atoms: O_3  and  C_4
REMARK    4  A    between atoms: C_8  and  C_11
REMARK    5  A    between atoms: C_9  and  O_10
REMARK    6  A    between atoms: N_12  and  N_13
REMARK    7  A    between atoms: C_14  and  C_16
REMARK    8  A    between atoms: C_16  and  S_17
REMARK    9  A    between atoms: S_17  and  C_18
REMARK   10  A    between atoms: C_21  and  C_29
REMARK   11  A    between atoms: N_22  and  C_23
REMARK                            x       y       z     vdW  Elec       q    Type
REMARK                         _______ _______ _______ _____ _____    ______ ____
ROOT
ATOM      1  S   UNL     1       5.164  -2.405  -9.008  0.00  0.00    -0.076 S 
ENDROOT
BRANCH   1   2
ATOM      2  C   UNL     1       5.944  -3.225 -10.358  0.00  0.00    +0.197 A 
ATOM      3  N   UNL     1       6.047  -4.525 -10.527  0.00  0.00    -0.122 NA
ATOM      4  N   UNL     1       6.675  -4.781 -11.618  0.00  0.00    -0.128 NA
ATOM      5  C   UNL     1       7.013  -3.662 -12.216  0.00  0.00    +0.169 A 
ATOM      6  N   UNL     1       6.550  -2.629 -11.430  0.00  0.00    -0.270 N 
BRANCH   5   7
ATOM      7  C   UNL     1       7.746  -3.534 -13.493  0.00  0.00    +0.020 A 
ATOM      8  C   UNL     1       8.315  -2.312 -13.855  0.00  0.00    +0.012 A 
ATOM      9  C   UNL     1       8.998  -2.199 -15.048  0.00  0.00    +0.016 A 
ATOM     10  C   UNL     1       9.120  -3.295 -15.886  0.00  0.00    +0.018 A 
ATOM     11  C   UNL     1       8.557  -4.510 -15.532  0.00  0.00    +0.016 A 
ATOM     12  C   UNL     1       7.877  -4.637 -14.339  0.00  0.00    +0.012 A 
ATOM     13 BR   UNL     1      10.058  -3.132 -17.519  0.00  0.00    -0.050 Br
ENDBRANCH   5   7
BRANCH   6  14
ATOM     14  C   UNL     1       6.676  -1.254 -11.676  0.00  0.00    +0.051 A 
ATOM     15  C   UNL     1       6.036  -0.681 -12.767  0.00  0.00    +0.026 A 
ATOM     16  C   UNL     1       6.162   0.673 -13.006  0.00  0.00    +0.002 A 
ATOM     17  C   UNL     1       6.925   1.458 -12.162  0.00  0.00    +0.000 A 
ATOM     18  C   UNL     1       7.564   0.890 -11.075  0.00  0.00    +0.002 A 
ATOM     19  C   UNL     1       7.437  -0.463 -10.826  0.00  0.00    +0.026 A 
ENDBRANCH   6  14
ENDBRANCH   1   2
BRANCH   1  20
ATOM     20  C   UNL     1       4.575  -3.758  -7.953  0.00  0.00    +0.174 C 
BRANCH  20  22
ATOM     21  N   UNL     1       3.357  -4.011  -5.815  0.00  0.00    -0.206 N 
ATOM     22  C   UNL     1       3.879  -3.186  -6.745  0.00  0.00    +0.242 C 
ATOM     23  O   UNL     1       3.789  -1.984  -6.609  0.00  0.00    -0.273 OA
ATOM     24  H   UNL     1       3.429  -4.972  -5.924  0.00  0.00    +0.177 HD
BRANCH  21  26
ATOM     25  C   UNL     1       2.207  -4.273  -3.797  0.00  0.00    +0.142 C 
ATOM     26  N   UNL     1       2.710  -3.479  -4.692  0.00  0.00    -0.188 NA
BRANCH  25  31
ATOM     27  C   UNL     1       0.777  -1.811  -1.336  0.00  0.00    +0.162 A 
ATOM     28  C   UNL     1       0.243  -2.668  -0.387  0.00  0.00    +0.049 A 
ATOM     29  C   UNL     1       0.347  -4.039  -0.545  0.00  0.00    +0.004 A 
ATOM     30  C   UNL     1       0.983  -4.566  -1.649  0.00  0.00    +0.013 A 
ATOM     31  C   UNL     1       1.526  -3.714  -2.615  0.00  0.00    +0.040 A 
ATOM     32  C   UNL     1       1.415  -2.327  -2.457  0.00  0.00    +0.167 A 
BRANCH  32  33
ATOM     33  O   UNL     1       1.935  -1.490  -3.393  0.00  0.00    -0.503 OA
ATOM     34  H   UNL     1       2.855  -1.240  -3.229  0.00  0.00    +0.292 HD
ENDBRANCH  32  33
BRANCH  27  35
ATOM     35  O   UNL     1       0.671  -0.465  -1.174  0.00  0.00    -0.489 OA
BRANCH  35  37
ATOM     36  C   UNL     1      -0.019   1.526   0.010  0.00  0.00    +0.048 C 
ATOM     37  C   UNL     1       0.002  -0.004   0.002  0.00  0.00    +0.226 C 
ENDBRANCH  35  37
ENDBRANCH  27  35
ENDBRANCH  25  31
ENDBRANCH  21  26
ENDBRANCH  20  22
ENDBRANCH   1  20
TORSDOF 10
