REMARK  Name = ZINC21256129
REMARK  9 active torsions:
REMARK  status: ('A' for Active; 'I' for Inactive)
REMARK    1  A    between atoms: C_1  and  C_2
REMARK    2  A    between atoms: C_2  and  C_3
REMARK    3  A    between atoms: C_2  and  C_4
REMARK    4  A    between atoms: C_7  and  C_10
REMARK    5  A    between atoms: C_15  and  C_20
REMARK    6  A    between atoms: C_23  and  O_26
REMARK    7  A    between atoms: O_26  and  C_27
REMARK    8  A    between atoms: C_27  and  C_28
REMARK    9  A    between atoms: C_27  and  C_29
REMARK                            x       y       z     vdW  Elec       q    Type
REMARK                         _______ _______ _______ _____ _____    ______ ____
ROOT
ATOM      1  C   UNL     1      -0.773  -4.233   0.084  0.00  0.00    +0.136 C 
ATOM      2  C   UNL     1      -0.967  -2.755  -0.156  0.00  0.00    +0.036 C 
ATOM      3  C   UNL     1      -1.039  -2.153  -1.356  0.00  0.00    +0.017 C 
ATOM      4  C   UNL     1      -1.249  -0.652  -1.456  0.00  0.00    +0.059 C 
ATOM      5  C   UNL     1      -0.594   0.047  -0.266  0.00  0.00    +0.032 C 
ATOM      6  C   UNL     1      -1.241  -0.501   1.012  0.00  0.00    +0.088 C 
ATOM      7  C   UNL     1      -1.070  -1.991   1.030  0.00  0.00    +0.163 C 
ATOM      8  O   UNL     1      -1.019  -2.562   2.102  0.00  0.00    -0.292 OA
ATOM      9  N   UNL     1      -0.953  -2.797  -2.548  0.00  0.00    -0.316 N 
ATOM     10  C   UNL     1       0.001  -3.755  -2.870  0.00  0.00    +0.052 A 
ATOM     11  C   UNL     1       0.914  -3.575  -3.894  0.00  0.00    +0.025 A 
ATOM     12  C   UNL     1       1.760  -4.615  -4.239  0.00  0.00    +0.002 A 
ATOM     13  C   UNL     1       1.694  -5.821  -3.565  0.00  0.00    +0.002 A 
ATOM     14  C   UNL     1       0.798  -5.994  -2.525  0.00  0.00    +0.025 A 
ATOM     15  C   UNL     1      -0.038  -4.949  -2.166  0.00  0.00    +0.049 A 
ATOM     16  N   UNL     1      -0.924  -5.059  -1.095  0.00  0.00    -0.331 N 
ATOM     17  H   UNL     1      -1.674  -2.572  -3.348  0.00  0.00    +0.152 HD
ATOM     18  H   UNL     1      -1.747  -5.787  -1.155  0.00  0.00    +0.147 HD
ENDROOT
BRANCH   1  22
ATOM     19  C   UNL     1       3.144  -4.845   1.672  0.00  0.00    -0.045 A 
ATOM     20  C   UNL     1       2.033  -5.145   2.438  0.00  0.00    +0.004 A 
ATOM     21  C   UNL     1       0.765  -4.947   1.924  0.00  0.00    +0.006 A 
ATOM     22  C   UNL     1       0.609  -4.449   0.644  0.00  0.00    -0.023 A 
ATOM     23  C   UNL     1       1.720  -4.154  -0.124  0.00  0.00    +0.006 A 
ATOM     24  C   UNL     1       2.987  -4.349   0.392  0.00  0.00    +0.004 A 
BRANCH  19  26
ATOM     25  C   UNL     1       5.284  -6.058   1.354  0.00  0.00    +0.012 C 
ATOM     26  C   UNL     1       4.526  -5.061   2.233  0.00  0.00    +0.013 C 
ATOM     27  C   UNL     1       5.280  -3.729   2.259  0.00  0.00    +0.012 C 
ENDBRANCH  19  26
ENDBRANCH   1  22
BRANCH   5  28
ATOM     28  C   UNL     1      -0.825   1.534  -0.357  0.00  0.00    -0.043 A 
ATOM     29  C   UNL     1      -2.114   2.030  -0.406  0.00  0.00    +0.007 A 
ATOM     30  C   UNL     1      -2.328   3.393  -0.484  0.00  0.00    +0.046 A 
ATOM     31  C   UNL     1      -1.248   4.263  -0.524  0.00  0.00    +0.121 A 
ATOM     32  C   UNL     1       0.045   3.761  -0.480  0.00  0.00    +0.046 A 
ATOM     33  C   UNL     1       0.253   2.398  -0.397  0.00  0.00    +0.007 A 
BRANCH  31  34
ATOM     34  O   UNL     1      -1.456   5.603  -0.606  0.00  0.00    -0.489 OA
BRANCH  34  35
ATOM     35  C   UNL     1      -0.302   6.430  -0.767  0.00  0.00    +0.167 C 
ATOM     36  C   UNL     1      -0.705   7.742  -1.442  0.00  0.00    +0.051 C 
ATOM     37  C   UNL     1       0.307   6.728   0.605  0.00  0.00    +0.051 C 
ENDBRANCH  34  35
ENDBRANCH  31  34
ENDBRANCH   5  28
TORSDOF 5
