REMARK  Name = ZINC13465942
REMARK  4 active torsions:
REMARK  status: ('A' for Active; 'I' for Inactive)
REMARK    1  A    between atoms: C_1  and  S_2
REMARK    2  A    between atoms: S_2  and  C_3
REMARK    3  A    between atoms: N_4  and  C_5
REMARK    4  A    between atoms: N_6  and  C_7
REMARK                            x       y       z     vdW  Elec       q    Type
REMARK                         _______ _______ _______ _____ _____    ______ ____
ROOT
ATOM      1  C   UNL     1       2.013   0.203  -3.507  0.00  0.00    +0.224 C 
ATOM      2  N   UNL     1       2.288  -1.038  -3.865  0.00  0.00    -0.213 NA
ATOM      3  N   UNL     1       2.286   1.246  -4.367  0.00  0.00    -0.368 N 
ATOM      4  H   UNL     1       2.187   2.162  -4.065  0.00  0.00    +0.159 HD
ATOM      5  H   UNL     1       2.579   1.062  -5.274  0.00  0.00    +0.159 HD
ENDROOT
BRANCH   2   6
ATOM      6  C   UNL     1       2.968  -1.279  -5.027  0.00  0.00    +0.068 A 
ATOM      7  C   UNL     1       4.223  -0.703  -5.238  0.00  0.00    +0.029 A 
ATOM      8  C   UNL     1       4.903  -0.951  -6.412  0.00  0.00    +0.022 A 
ATOM      9  C   UNL     1       4.345  -1.769  -7.380  0.00  0.00    +0.041 A 
ATOM     10  C   UNL     1       3.101  -2.343  -7.177  0.00  0.00    +0.022 A 
ATOM     11  C   UNL     1       2.413  -2.108  -6.005  0.00  0.00    +0.029 A 
ATOM     12 CL   UNL     1       5.208  -2.076  -8.854  0.00  0.00    -0.084 Cl
ENDBRANCH   2   6
BRANCH   1  14
ATOM     13  C   UNL     1       2.118   0.124  -1.202  0.00  0.00    +0.155 C 
ATOM     14  N   UNL     1       1.465   0.450  -2.304  0.00  0.00    -0.192 NA
ATOM     15  N   UNL     1       3.349  -0.467  -1.285  0.00  0.00    -0.338 N 
ATOM     16  H   UNL     1       3.785  -0.794  -0.483  0.00  0.00    +0.144 HD
ATOM     17  H   UNL     1       3.785  -0.559  -2.146  0.00  0.00    +0.144 HD
BRANCH  13  19
ATOM     18  C   UNL     1      -0.191   1.224  -0.018  0.00  0.00    +0.093 C 
ATOM     19  S   UNL     1       1.403   0.453   0.375  0.00  0.00    -0.094 S 
ENDBRANCH  13  19
ENDBRANCH   1  14
TORSDOF 3
