REMARK  Name = ZINC58481896
REMARK  7 active torsions:
REMARK  status: ('A' for Active; 'I' for Inactive)
REMARK    1  A    between atoms: C_1  and  C_2
REMARK    2  A    between atoms: N_7  and  C_9
REMARK    3  A    between atoms: C_9  and  C_10
REMARK    4  A    between atoms: C_16  and  C_18
REMARK    5  A    between atoms: C_18  and  C_19
REMARK    6  A    between atoms: C_19  and  C_20
REMARK    7  A    between atoms: C_25  and  O_26
REMARK                            x       y       z     vdW  Elec       q    Type
REMARK                         _______ _______ _______ _____ _____    ______ ____
ROOT
ATOM      1  C   UNL     1       1.666  -3.960   2.315  0.00  0.00    +0.034 A 
ATOM      2  C   UNL     1       2.756  -4.548   1.764  0.00  0.00    +0.070 A 
ATOM      3  S   UNL     1       2.341  -6.273   1.963  0.00  0.00    -0.060 S 
ATOM      4  C   UNL     1       0.849  -6.068   2.714  0.00  0.00    +0.164 A 
ATOM      5  N   UNL     1       0.728  -4.760   2.788  0.00  0.00    -0.231 NA
ATOM      6  N   UNL     1      -0.038  -7.043   3.155  0.00  0.00    -0.265 N 
ATOM      7  C   UNL     1       0.262  -8.348   2.997  0.00  0.00    +0.219 C 
ATOM      8  O   UNL     1       1.306  -8.670   2.470  0.00  0.00    -0.275 OA
ATOM      9  H   UNL     1      -0.873  -6.785   3.575  0.00  0.00    +0.157 HD
ENDROOT
BRANCH   1  10
ATOM     10  C   UNL     1       1.534  -2.461   2.390  0.00  0.00    -0.022 C 
BRANCH  10  16
ATOM     11  C   UNL     1      -0.019   1.526   0.010  0.00  0.00    +0.005 C 
ATOM     12  C   UNL     1       0.002  -0.004   0.002  0.00  0.00    -0.031 C 
ATOM     13  C   UNL     1      -1.434  -0.535   0.015  0.00  0.00    -0.001 C 
ATOM     14  C   UNL     1      -1.402  -2.064   0.086  0.00  0.00    -0.018 C 
ATOM     15  C   UNL     1      -0.613  -2.496   1.324  0.00  0.00    -0.078 C 
ATOM     16  N   UNL     1       0.758  -1.980   1.239  0.00  0.00    +0.384 N 
ATOM     17  C   UNL     1       0.740  -0.512   1.242  0.00  0.00    -0.075 C 
ATOM     18  H   UNL     1       1.188  -2.307   0.386  0.00  0.00    -0.081 HD
ENDBRANCH  10  16
ENDBRANCH   1  10
BRANCH   7  19
ATOM     19  C   UNL     1      -0.700  -9.405   3.474  0.00  0.00    +0.101 C 
BRANCH  19  20
ATOM     20  C   UNL     1      -0.122 -10.791   3.177  0.00  0.00    +0.048 C 
BRANCH  20  21
ATOM     21  C   UNL     1      -1.084 -11.848   3.654  0.00  0.00    -0.005 A 
ATOM     22  C   UNL     1      -0.929 -12.410   4.907  0.00  0.00    +0.007 A 
ATOM     23  C   UNL     1      -1.810 -13.380   5.345  0.00  0.00    +0.000 A 
ATOM     24  C   UNL     1      -2.850 -13.792   4.531  0.00  0.00    +0.004 A 
ATOM     25  C   UNL     1      -3.010 -13.233   3.278  0.00  0.00    +0.045 A 
ATOM     26  C   UNL     1      -2.129 -12.255   2.838  0.00  0.00    +0.120 A 
BRANCH  26  27
ATOM     27  O   UNL     1      -2.288 -11.700   1.607  0.00  0.00    -0.506 OA
ATOM     28  H   UNL     1      -1.818 -12.166   0.902  0.00  0.00    +0.292 HD
ENDBRANCH  26  27
ENDBRANCH  20  21
ENDBRANCH  19  20
ENDBRANCH   7  19
TORSDOF 6
