REMARK  Name = ZINC67374907
REMARK  7 active torsions:
REMARK  status: ('A' for Active; 'I' for Inactive)
REMARK    1  A    between atoms: C_1  and  N_2
REMARK    2  A    between atoms: N_2  and  C_3
REMARK    3  A    between atoms: N_2  and  C_11
REMARK    4  A    between atoms: C_3  and  C_4
REMARK    5  A    between atoms: C_11  and  C_12
REMARK    6  A    between atoms: C_14  and  C_17
REMARK    7  A    between atoms: C_17  and  C_18
REMARK                            x       y       z     vdW  Elec       q    Type
REMARK                         _______ _______ _______ _____ _____    ______ ____
ROOT
ATOM      1  C   UNL     1      -0.106  -0.083  -2.424  0.00  0.00    +0.211 A 
ATOM      2  N   UNL     1       0.028   1.025  -3.098  0.00  0.00    -0.197 NA
ATOM      3  C   UNL     1      -0.836   1.049  -4.119  0.00  0.00    +0.176 A 
ATOM      4  N   UNL     1      -1.534  -0.050  -4.106  0.00  0.00    -0.061 NA
ATOM      5  O   UNL     1      -1.067  -0.813  -3.004  0.00  0.00    -0.340 OA
ENDROOT
BRANCH   1   6
ATOM      6  C   UNL     1       0.690  -0.478  -1.207  0.00  0.00    +0.022 C 
BRANCH   6   8
ATOM      7  C   UNL     1      -0.018   1.465   0.010  0.00  0.00    -0.095 C 
ATOM      8  N   UNL     1       0.002  -0.004   0.002  0.00  0.00    +0.386 N 
ATOM      9  H   UNL     1      -0.945  -0.353   0.009  0.00  0.00    -0.081 HD
BRANCH   8  10
ATOM     10  C   UNL     1       0.713  -0.491   1.192  0.00  0.00    -0.043 C 
BRANCH  10  11
ATOM     11  C   UNL     1      -0.059  -0.109   2.429  0.00  0.00    -0.064 A 
ATOM     12  C   UNL     1       0.189   1.099   3.053  0.00  0.00    +0.004 A 
ATOM     13  C   UNL     1      -0.519   1.450   4.187  0.00  0.00    +0.038 A 
ATOM     14  C   UNL     1      -1.476   0.591   4.698  0.00  0.00    +0.123 A 
ATOM     15  C   UNL     1      -1.724  -0.619   4.073  0.00  0.00    +0.038 A 
ATOM     16  C   UNL     1      -1.019  -0.966   2.936  0.00  0.00    +0.004 A 
ATOM     17  F   UNL     1      -2.168   0.933   5.807  0.00  0.00    -0.205 F 
ENDBRANCH  10  11
ENDBRANCH   8  10
ENDBRANCH   6   8
ENDBRANCH   1   6
BRANCH   3  18
ATOM     18  C   UNL     1      -0.979   2.167  -5.120  0.00  0.00    +0.114 C 
BRANCH  18  19
ATOM     19  C   UNL     1      -0.060   1.916  -6.287  0.00  0.00    -0.039 A 
ATOM     20  C   UNL     1       1.233   2.404  -6.266  0.00  0.00    +0.004 A 
ATOM     21  C   UNL     1       2.077   2.175  -7.336  0.00  0.00    +0.001 A 
ATOM     22  C   UNL     1       1.628   1.457  -8.429  0.00  0.00    +0.015 A 
ATOM     23  C   UNL     1       0.335   0.968  -8.451  0.00  0.00    +0.018 A 
ATOM     24  C   UNL     1      -0.508   1.193  -7.377  0.00  0.00    +0.019 A 
ATOM     25 BR   UNL     1      -0.280  -0.014  -9.945  0.00  0.00    -0.050 Br
ENDBRANCH  18  19
ENDBRANCH   3  18
TORSDOF 6
