REMARK  Name = ZINC02120159
REMARK  6 active torsions:
REMARK  status: ('A' for Active; 'I' for Inactive)
REMARK    1  A    between atoms: C_1  and  N_58
REMARK    2  A    between atoms: C_8  and  O_32
REMARK    3  A    between atoms: C_10  and  C_12
REMARK    4  A    between atoms: N_19  and  C_22
REMARK    5  A    between atoms: C_20  and  O_21
REMARK    6  A    between atoms: O_32  and  C_33
REMARK                            x       y       z     vdW  Elec       q    Type
REMARK                         _______ _______ _______ _____ _____    ______ ____
ROOT
ATOM      1  C   UNL     1      -1.694   6.403   2.737  0.00  0.00    +0.068 A 
ATOM      2  C   UNL     1      -0.368   6.766   2.437  0.00  0.00    +0.258 A 
ATOM      3  O   UNL     1      -0.038   6.983   1.284  0.00  0.00    -0.267 OA
ATOM      4  N   UNL     1       0.534   6.873   3.433  0.00  0.00    -0.302 N 
ATOM      5  H   UNL     1       1.476   7.131   3.223  0.00  0.00    +0.171 HD
ATOM      6  C   UNL     1       0.175   6.634   4.708  0.00  0.00    +0.168 A 
ATOM      7  S   UNL     1       1.342   6.777   5.953  0.00  0.00    -0.012 S 
ATOM      8  N   UNL     1      -1.087   6.284   5.019  0.00  0.00    -0.260 N 
ATOM      9  C   UNL     1      -2.039   6.170   4.035  0.00  0.00    +0.206 A 
ENDROOT
BRANCH   1  19
ATOM     10  C   UNL     1      -3.296   8.622   1.795  0.00  0.00    -0.095 C 
ATOM     11  C   UNL     1      -3.677   7.402  -0.264  0.00  0.00    -0.073 C 
ATOM     12  C   UNL     1      -2.942   6.554  -1.303  0.00  0.00    +0.017 C 
ATOM     13  C   UNL     1      -2.422   5.292  -0.663  0.00  0.00    -0.040 A 
ATOM     14  C   UNL     1      -2.044   4.242  -1.486  0.00  0.00    +0.053 A 
ATOM     15  C   UNL     1      -1.555   3.065  -0.945  0.00  0.00    +0.170 A 
ATOM     16  C   UNL     1      -1.443   2.935   0.435  0.00  0.00    +0.208 A 
ATOM     17  C   UNL     1      -1.824   3.987   1.256  0.00  0.00    +0.167 A 
ATOM     18  C   UNL     1      -2.315   5.167   0.706  0.00  0.00    -0.008 A 
ATOM     19  C   UNL     1      -2.719   6.278   1.640  0.00  0.00    +0.007 C 
ATOM     20  O   UNL     1      -0.937   1.697   0.720  0.00  0.00    -0.449 OA
ATOM     21  C   UNL     1      -0.364   1.225  -0.514  0.00  0.00    +0.467 C 
ATOM     22  O   UNL     1      -1.123   1.909  -1.529  0.00  0.00    -0.452 OA
ATOM     23  N   UNL     1      -2.789   7.552   0.906  0.00  0.00    +0.386 N 
ATOM     24  H   UNL     1      -1.847   7.805   0.582  0.00  0.00    -0.081 HD
BRANCH  17  25
ATOM     25  O   UNL     1      -1.717   3.863   2.607  0.00  0.00    -0.491 OA
ATOM     26  C   UNL     1      -2.794   3.213   3.285  0.00  0.00    +0.277 C 
ENDBRANCH  17  25
ENDBRANCH   1  19
BRANCH   8  27
ATOM     27  C   UNL     1      -1.432   6.042   6.351  0.00  0.00    +0.059 A 
ATOM     28  C   UNL     1      -1.979   7.046   7.121  0.00  0.00    +0.027 A 
ATOM     29  C   UNL     1      -2.329   6.814   8.448  0.00  0.00    +0.003 A 
ATOM     30  C   UNL     1      -2.135   5.596   9.024  0.00  0.00    +0.008 A 
ATOM     31  C   UNL     1      -1.575   4.547   8.274  0.00  0.00    -0.016 A 
ATOM     32  C   UNL     1      -1.218   4.770   6.922  0.00  0.00    +0.006 A 
ATOM     33  C   UNL     1      -0.658   3.721   6.175  0.00  0.00    +0.010 A 
ATOM     34  C   UNL     1      -0.465   2.506   6.758  0.00  0.00    +0.001 A 
ATOM     35  C   UNL     1      -0.816   2.286   8.089  0.00  0.00    +0.001 A 
ATOM     36  C   UNL     1      -1.362   3.279   8.843  0.00  0.00    +0.008 A 
ENDBRANCH   8  27
BRANCH   9  37
ATOM     37  O   UNL     1      -3.306   5.826   4.351  0.00  0.00    -0.493 OA
ATOM     38  H   UNL     1      -3.450   5.683   5.297  0.00  0.00    +0.294 HD
ENDBRANCH   9  37
TORSDOF 4
