REMARK  Name = ZINC53112597
REMARK  6 active torsions:
REMARK  status: ('A' for Active; 'I' for Inactive)
REMARK    1  A    between atoms: C_1  and  C_2
REMARK    2  A    between atoms: C_7  and  C_9
REMARK    3  A    between atoms: C_7  and  N_11
REMARK    4  A    between atoms: C_9  and  O_10
REMARK    5  A    between atoms: C_12  and  C_14
REMARK    6  A    between atoms: C_15  and  N_19
REMARK                            x       y       z     vdW  Elec       q    Type
REMARK                         _______ _______ _______ _____ _____    ______ ____
ROOT
ATOM      1  N   UNL     1      -0.027   1.381   2.574  0.00  0.00    -0.303 N 
ATOM      2  C   UNL     1       1.009   2.243   2.545  0.00  0.00    +0.253 C 
ATOM      3  O   UNL     1       2.151   1.821   2.542  0.00  0.00    -0.270 OA
ATOM      4  H   UNL     1      -0.935   1.716   2.646  0.00  0.00    +0.150 HD
ENDROOT
BRANCH   1  10
ATOM      5  C   UNL     1      -0.246   1.544   0.089  0.00  0.00    +0.007 C 
ATOM      6  C   UNL     1       0.009   0.038   0.009  0.00  0.00    -0.012 C 
ATOM      7  C   UNL     1      -1.323  -0.711   0.090  0.00  0.00    +0.003 C 
ATOM      8  C   UNL     1      -2.013  -0.381   1.415  0.00  0.00    +0.002 C 
ATOM      9  C   UNL     1      -1.115  -0.809   2.578  0.00  0.00    +0.028 C 
ATOM     10  C   UNL     1       0.217  -0.061   2.496  0.00  0.00    +0.058 C 
ATOM     11  C   UNL     1       0.907  -0.391   1.171  0.00  0.00    +0.031 C 
BRANCH  10  12
ATOM     12  C   UNL     1       1.115  -0.489   3.659  0.00  0.00    +0.181 C 
BRANCH  12  13
ATOM     13  O   UNL     1       0.529  -0.069   4.893  0.00  0.00    -0.393 OA
ATOM     14  H   UNL     1       1.045  -0.308   5.675  0.00  0.00    +0.209 HD
ENDBRANCH  12  13
ENDBRANCH  10  12
ENDBRANCH   1  10
BRANCH   2  15
ATOM     15  C   UNL     1       0.769   3.638   2.518  0.00  0.00    +0.094 A 
ATOM     16  C   UNL     1       1.687   4.687   2.481  0.00  0.00    +0.044 A 
ATOM     17  C   UNL     1       1.137   5.955   2.462  0.00  0.00    +0.031 A 
ATOM     18  C   UNL     1      -0.209   6.088   2.480  0.00  0.00    +0.048 A 
ATOM     19  S   UNL     1      -0.785   4.511   2.516  0.00  0.00    -0.090 S 
BRANCH  16  20
ATOM     20  N   UNL     1       3.062   4.472   2.465  0.00  0.00    -0.357 N 
ATOM     21  H   UNL     1       3.412   3.567   2.479  0.00  0.00    +0.142 HD
ATOM     22  H   UNL     1       3.671   5.227   2.439  0.00  0.00    +0.142 HD
ENDBRANCH  16  20
ENDBRANCH   2  15
TORSDOF 5
