REMARK  Name = ZINC50324548
REMARK  8 active torsions:
REMARK  status: ('A' for Active; 'I' for Inactive)
REMARK    1  A    between atoms: C_1  and  C_2
REMARK    2  A    between atoms: C_4  and  C_8
REMARK    3  A    between atoms: C_5  and  C_7
REMARK    4  A    between atoms: C_8  and  C_10
REMARK    5  A    between atoms: C_8  and  N_11
REMARK    6  A    between atoms: C_12  and  C_14
REMARK    7  A    between atoms: C_15  and  N_23
REMARK    8  A    between atoms: C_16  and  C_20
REMARK                            x       y       z     vdW  Elec       q    Type
REMARK                         _______ _______ _______ _____ _____    ______ ____
ROOT
ATOM      1  N   UNL     1      -3.103  -2.609   0.585  0.00  0.00    -0.303 N 
ATOM      2  C   UNL     1      -4.000  -3.372   1.240  0.00  0.00    +0.264 C 
ATOM      3  O   UNL     1      -3.822  -4.572   1.339  0.00  0.00    -0.268 OA
ATOM      4  H   UNL     1      -3.245  -1.653   0.506  0.00  0.00    +0.150 HD
ENDROOT
BRANCH   2   5
ATOM      5  C   UNL     1      -5.190  -2.757   1.833  0.00  0.00    +0.141 A 
ATOM      6  C   UNL     1      -6.201  -3.401   2.541  0.00  0.00    +0.078 A 
ATOM      7  C   UNL     1      -7.104  -2.386   2.896  0.00  0.00    +0.087 A 
ATOM      8  N   UNL     1      -6.644  -1.256   2.427  0.00  0.00    -0.176 NA
ATOM      9  N   UNL     1      -5.532  -1.428   1.808  0.00  0.00    -0.271 N 
ATOM     10  H   UNL     1      -5.014  -0.725   1.386  0.00  0.00    +0.189 HD
BRANCH   7  11
ATOM     11  C   UNL     1      -8.380  -2.567   3.678  0.00  0.00    +0.041 C 
ATOM     12  C   UNL     1      -9.321  -1.366   3.783  0.00  0.00    +0.010 C 
ATOM     13  C   UNL     1      -8.510  -1.812   5.002  0.00  0.00    +0.010 C 
ENDBRANCH   7  11
BRANCH   6  14
ATOM     14  N   UNL     1      -6.296  -4.760   2.834  0.00  0.00    -0.355 N 
ATOM     15  H   UNL     1      -5.605  -5.371   2.534  0.00  0.00    +0.142 HD
ATOM     16  H   UNL     1      -7.054  -5.095   3.339  0.00  0.00    +0.142 HD
ENDBRANCH   6  14
ENDBRANCH   2   5
BRANCH   1  17
ATOM     17  C   UNL     1      -1.912  -3.224  -0.008  0.00  0.00    +0.101 C 
ATOM     18  C   UNL     1      -2.240  -3.712  -1.420  0.00  0.00    +0.033 C 
BRANCH  17  22
ATOM     19  C   UNL     1      -0.117   1.532  -0.303  0.00  0.00    +0.051 C 
ATOM     20  C   UNL     1      -0.066   0.029  -0.210  0.00  0.00    -0.013 A 
ATOM     21  C   UNL     1      -1.089  -0.859  -0.154  0.00  0.00    +0.016 A 
ATOM     22  C   UNL     1      -0.801  -2.208  -0.072  0.00  0.00    -0.017 A 
ATOM     23  C   UNL     1       0.495  -2.604  -0.049  0.00  0.00    -0.008 A 
ATOM     24  S   UNL     1       1.359  -1.046  -0.153  0.00  0.00    -0.098 S 
ATOM     25  C   UNL     1       1.060  -3.999   0.036  0.00  0.00    +0.052 C 
ENDBRANCH  17  22
ENDBRANCH   1  17
TORSDOF 5
