REMARK  Name = ZINC41553605
REMARK  9 active torsions:
REMARK  status: ('A' for Active; 'I' for Inactive)
REMARK    1  A    between atoms: C_1  and  C_2
REMARK    2  A    between atoms: C_2  and  C_3
REMARK    3  A    between atoms: C_2  and  C_4
REMARK    4  A    between atoms: C_2  and  C_5
REMARK    5  A    between atoms: C_11  and  N_13
REMARK    6  A    between atoms: C_14  and  C_16
REMARK    7  A    between atoms: N_18  and  C_19
REMARK    8  A    between atoms: C_24  and  C_25
REMARK    9  A    between atoms: C_25  and  N_26
REMARK                            x       y       z     vdW  Elec       q    Type
REMARK                         _______ _______ _______ _____ _____    ______ ____
ROOT
ATOM      1  C   UNL     1       3.424   3.466  -0.955  0.00  0.00    +0.303 C 
ATOM      2  O   UNL     1       2.460   4.143  -1.246  0.00  0.00    -0.265 OA
ATOM      3  N   UNL     1       4.573   4.059  -0.574  0.00  0.00    -0.277 N 
ATOM      4  H   UNL     1       5.320   3.519  -0.270  0.00  0.00    +0.155 HD
ENDROOT
BRANCH   3   5
ATOM      5  C   UNL     1       4.689   5.450  -0.618  0.00  0.00    +0.039 A 
ATOM      6  C   UNL     1       3.876   6.190  -1.468  0.00  0.00    +0.023 A 
ATOM      7  C   UNL     1       3.994   7.566  -1.509  0.00  0.00    +0.002 A 
ATOM      8  C   UNL     1       4.920   8.206  -0.706  0.00  0.00    +0.000 A 
ATOM      9  C   UNL     1       5.731   7.473   0.141  0.00  0.00    +0.007 A 
ATOM     10  C   UNL     1       5.614   6.098   0.191  0.00  0.00    -0.005 A 
BRANCH  10  11
ATOM     11  C   UNL     1       6.494   5.300   1.119  0.00  0.00    +0.180 C 
BRANCH  11  12
ATOM     12  N   UNL     1       7.673   4.829   0.389  0.00  0.00    -0.267 N 
ATOM     13  C   UNL     1       8.960   5.034   0.742  0.00  0.00    +0.108 A 
ATOM     14  C   UNL     1       9.742   4.441  -0.190  0.00  0.00    +0.041 A 
ATOM     15  C   UNL     1       8.905   3.854  -1.144  0.00  0.00    +0.134 A 
ATOM     16  N   UNL     1       7.665   4.080  -0.795  0.00  0.00    -0.179 NA
ENDBRANCH  11  12
ENDBRANCH  10  11
ENDBRANCH   3   5
BRANCH   1  18
ATOM     17  N   UNL     1       2.189   1.384  -1.399  0.00  0.00    -0.304 N 
ATOM     18  C   UNL     1       3.338   1.976  -1.018  0.00  0.00    +0.300 C 
ATOM     19  O   UNL     1       4.302   1.300  -0.727  0.00  0.00    -0.265 OA
ATOM     20  H   UNL     1       1.418   1.925  -1.632  0.00  0.00    +0.149 HD
BRANCH  17  26
ATOM     21  C   UNL     1       0.648  -0.512  -1.279  0.00  0.00    +0.015 C 
ATOM     22  C   UNL     1       0.559  -2.038  -1.343  0.00  0.00    +0.006 C 
ATOM     23  C   UNL     1       1.070  -2.521  -2.703  0.00  0.00    +0.000 C 
ATOM     24  C   UNL     1       2.525  -2.087  -2.885  0.00  0.00    +0.002 C 
ATOM     25  C   UNL     1       2.614  -0.561  -2.820  0.00  0.00    +0.022 C 
ATOM     26  C   UNL     1       2.104  -0.078  -1.461  0.00  0.00    +0.077 C 
BRANCH  21  28
ATOM     27  C   UNL     1       0.087   1.500   0.091  0.00  0.00    +0.011 C 
ATOM     28  C   UNL     1       0.138  -0.029   0.080  0.00  0.00    -0.033 C 
ATOM     29  C   UNL     1       1.081  -0.515   1.182  0.00  0.00    +0.011 C 
ATOM     30  C   UNL     1      -1.265  -0.588   0.327  0.00  0.00    +0.011 C 
ENDBRANCH  21  28
ENDBRANCH  17  26
ENDBRANCH   1  18
TORSDOF 6
