REMARK  Name = ZINC09542300
REMARK  12 active torsions:
REMARK  status: ('A' for Active; 'I' for Inactive)
REMARK    1  A    between atoms: C_1  and  C_2
REMARK    2  A    between atoms: C_2  and  O_3
REMARK    3  A    between atoms: O_3  and  C_4
REMARK    4  A    between atoms: C_8  and  C_11
REMARK    5  A    between atoms: C_9  and  O_10
REMARK    6  A    between atoms: C_14  and  C_28
REMARK    7  A    between atoms: C_16  and  C_18
REMARK    8  A    between atoms: C_21  and  C_24
REMARK    9  A    between atoms: C_24  and  O_26
REMARK   10  A    between atoms: O_26  and  C_27
REMARK   11  A    between atoms: C_31  and  O_34
REMARK   12  A    between atoms: O_34  and  C_35
REMARK                            x       y       z     vdW  Elec       q    Type
REMARK                         _______ _______ _______ _____ _____    ______ ____
ROOT
ATOM      1  C   UNL     1      -4.959   3.970   0.458  0.00  0.00    -0.028 C 
ATOM      2  C   UNL     1      -3.790   3.067   0.053  0.00  0.00    +0.044 C 
ATOM      3  C   UNL     1      -2.518   3.868   0.044  0.00  0.00    +0.040 C 
ATOM      4  N   UNL     1      -2.497   5.148   0.055  0.00  0.00    -0.299 NA
ATOM      5  C   UNL     1      -3.691   5.985   0.075  0.00  0.00    +0.081 C 
ATOM      6  N   UNL     1      -4.877   5.215  -0.330  0.00  0.00    +0.401 N 
ATOM      7  H   UNL     1      -5.720   5.778  -0.167  0.00  0.00    -0.081 HD
ATOM      8  H   UNL     1      -4.808   4.983  -1.327  0.00  0.00    -0.081 HD
ENDROOT
BRANCH   1  13
ATOM      9  C   UNL     1      -8.006   1.752   0.819  0.00  0.00    +0.162 A 
ATOM     10  C   UNL     1      -8.664   1.999  -0.376  0.00  0.00    +0.049 A 
ATOM     11  C   UNL     1      -8.122   2.879  -1.294  0.00  0.00    +0.004 A 
ATOM     12  C   UNL     1      -6.928   3.519  -1.021  0.00  0.00    +0.006 A 
ATOM     13  C   UNL     1      -6.264   3.274   0.167  0.00  0.00    -0.016 A 
ATOM     14  C   UNL     1      -6.801   2.393   1.091  0.00  0.00    +0.160 A 
BRANCH  14  15
ATOM     15  O   UNL     1      -6.152   2.154   2.262  0.00  0.00    -0.503 OA
ATOM     16  H   UNL     1      -6.403   2.751   2.980  0.00  0.00    +0.292 HD
ENDBRANCH  14  15
BRANCH   9  17
ATOM     17  O   UNL     1      -8.537   0.886   1.723  0.00  0.00    -0.489 OA
BRANCH  17  19
ATOM     18  C   UNL     1     -10.214  -0.668   2.507  0.00  0.00    +0.048 C 
ATOM     19  C   UNL     1      -9.777   0.266   1.377  0.00  0.00    +0.226 C 
ENDBRANCH  17  19
ENDBRANCH   9  17
ENDBRANCH   1  13
BRANCH   5  20
ATOM     20  C   UNL     1      -3.506   7.140  -0.875  0.00  0.00    -0.040 A 
ATOM     21  C   UNL     1      -4.607   7.708  -1.491  0.00  0.00    +0.004 A 
ATOM     22  C   UNL     1      -4.446   8.770  -2.357  0.00  0.00    +0.015 A 
ATOM     23  C   UNL     1      -3.166   9.263  -2.620  0.00  0.00    +0.059 A 
ATOM     24  C   UNL     1      -2.059   8.681  -2.000  0.00  0.00    +0.015 A 
ATOM     25  C   UNL     1      -2.235   7.624  -1.131  0.00  0.00    +0.004 A 
BRANCH  23  26
ATOM     26  C   UNL     1      -2.985  10.395  -3.552  0.00  0.00    +0.339 C 
ATOM     27  O   UNL     1      -1.871  10.822  -3.780  0.00  0.00    -0.245 OA
BRANCH  26  28
ATOM     28  O   UNL     1      -4.055  10.954  -4.149  0.00  0.00    -0.464 OA
ATOM     29  C   UNL     1      -3.802  12.062  -5.053  0.00  0.00    +0.280 C 
ENDBRANCH  26  28
ENDBRANCH  23  26
ENDBRANCH   5  20
BRANCH   3  30
ATOM     30  C   UNL     1      -1.233   3.145   0.029  0.00  0.00    -0.004 A 
ATOM     31  C   UNL     1      -1.215   1.747   0.017  0.00  0.00    +0.013 A 
ATOM     32  C   UNL     1      -0.013   1.076   0.008  0.00  0.00    +0.046 A 
ATOM     33  C   UNL     1       1.182   1.786   0.000  0.00  0.00    +0.120 A 
ATOM     34  C   UNL     1       1.169   3.175   0.007  0.00  0.00    +0.046 A 
ATOM     35  C   UNL     1      -0.029   3.855   0.021  0.00  0.00    +0.013 A 
BRANCH  33  36
ATOM     36  O   UNL     1       2.365   1.120  -0.014  0.00  0.00    -0.495 OA
ATOM     37  C   UNL     1       3.555   1.912  -0.021  0.00  0.00    +0.277 C 
ENDBRANCH  33  36
ENDBRANCH   3  30
TORSDOF 9
