REMARK  Name = ZINC63552081
REMARK  9 active torsions:
REMARK  status: ('A' for Active; 'I' for Inactive)
REMARK    1  A    between atoms: C_1  and  C_2
REMARK    2  A    between atoms: C_3  and  C_8
REMARK    3  A    between atoms: N_10  and  C_11
REMARK    4  A    between atoms: C_16  and  C_17
REMARK    5  A    between atoms: N_19  and  C_20
REMARK    6  A    between atoms: C_20  and  C_21
REMARK    7  A    between atoms: C_21  and  C_22
REMARK    8  A    between atoms: C_25  and  O_31
REMARK    9  A    between atoms: O_31  and  C_32
REMARK                            x       y       z     vdW  Elec       q    Type
REMARK                         _______ _______ _______ _____ _____    ______ ____
ROOT
ATOM      1  C   UNL     1      -6.142  -1.756   0.192  0.00  0.00    +0.246 C 
ATOM      2  O   UNL     1      -5.143  -2.448   0.222  0.00  0.00    -0.270 OA
ATOM      3  N   UNL     1      -7.361  -2.332   0.189  0.00  0.00    -0.311 N 
ATOM      4  H   UNL     1      -8.158  -1.780   0.165  0.00  0.00    +0.149 HD
ENDROOT
BRANCH   1  10
ATOM      5  C   UNL     1      -4.758   0.315   0.058  0.00  0.00    +0.046 A 
ATOM      6  C   UNL     1      -4.657   1.700   0.022  0.00  0.00    +0.024 A 
ATOM      7  C   UNL     1      -5.795   2.478   0.092  0.00  0.00    +0.002 A 
ATOM      8  C   UNL     1      -7.043   1.887   0.199  0.00  0.00    +0.001 A 
ATOM      9  C   UNL     1      -7.163   0.515   0.235  0.00  0.00    +0.015 A 
ATOM     10  C   UNL     1      -6.021  -0.286   0.159  0.00  0.00    +0.058 A 
BRANCH   5  13
ATOM     11  C   UNL     1      -2.501   0.008  -0.605  0.00  0.00    +0.258 C 
ATOM     12  O   UNL     1      -2.528   1.088  -1.167  0.00  0.00    -0.269 OA
ATOM     13  N   UNL     1      -3.612  -0.471  -0.012  0.00  0.00    -0.280 N 
ATOM     14  H   UNL     1      -3.613  -1.365   0.365  0.00  0.00    +0.155 HD
BRANCH  11  17
ATOM     15  C   UNL     1      -0.263   1.068  -1.808  0.00  0.00    +0.087 C 
ATOM     16  C   UNL     1      -0.159  -0.290  -1.162  0.00  0.00    +0.113 C 
ATOM     17  C   UNL     1      -1.260  -0.769  -0.572  0.00  0.00    +0.107 C 
ATOM     18  S   UNL     1      -1.225  -2.335   0.245  0.00  0.00    -0.114 S 
ATOM     19  C   UNL     1       0.345  -3.045  -0.344  0.00  0.00    +0.115 C 
ATOM     20  C   UNL     1       1.393  -1.920  -0.303  0.00  0.00    +0.239 C 
ATOM     21  O   UNL     1       1.023  -0.907  -1.233  0.00  0.00    -0.494 OA
ENDBRANCH  11  17
ENDBRANCH   5  13
ENDBRANCH   1  10
BRANCH   3  22
ATOM     22  C   UNL     1      -7.481  -3.792   0.222  0.00  0.00    +0.109 C 
BRANCH  22  23
ATOM     23  C   UNL     1      -8.961  -4.181   0.210  0.00  0.00    +0.052 C 
BRANCH  23  24
ATOM     24  C   UNL     1      -9.085  -5.683   0.244  0.00  0.00    -0.040 C 
ATOM     25  C   UNL     1      -9.266  -6.460   1.336  0.00  0.00    +0.002 A 
ATOM     26  C   UNL     1      -9.396  -6.153   2.764  0.00  0.00    +0.055 A 
ATOM     27  C   UNL     1      -9.572  -7.163   3.650  0.00  0.00    +0.121 A 
ATOM     28  C   UNL     1      -9.637  -8.509   3.250  0.00  0.00    +0.047 A 
ATOM     29  C   UNL     1      -9.527  -8.890   1.959  0.00  0.00    +0.029 A 
ATOM     30  C   UNL     1      -9.334  -7.878   0.916  0.00  0.00    +0.043 A 
ATOM     31  N   UNL     1      -9.200  -7.974  -0.384  0.00  0.00    -0.380 N 
ATOM     32  C   UNL     1      -9.039  -6.626  -0.938  0.00  0.00    +0.144 C 
ATOM     33  H   UNL     1      -9.210  -8.799  -0.894  0.00  0.00    +0.160 HD
BRANCH  27  34
ATOM     34  O   UNL     1      -9.691  -6.865   4.971  0.00  0.00    -0.495 OA
ATOM     35  C   UNL     1      -9.876  -7.960   5.869  0.00  0.00    +0.277 C 
ENDBRANCH  27  34
ENDBRANCH  23  24
ENDBRANCH  22  23
ENDBRANCH   3  22
TORSDOF 7
