REMARK  Name = ZINC36548162
REMARK  9 active torsions:
REMARK  status: ('A' for Active; 'I' for Inactive)
REMARK    1  A    between atoms: C_4  and  C_7
REMARK    2  A    between atoms: N_9  and  C_10
REMARK    3  A    between atoms: C_10  and  C_11
REMARK    4  A    between atoms: N_13  and  C_14
REMARK    5  A    between atoms: N_13  and  C_21
REMARK    6  A    between atoms: C_21  and  C_23
REMARK    7  A    between atoms: C_21  and  C_30
REMARK    8  A    between atoms: C_26  and  O_29
REMARK    9  A    between atoms: N_32  and  C_33
REMARK                            x       y       z     vdW  Elec       q    Type
REMARK                         _______ _______ _______ _____ _____    ______ ____
ROOT
ATOM      1  C   UNL     1       3.729  -5.358   0.060  0.00  0.00    +0.238 C 
ATOM      2  O   UNL     1       3.601  -5.665   1.227  0.00  0.00    -0.274 OA
ATOM      3  N   UNL     1       4.739  -5.877  -0.666  0.00  0.00    -0.253 N 
ENDROOT
BRANCH   3   4
ATOM      4  C   UNL     1       4.886  -5.523  -2.012  0.00  0.00    +0.056 A 
ATOM      5  C   UNL     1       5.692  -4.449  -2.365  0.00  0.00    +0.025 A 
ATOM      6  C   UNL     1       5.836  -4.102  -3.694  0.00  0.00    +0.002 A 
ATOM      7  C   UNL     1       5.178  -4.824  -4.674  0.00  0.00    +0.002 A 
ATOM      8  C   UNL     1       4.375  -5.894  -4.327  0.00  0.00    +0.022 A 
ATOM      9  C   UNL     1       4.231  -6.250  -2.999  0.00  0.00    +0.062 A 
ATOM     10 CL   UNL     1       3.228  -7.598  -2.564  0.00  0.00    -0.082 Cl
ENDBRANCH   3   4
BRANCH   1  11
ATOM     11  C   UNL     1       2.758  -4.398  -0.577  0.00  0.00    +0.201 C 
BRANCH  11  14
ATOM     12  C   UNL     1       0.788  -3.117   0.067  0.00  0.00    +0.244 C 
ATOM     13  O   UNL     1       0.735  -2.684  -1.068  0.00  0.00    -0.270 OA
ATOM     14  N   UNL     1       1.762  -3.981   0.414  0.00  0.00    -0.303 N 
ATOM     15  H   UNL     1       1.805  -4.327   1.319  0.00  0.00    +0.150 HD
BRANCH  12  19
ATOM     16  C   UNL     1      -2.101  -1.910   2.938  0.00  0.00    +0.000 A 
ATOM     17  C   UNL     1      -2.163  -1.415   1.648  0.00  0.00    +0.001 A 
ATOM     18  C   UNL     1      -1.228  -1.803   0.710  0.00  0.00    +0.013 A 
ATOM     19  C   UNL     1      -0.217  -2.697   1.066  0.00  0.00    +0.037 A 
ATOM     20  C   UNL     1      -0.160  -3.193   2.370  0.00  0.00    +0.013 A 
ATOM     21  C   UNL     1      -1.101  -2.797   3.297  0.00  0.00    +0.001 A 
ENDBRANCH  12  19
ENDBRANCH  11  14
ENDBRANCH   1  11
BRANCH   3  22
ATOM     22  C   UNL     1       5.682  -6.811  -0.047  0.00  0.00    +0.197 C 
BRANCH  22  23
ATOM     23  C   UNL     1       6.379  -6.132   1.105  0.00  0.00    -0.018 A 
ATOM     24  C   UNL     1       6.900  -4.862   0.943  0.00  0.00    +0.009 A 
ATOM     25  C   UNL     1       7.539  -4.237   1.997  0.00  0.00    +0.046 A 
ATOM     26  C   UNL     1       7.657  -4.886   3.218  0.00  0.00    +0.117 A 
ATOM     27  C   UNL     1       7.133  -6.161   3.377  0.00  0.00    +0.046 A 
ATOM     28  C   UNL     1       6.490  -6.779   2.322  0.00  0.00    +0.009 A 
BRANCH  26  29
ATOM     29  O   UNL     1       8.286  -4.274   4.255  0.00  0.00    -0.507 OA
ATOM     30  H   UNL     1       7.699  -3.748   4.816  0.00  0.00    +0.292 HD
ENDBRANCH  26  29
ENDBRANCH  22  23
BRANCH  22  31
ATOM     31  C   UNL     1       6.704  -7.244  -1.067  0.00  0.00    +0.239 C 
ATOM     32  O   UNL     1       7.198  -6.427  -1.815  0.00  0.00    -0.273 OA
ATOM     33  N   UNL     1       7.068  -8.539  -1.148  0.00  0.00    -0.311 N 
ATOM     34  H   UNL     1       6.673  -9.192  -0.550  0.00  0.00    +0.149 HD
BRANCH  33  35
ATOM     35  C   UNL     1       8.061  -8.960  -2.140  0.00  0.00    +0.073 C 
ATOM     36  C   UNL     1       7.366  -9.223  -3.478  0.00  0.00    +0.022 C 
ATOM     37  C   UNL     1       8.403  -9.662  -4.513  0.00  0.00    +0.002 C 
ATOM     38  C   UNL     1       9.090 -10.943  -4.035  0.00  0.00    +0.000 C 
ATOM     39  C   UNL     1       9.785 -10.679  -2.698  0.00  0.00    +0.002 C 
ATOM     40  C   UNL     1       8.748 -10.240  -1.662  0.00  0.00    +0.022 C 
ENDBRANCH  33  35
ENDBRANCH  22  31
ENDBRANCH   3  22
TORSDOF 9
