REMARK  Name = ZINC28953948
REMARK  8 active torsions:
REMARK  status: ('A' for Active; 'I' for Inactive)
REMARK    1  A    between atoms: C_1  and  C_2
REMARK    2  A    between atoms: C_6  and  C_34
REMARK    3  A    between atoms: C_8  and  C_11
REMARK    4  A    between atoms: N_16  and  C_19
REMARK    5  A    between atoms: C_19  and  C_25
REMARK    6  A    between atoms: C_25  and  N_26
REMARK    7  A    between atoms: N_26  and  C_27
REMARK    8  A    between atoms: C_27  and  C_28
REMARK                            x       y       z     vdW  Elec       q    Type
REMARK                         _______ _______ _______ _____ _____    ______ ____
ROOT
ATOM      1  C   UNL     1       4.908   5.464  -3.275  0.00  0.00    +0.221 C 
ATOM      2  O   UNL     1       3.882   6.105  -3.200  0.00  0.00    -0.275 OA
ATOM      3  N   UNL     1       4.872   4.180  -3.682  0.00  0.00    -0.299 N 
ATOM      4  C   UNL     1       3.599   3.537  -4.040  0.00  0.00    +0.123 C 
ATOM      5  C   UNL     1       3.489   2.214  -3.274  0.00  0.00    +0.104 C 
ATOM      6  N   UNL     1       4.688   1.403  -3.529  0.00  0.00    -0.296 NA
ATOM      7  C   UNL     1       5.897   2.068  -3.025  0.00  0.00    +0.104 C 
ATOM      8  C   UNL     1       6.106   3.384  -3.780  0.00  0.00    +0.123 C 
ENDROOT
BRANCH   1  15
ATOM      9  C   UNL     1       7.051   6.678  -7.093  0.00  0.00    +0.109 C 
ATOM     10  C   UNL     1       6.910   7.762  -6.055  0.00  0.00    +0.212 C 
ATOM     11  O   UNL     1       6.742   8.913  -6.399  0.00  0.00    -0.276 OA
ATOM     12  N   UNL     1       6.970   7.452  -4.745  0.00  0.00    -0.300 N 
ATOM     13  C   UNL     1       6.855   8.370  -3.588  0.00  0.00    +0.116 C 
ATOM     14  C   UNL     1       6.018   7.589  -2.552  0.00  0.00    +0.050 C 
ATOM     15  C   UNL     1       6.224   6.103  -2.913  0.00  0.00    +0.101 C 
ATOM     16  C   UNL     1       7.168   6.117  -4.134  0.00  0.00    +0.121 C 
BRANCH  14  17
ATOM     17  C   UNL     1       6.519   7.864  -1.158  0.00  0.00    -0.042 A 
ATOM     18  C   UNL     1       7.845   7.634  -0.842  0.00  0.00    +0.005 A 
ATOM     19  C   UNL     1       8.306   7.892   0.435  0.00  0.00    +0.020 A 
ATOM     20  C   UNL     1       7.438   8.370   1.400  0.00  0.00    +0.041 A 
ATOM     21  C   UNL     1       6.110   8.595   1.085  0.00  0.00    +0.020 A 
ATOM     22  C   UNL     1       5.651   8.342  -0.194  0.00  0.00    +0.005 A 
ATOM     23 CL   UNL     1       8.015   8.687   3.007  0.00  0.00    -0.084 Cl
ENDBRANCH  14  17
ENDBRANCH   1  15
BRANCH   6  24
ATOM     24  C   UNL     1       4.546   0.059  -2.953  0.00  0.00    +0.007 C 
ATOM     25  C   UNL     1       3.432  -0.693  -3.682  0.00  0.00    +0.020 C 
ATOM     26  C   UNL     1       3.285  -2.093  -3.083  0.00  0.00    +0.002 C 
ATOM     27  C   UNL     1       4.602  -2.856  -3.238  0.00  0.00    +0.000 C 
ATOM     28  C   UNL     1       5.717  -2.103  -2.509  0.00  0.00    +0.002 C 
ATOM     29  C   UNL     1       5.864  -0.703  -3.108  0.00  0.00    +0.020 C 
BRANCH  24  30
ATOM     30  C   UNL     1       4.197   0.175  -1.468  0.00  0.00    -0.060 C 
BRANCH  30  31
ATOM     31  N   UNL     1       5.299   0.834  -0.755  0.00  0.00    +0.383 N 
ATOM     32  H   UNL     1       6.191   0.190  -0.783  0.00  0.00    -0.085 HD
ATOM     33  H   UNL     1       5.525   1.796  -1.238  0.00  0.00    -0.085 HD
BRANCH  31  34
ATOM     34  C   UNL     1       4.944   1.084   0.648  0.00  0.00    -0.047 C 
BRANCH  34  35
ATOM     35  C   UNL     1       6.096   1.759   1.346  0.00  0.00    -0.062 A 
ATOM     36  C   UNL     1       6.198   3.141   1.373  0.00  0.00    +0.021 A 
ATOM     37  C   UNL     1       7.272   3.725   2.018  0.00  0.00    +0.111 A 
ATOM     38  N   UNL     1       8.187   2.983   2.610  0.00  0.00    -0.263 NA
ATOM     39  C   UNL     1       8.123   1.666   2.605  0.00  0.00    +0.111 A 
ATOM     40  C   UNL     1       7.080   1.012   1.976  0.00  0.00    +0.021 A 
ENDBRANCH  34  35
ENDBRANCH  31  34
ENDBRANCH  30  31
ENDBRANCH  24  30
ENDBRANCH   6  24
TORSDOF 7
