REMARK  Name = ZINC44876344
REMARK  9 active torsions:
REMARK  status: ('A' for Active; 'I' for Inactive)
REMARK    1  A    between atoms: C_1  and  C_2
REMARK    2  A    between atoms: C_2  and  C_4
REMARK    3  A    between atoms: C_2  and  N_11
REMARK    4  A    between atoms: C_12  and  C_14
REMARK    5  A    between atoms: C_14  and  C_16
REMARK    6  A    between atoms: C_14  and  C_19
REMARK    7  A    between atoms: C_16  and  C_17
REMARK    8  A    between atoms: C_16  and  C_18
REMARK    9  A    between atoms: N_20  and  O_21
REMARK                            x       y       z     vdW  Elec       q    Type
REMARK                         _______ _______ _______ _____ _____    ______ ____
ROOT
ATOM      1  N   UNL     1       0.900  -0.350  -1.241  0.00  0.00    -0.308 N 
ATOM      2  C   UNL     1       0.135  -0.474  -2.343  0.00  0.00    +0.224 C 
ATOM      3  O   UNL     1      -1.040  -0.174  -2.302  0.00  0.00    -0.275 OA
ATOM      4  H   UNL     1       1.820  -0.657  -1.253  0.00  0.00    +0.149 HD
ENDROOT
BRANCH   1   6
ATOM      5  C   UNL     1       0.468   1.772  -0.105  0.00  0.00    +0.033 C 
ATOM      6  C   UNL     1       0.344   0.249  -0.026  0.00  0.00    +0.100 C 
BRANCH   6   7
ATOM      7  C   UNL     1       1.101  -0.255   1.175  0.00  0.00    -0.027 A 
ATOM      8  C   UNL     1       2.475  -0.399   1.115  0.00  0.00    +0.006 A 
ATOM      9  C   UNL     1       3.170  -0.861   2.217  0.00  0.00    +0.015 A 
ATOM     10  C   UNL     1       2.491  -1.179   3.380  0.00  0.00    +0.018 A 
ATOM     11  C   UNL     1       1.117  -1.034   3.439  0.00  0.00    +0.015 A 
ATOM     12  C   UNL     1       0.423  -0.567   2.339  0.00  0.00    +0.006 A 
ATOM     13 BR   UNL     1       3.442  -1.812   4.887  0.00  0.00    -0.050 Br
ENDBRANCH   6   7
ENDBRANCH   1   6
BRANCH   2  14
ATOM     14  C   UNL     1       0.738  -0.986  -3.626  0.00  0.00    +0.144 C 
BRANCH  14  15
ATOM     15  C   UNL     1       0.499  -2.470  -3.736  0.00  0.00    +0.144 C 
ATOM     16  N   UNL     1      -0.517  -2.913  -4.399  0.00  0.00    -0.076 NA
ATOM     17  N   UNL     1       1.366  -3.353  -3.132  0.00  0.00    -0.343 N 
ATOM     18  H   UNL     1       2.129  -3.020  -2.635  0.00  0.00    +0.144 HD
ATOM     19  H   UNL     1       1.212  -4.308  -3.203  0.00  0.00    +0.144 HD
BRANCH  16  20
ATOM     20  O   UNL     1      -0.741  -4.307  -4.502  0.00  0.00    -0.408 OA
ATOM     21  H   UNL     1      -1.526  -4.543  -5.016  0.00  0.00    +0.328 HD
ENDBRANCH  16  20
ENDBRANCH  14  15
BRANCH  14  22
ATOM     22  C   UNL     1       0.087  -0.275  -4.814  0.00  0.00    +0.002 C 
ATOM     23  C   UNL     1       0.279   1.236  -4.672  0.00  0.00    +0.008 C 
ATOM     24  C   UNL     1       0.739  -0.752  -6.114  0.00  0.00    +0.008 C 
ENDBRANCH  14  22
ENDBRANCH   2  14
TORSDOF 6
