REMARK  Name = ZINC10219971
REMARK  8 active torsions:
REMARK  status: ('A' for Active; 'I' for Inactive)
REMARK    1  A    between atoms: C_1  and  C_2
REMARK    2  A    between atoms: C_2  and  C_3
REMARK    3  A    between atoms: C_3  and  C_5
REMARK    4  A    between atoms: C_3  and  N_6
REMARK    5  A    between atoms: C_16  and  S_17
REMARK    6  A    between atoms: S_17  and  C_18
REMARK    7  A    between atoms: C_18  and  C_19
REMARK    8  A    between atoms: C_24  and  C_29
REMARK                            x       y       z     vdW  Elec       q    Type
REMARK                         _______ _______ _______ _____ _____    ______ ____
ROOT
ATOM      1  N   UNL     1      -1.917  10.272  -2.337  0.00  0.00    -0.284 N 
ATOM      2  C   UNL     1      -2.256  11.569  -2.155  0.00  0.00    +0.263 A 
ATOM      3  O   UNL     1      -2.715  12.235  -3.065  0.00  0.00    -0.267 OA
ATOM      4  C   UNL     1      -2.042  12.146  -0.821  0.00  0.00    +0.065 A 
ATOM      5  C   UNL     1      -2.354  13.474  -0.534  0.00  0.00    +0.015 A 
ATOM      6  C   UNL     1      -2.136  13.960   0.725  0.00  0.00    +0.001 A 
ATOM      7  C   UNL     1      -1.608  13.146   1.719  0.00  0.00    +0.002 A 
ATOM      8  C   UNL     1      -1.293  11.841   1.465  0.00  0.00    +0.028 A 
ATOM      9  C   UNL     1      -1.505  11.314   0.187  0.00  0.00    +0.079 A 
ATOM     10  N   UNL     1      -1.208  10.032  -0.106  0.00  0.00    -0.223 NA
ATOM     11  C   UNL     1      -1.407   9.539  -1.304  0.00  0.00    +0.173 A 
ENDROOT
BRANCH   1  12
ATOM     12  C   UNL     1      -2.103   9.648  -3.649  0.00  0.00    +0.089 C 
ATOM     13  C   UNL     1      -1.270  10.395  -4.692  0.00  0.00    +0.031 C 
BRANCH  12  15
ATOM     14  C   UNL     1      -4.401   8.860  -3.065  0.00  0.00    +0.006 C 
ATOM     15  C   UNL     1      -3.582   9.710  -4.038  0.00  0.00    +0.021 C 
ENDBRANCH  12  15
ENDBRANCH   1  12
BRANCH  11  16
ATOM     16  S   UNL     1      -0.990   7.852  -1.596  0.00  0.00    -0.081 S 
BRANCH  16  17
ATOM     17  C   UNL     1      -0.380   7.390   0.044  0.00  0.00    +0.133 C 
BRANCH  17  18
ATOM     18  C   UNL     1       0.046   5.944   0.033  0.00  0.00    +0.059 A 
ATOM     19  C   UNL     1       1.383   5.607   0.018  0.00  0.00    +0.095 A 
ATOM     20  C   UNL     1       1.758   4.263   0.008  0.00  0.00    +0.259 A 
ATOM     21  O   UNL     1       2.940   3.959  -0.005  0.00  0.00    -0.267 OA
ATOM     22  N   UNL     1       0.800   3.288   0.012  0.00  0.00    -0.259 N 
ATOM     23  C   UNL     1       1.010   1.930   0.003  0.00  0.00    +0.033 A 
ATOM     24  C   UNL     1      -0.013   1.076   0.008  0.00  0.00    +0.070 A 
ATOM     25  S   UNL     1      -1.414   2.183   0.019  0.00  0.00    -0.057 S 
ATOM     26  C   UNL     1      -0.502   3.711   0.026  0.00  0.00    +0.180 A 
ATOM     27  N   UNL     1      -0.861   4.971   0.036  0.00  0.00    -0.227 NA
ATOM     28  C   UNL     1       2.420   1.398  -0.014  0.00  0.00    +0.064 C 
ENDBRANCH  17  18
ENDBRANCH  16  17
ENDBRANCH  11  16
TORSDOF 5
