REMARK  Name = ZINC60878758
REMARK  4 active torsions:
REMARK  status: ('A' for Active; 'I' for Inactive)
REMARK    1  A    between atoms: N_7  and  C_12
REMARK    2  A    between atoms: C_12  and  C_13
REMARK    3  A    between atoms: N_15  and  C_16
REMARK    4  A    between atoms: C_18  and  N_23
REMARK                            x       y       z     vdW  Elec       q    Type
REMARK                         _______ _______ _______ _____ _____    ______ ____
ROOT
ATOM      1  C   UNL     1       0.040  -2.853  -2.009  0.00  0.00    +0.235 C 
ATOM      2  O   UNL     1       0.996  -2.424  -2.619  0.00  0.00    -0.274 OA
ATOM      3  N   UNL     1      -0.992  -3.406  -2.676  0.00  0.00    -0.282 N 
ATOM      4  H   UNL     1      -1.791  -3.675  -2.197  0.00  0.00    +0.155 HD
ENDROOT
BRANCH   3   5
ATOM      5  C   UNL     1      -0.911  -3.592  -4.062  0.00  0.00    +0.071 A 
ATOM      6  C   UNL     1       0.308  -3.899  -4.652  0.00  0.00    +0.059 A 
ATOM      7  C   UNL     1       0.385  -4.083  -6.019  0.00  0.00    +0.128 A 
ATOM      8  C   UNL     1      -0.750  -3.961  -6.801  0.00  0.00    +0.035 A 
ATOM      9  C   UNL     1      -1.965  -3.655  -6.218  0.00  0.00    +0.042 A 
ATOM     10  C   UNL     1      -2.051  -3.476  -4.849  0.00  0.00    +0.145 A 
ATOM     11  F   UNL     1      -3.240  -3.183  -4.278  0.00  0.00    -0.204 F 
BRANCH   7  12
ATOM     12  N   UNL     1       1.684  -4.409  -6.649  0.00  0.00    +0.056 N 
ATOM     13  O   UNL     1       2.677  -4.515  -5.966  0.00  0.00    -0.126 OA
ATOM     14  O   UNL     1       1.753  -4.570  -7.845  0.00  0.00    -0.126 OA
ENDBRANCH   7  12
ENDBRANCH   3   5
BRANCH   1  15
ATOM     15  C   UNL     1       0.006  -2.770  -0.505  0.00  0.00    +0.209 C 
BRANCH  15  22
ATOM     16  C   UNL     1       3.326  -5.135   0.251  0.00  0.00    +0.002 A 
ATOM     17  C   UNL     1       4.321  -4.705   1.110  0.00  0.00    +0.001 A 
ATOM     18  C   UNL     1       4.300  -3.411   1.597  0.00  0.00    +0.016 A 
ATOM     19  C   UNL     1       3.283  -2.550   1.223  0.00  0.00    +0.030 A 
ATOM     20  C   UNL     1       2.273  -2.978   0.358  0.00  0.00    +0.050 A 
ATOM     21  C   UNL     1       2.309  -4.281  -0.125  0.00  0.00    +0.024 A 
ATOM     22  N   UNL     1       1.235  -2.133  -0.023  0.00  0.00    -0.261 N 
ATOM     23  C   UNL     1       1.250  -0.803   0.006  0.00  0.00    +0.230 C 
ATOM     24  O   UNL     1       0.262  -0.209  -0.371  0.00  0.00    -0.274 OA
ATOM     25  C   UNL     1       2.426   0.006   0.483  0.00  0.00    +0.170 C 
ATOM     26  S   UNL     1       3.247  -0.894   1.833  0.00  0.00    -0.114 S 
ENDBRANCH  15  22
ENDBRANCH   1  15
TORSDOF 4
