REMARK  Name = ZINC39574523
REMARK  14 active torsions:
REMARK  status: ('A' for Active; 'I' for Inactive)
REMARK    1  A    between atoms: C_1  and  C_2
REMARK    2  A    between atoms: C_2  and  C_3
REMARK    3  A    between atoms: C_2  and  C_4
REMARK    4  A    between atoms: N_6  and  C_7
REMARK    5  A    between atoms: C_9  and  O_34
REMARK    6  A    between atoms: C_10  and  O_32
REMARK    7  A    between atoms: C_12  and  C_13
REMARK    8  A    between atoms: C_13  and  O_15
REMARK    9  A    between atoms: O_15  and  C_16
REMARK   10  A    between atoms: C_16  and  C_17
REMARK   11  A    between atoms: C_19  and  O_20
REMARK   12  A    between atoms: C_29  and  C_31
REMARK   13  A    between atoms: O_32  and  C_33
REMARK   14  A    between atoms: O_34  and  C_35
REMARK                            x       y       z     vdW  Elec       q    Type
REMARK                         _______ _______ _______ _____ _____    ______ ____
ROOT
ATOM      1  C   UNL     1      -4.972  -0.188  -3.162  0.00  0.00    +0.341 C 
ATOM      2  O   UNL     1      -3.764  -0.144  -3.040  0.00  0.00    -0.245 OA
ENDROOT
BRANCH   1   8
ATOM      3  C   UNL     1      -5.192  -1.362  -0.975  0.00  0.00    +0.051 A 
ATOM      4  C   UNL     1      -5.969  -1.998  -0.019  0.00  0.00    +0.073 A 
ATOM      5  C   UNL     1      -7.331  -2.151  -0.222  0.00  0.00    +0.163 A 
ATOM      6  C   UNL     1      -7.928  -1.666  -1.387  0.00  0.00    +0.162 A 
ATOM      7  C   UNL     1      -7.165  -1.032  -2.344  0.00  0.00    +0.066 A 
ATOM      8  C   UNL     1      -5.790  -0.869  -2.146  0.00  0.00    +0.084 A 
BRANCH   3  11
ATOM      9  C   UNL     1      -3.215  -1.846   0.249  0.00  0.00    +0.220 C 
ATOM     10  O   UNL     1      -3.874  -2.489   1.039  0.00  0.00    -0.275 OA
ATOM     11  N   UNL     1      -3.821  -1.208  -0.772  0.00  0.00    -0.284 N 
ATOM     12  H   UNL     1      -3.303  -0.642  -1.365  0.00  0.00    +0.155 HD
BRANCH   9  14
ATOM     13  C   UNL     1      -1.310  -0.297   0.593  0.00  0.00    +0.017 C 
ATOM     14  C   UNL     1      -1.720  -1.760   0.410  0.00  0.00    +0.069 C 
ATOM     15  C   UNL     1      -1.292  -2.567   1.638  0.00  0.00    +0.017 C 
ENDBRANCH   9  14
ENDBRANCH   3  11
BRANCH   6  16
ATOM     16  O   UNL     1      -9.267  -1.820  -1.578  0.00  0.00    -0.491 OA
ATOM     17  C   UNL     1      -9.813  -1.301  -2.792  0.00  0.00    +0.277 C 
ENDBRANCH   6  16
BRANCH   5  18
ATOM     18  O   UNL     1      -8.088  -2.775   0.717  0.00  0.00    -0.491 OA
ATOM     19  C   UNL     1      -7.414  -3.248   1.885  0.00  0.00    +0.277 C 
ENDBRANCH   5  18
ENDBRANCH   1   8
BRANCH   1  20
ATOM     20  O   UNL     1      -5.564   0.388  -4.228  0.00  0.00    -0.456 OA
BRANCH  20  21
ATOM     21  C   UNL     1      -4.723   1.126  -5.116  0.00  0.00    +0.269 C 
BRANCH  21  22
ATOM     22  C   UNL     1      -5.568   1.793  -6.170  0.00  0.00    +0.007 A 
ATOM     23  C   UNL     1      -6.490   2.762  -5.827  0.00  0.00    +0.095 A 
ATOM     24  C   UNL     1      -7.259   3.365  -6.811  0.00  0.00    +0.285 A 
ATOM     25  O   UNL     1      -7.130   3.029  -8.099  0.00  0.00    -0.425 OA
ATOM     26  C   UNL     1      -6.245   2.088  -8.490  0.00  0.00    +0.141 A 
ATOM     27  C   UNL     1      -5.431   1.445  -7.531  0.00  0.00    +0.024 A 
ATOM     28  C   UNL     1      -4.504   0.469  -7.935  0.00  0.00    +0.014 A 
ATOM     29  C   UNL     1      -4.387   0.147  -9.250  0.00  0.00    +0.024 A 
ATOM     30  C   UNL     1      -5.189   0.786 -10.212  0.00  0.00    +0.037 A 
ATOM     31  C   UNL     1      -6.122   1.750  -9.825  0.00  0.00    +0.070 A 
ATOM     32  N   UNL     1      -5.062   0.455 -11.526  0.00  0.00    -0.286 N 
ATOM     33  C   UNL     1      -5.575   1.238 -12.456  0.00  0.00    +0.214 C 
ATOM     34  O   UNL     1      -6.043   2.320 -12.150  0.00  0.00    -0.276 OA
ATOM     35  C   UNL     1      -5.583   0.793 -13.895  0.00  0.00    +0.109 C 
ATOM     36  H   UNL     1      -4.595  -0.356 -11.779  0.00  0.00    +0.155 HD
BRANCH  24  37
ATOM     37  O   UNL     1      -8.155   4.309  -6.463  0.00  0.00    -0.480 OA
ATOM     38  H   UNL     1      -8.648   4.677  -7.208  0.00  0.00    +0.295 HD
ENDBRANCH  24  37
ENDBRANCH  21  22
ENDBRANCH  20  21
ENDBRANCH   1  20
TORSDOF 9
