REMARK  Name = ZINC08262793
REMARK  4 active torsions:
REMARK  status: ('A' for Active; 'I' for Inactive)
REMARK    1  A    between atoms: N_12  and  C_16
REMARK    2  A    between atoms: C_16  and  C_17
REMARK    3  A    between atoms: N_19  and  C_20
REMARK    4  A    between atoms: C_21  and  C_25
REMARK                            x       y       z     vdW  Elec       q    Type
REMARK                         _______ _______ _______ _____ _____    ______ ____
ROOT
ATOM      1  C   UNL     1       1.209  -0.678  -0.013  0.00  0.00    +0.000 A 
ATOM      2  C   UNL     1       0.002  -0.004   0.002  0.00  0.00    +0.000 A 
ATOM      3  C   UNL     1      -0.017   1.376   0.010  0.00  0.00    +0.006 A 
ATOM      4  C   UNL     1       1.169   2.092   0.002  0.00  0.00    -0.012 A 
ATOM      5  C   UNL     1       2.378   1.417  -0.009  0.00  0.00    -0.042 A 
ATOM      6  C   UNL     1       2.394   0.032  -0.018  0.00  0.00    +0.004 A 
ATOM      7  C   UNL     1       3.521   2.410  -0.004  0.00  0.00    +0.038 C 
ATOM      8  C   UNL     1       2.889   3.756  -0.427  0.00  0.00    +0.045 C 
ATOM      9  C   UNL     1       1.427   3.575  -0.001  0.00  0.00    +0.138 C 
ATOM     10  C   UNL     1       1.171   4.187   1.351  0.00  0.00    +0.251 C 
ATOM     11  O   UNL     1       1.707   3.903   2.401  0.00  0.00    -0.272 OA
ATOM     12  N   UNL     1       0.217   5.120   1.145  0.00  0.00    -0.215 N 
ATOM     13  C   UNL     1      -0.153   5.170  -0.142  0.00  0.00    +0.310 C 
ATOM     14  O   UNL     1      -0.997   5.930  -0.574  0.00  0.00    -0.252 OA
ATOM     15  N   UNL     1       0.517   4.282  -0.904  0.00  0.00    -0.281 N 
ATOM     16  H   UNL     1       0.416   4.139  -1.858  0.00  0.00    +0.152 HD
ENDROOT
BRANCH  12  17
ATOM     17  C   UNL     1      -0.344   5.971   2.196  0.00  0.00    +0.214 C 
BRANCH  17  18
ATOM     18  C   UNL     1      -1.542   5.291   2.808  0.00  0.00    +0.236 C 
ATOM     19  O   UNL     1      -1.892   4.202   2.405  0.00  0.00    -0.274 OA
ATOM     20  N   UNL     1      -2.224   5.892   3.803  0.00  0.00    -0.278 N 
ATOM     21  H   UNL     1      -1.944   6.763   4.125  0.00  0.00    +0.155 HD
BRANCH  20  22
ATOM     22  C   UNL     1      -3.326   5.266   4.365  0.00  0.00    +0.084 A 
ATOM     23  C   UNL     1      -4.145   5.718   5.393  0.00  0.00    +0.065 A 
ATOM     24  C   UNL     1      -5.235   4.856   5.782  0.00  0.00    +0.022 A 
ATOM     25  C   UNL     1      -5.357   3.687   5.126  0.00  0.00    +0.048 A 
ATOM     26  S   UNL     1      -4.010   3.727   3.963  0.00  0.00    -0.081 S 
BRANCH  23  27
ATOM     27  C   UNL     1      -3.916   7.011   6.046  0.00  0.00    +0.244 C 
ATOM     28  O   UNL     1      -2.990   7.716   5.692  0.00  0.00    -0.270 OA
ATOM     29  N   UNL     1      -4.731   7.417   7.040  0.00  0.00    -0.325 N 
ATOM     30  H   UNL     1      -5.470   6.855   7.322  0.00  0.00    +0.145 HD
ATOM     31  H   UNL     1      -4.580   8.272   7.472  0.00  0.00    +0.145 HD
ENDBRANCH  23  27
ENDBRANCH  20  22
ENDBRANCH  17  18
ENDBRANCH  12  17
TORSDOF 4
