REMARK  Name = ZINC40588477
REMARK  5 active torsions:
REMARK  status: ('A' for Active; 'I' for Inactive)
REMARK    1  A    between atoms: C_1  and  C_2
REMARK    2  A    between atoms: C_3  and  N_9
REMARK    3  A    between atoms: C_11  and  N_24
REMARK    4  A    between atoms: C_12  and  N_16
REMARK    5  A    between atoms: N_16  and  C_17
REMARK                            x       y       z     vdW  Elec       q    Type
REMARK                         _______ _______ _______ _____ _____    ______ ____
ROOT
ATOM      1  N   UNL     1      -0.058   0.011  -2.417  0.00  0.00    -0.297 N 
ATOM      2  C   UNL     1       0.068  -0.673  -3.617  0.00  0.00    +0.159 A 
ATOM      3  C   UNL     1       0.169   0.022  -4.819  0.00  0.00    +0.206 A 
ATOM      4  C   UNL     1       0.294  -0.710  -5.995  0.00  0.00    +0.159 A 
ATOM      5  N   UNL     1       0.313  -2.041  -5.929  0.00  0.00    -0.218 NA
ATOM      6  C   UNL     1       0.215  -2.662  -4.771  0.00  0.00    +0.225 A 
ATOM      7  N   UNL     1       0.101  -2.004  -3.635  0.00  0.00    -0.218 NA
ATOM      8  H   UNL     1      -0.166   0.976  -2.417  0.00  0.00    +0.154 HD
ENDROOT
BRANCH   1  11
ATOM      9  C   UNL     1      -1.339   1.179  -0.160  0.00  0.00    +0.047 C 
ATOM     10  C   UNL     1      -0.644  -0.155  -0.080  0.00  0.00    -0.011 A 
ATOM     11  C   UNL     1      -0.031  -0.688  -1.207  0.00  0.00    +0.037 A 
ATOM     12  C   UNL     1       0.609  -1.919  -1.129  0.00  0.00    +0.023 A 
ATOM     13  C   UNL     1       0.634  -2.608   0.068  0.00  0.00    +0.003 A 
ATOM     14  C   UNL     1       0.023  -2.076   1.188  0.00  0.00    +0.020 A 
ATOM     15  C   UNL     1      -0.611  -0.848   1.115  0.00  0.00    +0.046 A 
ATOM     16 CL   UNL     1      -1.371  -0.180   2.526  0.00  0.00    -0.083 Cl
ENDBRANCH   1  11
BRANCH   3  17
ATOM     17  N   UNL     1       0.143   1.502  -4.845  0.00  0.00    +0.063 N 
ATOM     18  O   UNL     1       1.174   2.127  -4.756  0.00  0.00    -0.126 OA
ATOM     19  O   UNL     1      -0.910   2.086  -4.954  0.00  0.00    -0.126 OA
ENDBRANCH   3  17
BRANCH   4  20
ATOM     20  N   UNL     1       0.397  -0.065  -7.218  0.00  0.00    -0.297 N 
ATOM     21  H   UNL     1       0.468   0.902  -7.252  0.00  0.00    +0.154 HD
BRANCH  20  22
ATOM     22  C   UNL     1       0.399  -0.808  -8.403  0.00  0.00    +0.047 A 
ATOM     23  C   UNL     1      -0.194  -2.063  -8.438  0.00  0.00    +0.024 A 
ATOM     24  C   UNL     1      -0.191  -2.794  -9.610  0.00  0.00    +0.002 A 
ATOM     25  C   UNL     1       0.401  -2.278 -10.748  0.00  0.00    +0.001 A 
ATOM     26  C   UNL     1       0.993  -1.029 -10.717  0.00  0.00    +0.017 A 
ATOM     27  C   UNL     1       0.988  -0.289  -9.550  0.00  0.00    +0.039 A 
ATOM     28 BR   UNL     1       1.791   1.423  -9.510  0.00  0.00    -0.048 Br
ENDBRANCH  20  22
ENDBRANCH   4  20
TORSDOF 4
