REMARK  Name = ZINC20751429
REMARK  7 active torsions:
REMARK  status: ('A' for Active; 'I' for Inactive)
REMARK    1  A    between atoms: C_1  and  O_2
REMARK    2  A    between atoms: O_2  and  C_3
REMARK    3  A    between atoms: C_6  and  N_9
REMARK    4  A    between atoms: N_9  and  S_10
REMARK    5  A    between atoms: S_10  and  C_13
REMARK    6  A    between atoms: C_26  and  C_29
REMARK    7  A    between atoms: C_38  and  O_39
REMARK                            x       y       z     vdW  Elec       q    Type
REMARK                         _______ _______ _______ _____ _____    ______ ____
ROOT
ATOM      1  C   UNL     1       2.719   0.239   0.096  0.00  0.00    +0.109 A 
ATOM      2  C   UNL     1       1.423  -0.241   0.150  0.00  0.00    +0.030 A 
ATOM      3  C   UNL     1       0.364   0.635   0.270  0.00  0.00    +0.025 A 
ATOM      4  C   UNL     1       0.590   2.005   0.337  0.00  0.00    +0.031 A 
ATOM      5  C   UNL     1       1.905   2.482   0.296  0.00  0.00    -0.018 A 
ATOM      6  C   UNL     1       2.956   1.599   0.169  0.00  0.00    +0.034 A 
ATOM      7  C   UNL     1       2.105   3.943   0.411  0.00  0.00    +0.049 C 
ATOM      8  C   UNL     1       3.290   4.621  -0.174  0.00  0.00    -0.023 C 
ATOM      9  C   UNL     1       2.959   5.846  -0.525  0.00  0.00    -0.030 C 
ATOM     10  C   UNL     1       1.470   6.077  -0.261  0.00  0.00    +0.033 C 
ATOM     11  C   UNL     1       0.921   4.645  -0.319  0.00  0.00    +0.029 C 
ATOM     12  C   UNL     1      -0.309   4.340   0.518  0.00  0.00    +0.109 C 
ATOM     13  N   UNL     1      -0.502   2.877   0.424  0.00  0.00    -0.336 N 
ATOM     14  H   UNL     1      -1.518   2.455   0.422  0.00  0.00    +0.147 HD
ENDROOT
BRANCH  12  15
ATOM     15  C   UNL     1      -1.509   5.060  -0.040  0.00  0.00    +0.022 A 
ATOM     16  C   UNL     1      -2.015   6.198   0.610  0.00  0.00    -0.009 A 
ATOM     17  C   UNL     1      -1.422   6.690   1.785  0.00  0.00    +0.009 A 
ATOM     18  C   UNL     1      -1.939   7.795   2.389  0.00  0.00    +0.001 A 
ATOM     19  C   UNL     1      -3.050   8.449   1.858  0.00  0.00    +0.001 A 
ATOM     20  C   UNL     1      -3.650   8.001   0.722  0.00  0.00    +0.008 A 
ATOM     21  C   UNL     1      -3.145   6.863   0.071  0.00  0.00    -0.017 A 
ATOM     22  C   UNL     1      -3.740   6.372  -1.105  0.00  0.00    +0.012 A 
ATOM     23  C   UNL     1      -3.227   5.268  -1.710  0.00  0.00    +0.046 A 
ATOM     24  C   UNL     1      -2.108   4.613  -1.183  0.00  0.00    +0.122 A 
BRANCH  24  25
ATOM     25  O   UNL     1      -1.615   3.516  -1.814  0.00  0.00    -0.506 OA
ATOM     26  H   UNL     1      -2.091   3.150  -2.735  0.00  0.00    +0.292 HD
ENDBRANCH  24  25
ENDBRANCH  12  15
BRANCH   1  27
ATOM     27  S   UNL     1       4.068  -0.883  -0.066  0.00  0.00    +0.072 S 
ATOM     28  O   UNL     1       5.233  -0.178   0.338  0.00  0.00    -0.150 OA
ATOM     29  O   UNL     1       3.661  -2.098   0.549  0.00  0.00    -0.150 OA
BRANCH  27  30
ATOM     30  N   UNL     1       4.245  -1.206  -1.680  0.00  0.00    -0.216 N 
ATOM     31  H   UNL     1       4.094  -2.228  -2.057  0.00  0.00    +0.174 HD
BRANCH  30  35
ATOM     32  C   UNL     1       5.266   1.857  -4.317  0.00  0.00    +0.120 A 
ATOM     33  C   UNL     1       6.222   1.333  -3.461  0.00  0.00    +0.047 A 
ATOM     34  C   UNL     1       5.885   0.318  -2.587  0.00  0.00    +0.028 A 
ATOM     35  C   UNL     1       4.588  -0.177  -2.566  0.00  0.00    +0.048 A 
ATOM     36  C   UNL     1       3.632   0.344  -3.428  0.00  0.00    +0.028 A 
ATOM     37  C   UNL     1       3.970   1.363  -4.297  0.00  0.00    +0.047 A 
BRANCH  32  39
ATOM     38  C   UNL     1       4.564   3.348  -6.032  0.00  0.00    +0.277 C 
ATOM     39  O   UNL     1       5.599   2.855  -5.178  0.00  0.00    -0.495 OA
ENDBRANCH  32  39
ENDBRANCH  30  35
ENDBRANCH  27  30
ENDBRANCH   1  27
TORSDOF 6
