REMARK  Name = ZINC33121249
REMARK  12 active torsions:
REMARK  status: ('A' for Active; 'I' for Inactive)
REMARK    1  A    between atoms: C_1  and  C_2
REMARK    2  A    between atoms: C_2  and  C_3
REMARK    3  A    between atoms: C_3  and  C_5
REMARK    4  A    between atoms: C_3  and  N_6
REMARK    5  A    between atoms: C_7  and  C_9
REMARK    6  A    between atoms: C_11  and  N_21
REMARK    7  A    between atoms: C_14  and  N_15
REMARK    8  A    between atoms: N_21  and  S_22
REMARK    9  A    between atoms: S_22  and  C_25
REMARK   10  A    between atoms: C_27  and  C_33
REMARK   11  A    between atoms: C_28  and  C_32
REMARK   12  A    between atoms: C_30  and  C_31
REMARK                            x       y       z     vdW  Elec       q    Type
REMARK                         _______ _______ _______ _____ _____    ______ ____
ROOT
ATOM      1  C   UNL     1       1.122  -0.650  -3.132  0.00  0.00    +0.059 A 
ATOM      2  C   UNL     1       2.467  -0.991  -3.296  0.00  0.00    +0.039 A 
ATOM      3  C   UNL     1       2.898  -1.542  -4.489  0.00  0.00    +0.049 A 
ATOM      4  C   UNL     1       1.998  -1.748  -5.530  0.00  0.00    +0.026 A 
ATOM      5  C   UNL     1       0.669  -1.410  -5.380  0.00  0.00    +0.026 A 
ATOM      6  C   UNL     1       0.220  -0.861  -4.185  0.00  0.00    +0.042 A 
ENDROOT
BRANCH   6   7
ATOM      7  N   UNL     1      -1.121  -0.521  -4.035  0.00  0.00    -0.333 N 
ATOM      8  C   UNL     1      -1.530   0.468  -5.042  0.00  0.00    +0.086 C 
ATOM      9  C   UNL     1      -2.985   0.874  -4.793  0.00  0.00    -0.063 C 
ATOM     10  N   UNL     1      -3.841  -0.319  -4.852  0.00  0.00    +0.381 N 
ATOM     11  C   UNL     1      -3.431  -1.308  -3.845  0.00  0.00    -0.063 C 
ATOM     12  C   UNL     1      -1.977  -1.714  -4.094  0.00  0.00    +0.086 C 
ATOM     13  H   UNL     1      -4.885  -0.031  -4.662  0.00  0.00    -0.086 HD
ATOM     14  H   UNL     1      -3.763  -0.777  -5.849  0.00  0.00    -0.086 HD
ENDBRANCH   6   7
BRANCH   1  16
ATOM     15  N   UNL     1       1.499   0.038  -0.817  0.00  0.00    -0.309 N 
ATOM     16  C   UNL     1       0.654  -0.067  -1.861  0.00  0.00    +0.246 C 
ATOM     17  O   UNL     1      -0.494   0.319  -1.756  0.00  0.00    -0.270 OA
ATOM     18  H   UNL     1       2.538  -0.311  -0.912  0.00  0.00    +0.149 HD
BRANCH  15  19
ATOM     19  C   UNL     1       1.035   0.618   0.446  0.00  0.00    +0.070 C 
ATOM     20  C   UNL     1       1.156   2.142   0.383  0.00  0.00    +0.028 C 
BRANCH  19  22
ATOM     21  C   UNL     1       1.673  -1.422   1.739  0.00  0.00    +0.005 C 
ATOM     22  C   UNL     1       1.891   0.085   1.597  0.00  0.00    +0.018 C 
ENDBRANCH  19  22
ENDBRANCH  15  19
ENDBRANCH   1  16
BRANCH   3  23
ATOM     23  N   UNL     1       4.245  -1.889  -4.652  0.00  0.00    -0.216 N 
ATOM     24  H   UNL     1       4.768  -2.449  -3.864  0.00  0.00    +0.174 HD
BRANCH  23  25
ATOM     25  S   UNL     1       5.050  -1.454  -6.032  0.00  0.00    +0.073 S 
ATOM     26  O   UNL     1       6.404  -1.846  -5.853  0.00  0.00    -0.150 OA
ATOM     27  O   UNL     1       4.263  -1.912  -7.123  0.00  0.00    -0.150 OA
BRANCH  25  28
ATOM     28  C   UNL     1       5.041   0.306  -6.108  0.00  0.00    +0.112 A 
ATOM     29  C   UNL     1       4.366   0.951  -7.128  0.00  0.00    +0.032 A 
ATOM     30  C   UNL     1       4.355   2.332  -7.185  0.00  0.00    -0.046 A 
ATOM     31  C   UNL     1       5.028   3.068  -6.228  0.00  0.00    -0.047 A 
ATOM     32  C   UNL     1       5.707   2.424  -5.212  0.00  0.00    +0.009 A 
ATOM     33  C   UNL     1       5.714   1.043  -5.152  0.00  0.00    -0.024 A 
ATOM     34  C   UNL     1       6.455   0.340  -4.044  0.00  0.00    +0.046 C 
ATOM     35  C   UNL     1       5.020   4.574  -6.293  0.00  0.00    +0.044 C 
ATOM     36  C   UNL     1       3.614   3.034  -8.294  0.00  0.00    +0.044 C 
ENDBRANCH  25  28
ENDBRANCH  23  25
ENDBRANCH   3  23
TORSDOF 7
