REMARK  Name = ZINC39880224
REMARK  7 active torsions:
REMARK  status: ('A' for Active; 'I' for Inactive)
REMARK    1  A    between atoms: C_1  and  C_2
REMARK    2  A    between atoms: C_6  and  N_8
REMARK    3  A    between atoms: C_9  and  C_25
REMARK    4  A    between atoms: C_16  and  C_24
REMARK    5  A    between atoms: C_28  and  O_31
REMARK    6  A    between atoms: O_31  and  C_32
REMARK    7  A    between atoms: C_32  and  C_33
REMARK                            x       y       z     vdW  Elec       q    Type
REMARK                         _______ _______ _______ _____ _____    ______ ____
ROOT
ATOM      1  N   UNL     1       0.051  -2.797   2.391  0.00  0.00    -0.253 N 
ATOM      2  C   UNL     1       0.076  -4.262   2.534  0.00  0.00    +0.150 C 
ATOM      3  C   UNL     1       0.081  -4.528   4.003  0.00  0.00    +0.072 A 
ATOM      4  C   UNL     1       0.094  -5.785   4.757  0.00  0.00    +0.199 A 
ATOM      5  O   UNL     1       0.280  -6.872   4.239  0.00  0.00    -0.287 OA
ATOM      6  C   UNL     1      -0.140  -5.608   6.213  0.00  0.00    +0.065 A 
ATOM      7  C   UNL     1      -0.355  -6.715   7.034  0.00  0.00    +0.018 A 
ATOM      8  C   UNL     1      -0.574  -6.534   8.371  0.00  0.00    -0.050 A 
ATOM      9  C   UNL     1      -0.583  -5.256   8.911  0.00  0.00    +0.007 A 
ATOM     10  C   UNL     1      -0.371  -4.152   8.116  0.00  0.00    +0.047 A 
ATOM     11  C   UNL     1      -0.143  -4.310   6.749  0.00  0.00    +0.139 A 
ATOM     12  O   UNL     1       0.073  -3.213   5.988  0.00  0.00    -0.450 OA
ATOM     13  C   UNL     1       0.066  -3.322   4.645  0.00  0.00    +0.199 A 
ATOM     14  C   UNL     1       0.050  -2.257   3.627  0.00  0.00    +0.287 C 
ATOM     15  O   UNL     1       0.036  -1.066   3.866  0.00  0.00    -0.266 OA
ATOM     16  C   UNL     1      -0.806  -7.727   9.262  0.00  0.00    +0.044 C 
ENDROOT
BRANCH   1  22
ATOM     17  C   UNL     1      -0.018   1.503   0.010  0.00  0.00    +0.044 C 
ATOM     18  C   UNL     1       0.002  -0.004   0.002  0.00  0.00    -0.049 A 
ATOM     19  C   UNL     1       0.006  -0.688  -1.200  0.00  0.00    +0.003 A 
ATOM     20  C   UNL     1       0.024  -2.071  -1.212  0.00  0.00    +0.002 A 
ATOM     21  C   UNL     1       0.039  -2.773  -0.023  0.00  0.00    +0.023 A 
ATOM     22  C   UNL     1       0.036  -2.089   1.186  0.00  0.00    +0.038 A 
ATOM     23  C   UNL     1       0.023  -0.700   1.194  0.00  0.00    +0.027 A 
ENDBRANCH   1  22
BRANCH   2  24
ATOM     24  C   UNL     1       1.321  -4.825   1.897  0.00  0.00    -0.022 A 
ATOM     25  C   UNL     1       2.529  -4.167   2.043  0.00  0.00    +0.009 A 
ATOM     26  C   UNL     1       3.671  -4.680   1.461  0.00  0.00    +0.046 A 
ATOM     27  C   UNL     1       3.607  -5.857   0.729  0.00  0.00    +0.121 A 
ATOM     28  C   UNL     1       2.394  -6.516   0.585  0.00  0.00    +0.046 A 
ATOM     29  C   UNL     1       1.256  -6.001   1.174  0.00  0.00    +0.009 A 
BRANCH  27  30
ATOM     30  O   UNL     1       4.729  -6.364   0.155  0.00  0.00    -0.483 OA
BRANCH  30  31
ATOM     31  C   UNL     1       4.588  -7.580  -0.583  0.00  0.00    +0.324 C 
BRANCH  31  32
ATOM     32  C   UNL     1       5.927  -7.986  -1.143  0.00  0.00    +0.248 C 
ATOM     33  O   UNL     1       6.906  -7.302  -0.930  0.00  0.00    -0.272 OA
ATOM     34  N   UNL     1       6.037  -9.109  -1.879  0.00  0.00    -0.327 N 
ATOM     35  H   UNL     1       5.254  -9.656  -2.049  0.00  0.00    +0.145 HD
ATOM     36  H   UNL     1       6.899  -9.371  -2.239  0.00  0.00    +0.145 HD
ENDBRANCH  31  32
ENDBRANCH  30  31
ENDBRANCH  27  30
ENDBRANCH   2  24
TORSDOF 5
