REMARK  Name = ZINC39465214
REMARK  2 active torsions:
REMARK  status: ('A' for Active; 'I' for Inactive)
REMARK    1  A    between atoms: C_4  and  O_25
REMARK    2  A    between atoms: C_5  and  C_7
REMARK                            x       y       z     vdW  Elec       q    Type
REMARK                         _______ _______ _______ _____ _____    ______ ____
ROOT
ATOM      1  C   UNL     1       1.244  -2.166  -0.021  0.00  0.00    +0.021 A 
ATOM      2  C   UNL     1       0.743  -2.869  -1.113  0.00  0.00    +0.015 A 
ATOM      3  C   UNL     1       0.767  -4.253  -1.121  0.00  0.00    -0.041 A 
ATOM      4  C   UNL     1       1.290  -4.943  -0.046  0.00  0.00    -0.021 A 
ATOM      5  C   UNL     1       1.791  -4.245   1.045  0.00  0.00    +0.044 A 
ATOM      6  C   UNL     1       1.776  -2.866   1.062  0.00  0.00    +0.132 A 
ATOM      7  F   UNL     1       2.271  -2.195   2.126  0.00  0.00    -0.205 F 
ATOM      8  C   UNL     1       1.340  -6.449  -0.010  0.00  0.00    +0.130 C 
ATOM      9  C   UNL     1       0.929  -6.928   1.385  0.00  0.00    +0.196 C 
ATOM     10  O   UNL     1       1.092  -8.359   1.448  0.00  0.00    -0.292 OA
ATOM     11  P   UNL     1       0.442  -9.261   0.261  0.00  0.00    +0.448 P 
ATOM     12  O   UNL     1       1.171 -10.620   0.164  0.00  0.00    -0.236 OA
ATOM     13  N   UNL     1       0.662  -8.393  -1.129  0.00  0.00    -0.154 NA
ATOM     14  N   UNL     1       0.465  -7.031  -1.027  0.00  0.00    -0.224 NA
ATOM     15  C   UNL     1       0.699  -6.411  -2.340  0.00  0.00    +0.108 C 
ATOM     16  C   UNL     1       0.212  -4.974  -2.322  0.00  0.00    +0.052 C 
ATOM     17  O   UNL     1      -1.065  -9.482   0.523  0.00  0.00    -0.126 OA
ATOM     18  H   UNL     1       0.907  -8.822  -1.964  0.00  0.00    +0.153 HD
ENDROOT
BRANCH   1  23
ATOM     19  C   UNL     1      -0.017   1.376   0.010  0.00  0.00    +0.001 A 
ATOM     20  C   UNL     1       1.169   2.089   0.002  0.00  0.00    +0.004 A 
ATOM     21  C   UNL     1       2.382   1.426  -0.013  0.00  0.00    +0.046 A 
ATOM     22  C   UNL     1       2.415   0.041  -0.021  0.00  0.00    +0.125 A 
ATOM     23  C   UNL     1       1.219  -0.683  -0.013  0.00  0.00    +0.026 A 
ATOM     24  C   UNL     1       0.002  -0.004   0.002  0.00  0.00    +0.012 A 
BRANCH  22  25
ATOM     25  O   UNL     1       3.606  -0.613  -0.036  0.00  0.00    -0.506 OA
ATOM     26  H   UNL     1       3.960  -0.806   0.843  0.00  0.00    +0.292 HD
ENDBRANCH  22  25
ENDBRANCH   1  23
TORSDOF 2
