REMARK  Name = ZINC01250417
REMARK  12 active torsions:
REMARK  status: ('A' for Active; 'I' for Inactive)
REMARK    1  A    between atoms: C_1  and  C_2
REMARK    2  A    between atoms: C_5  and  N_9
REMARK    3  A    between atoms: C_6  and  C_8
REMARK    4  A    between atoms: C_10  and  C_12
REMARK    5  A    between atoms: C_12  and  S_13
REMARK    6  A    between atoms: S_13  and  C_14
REMARK    7  A    between atoms: C_15  and  C_33
REMARK    8  A    between atoms: C_16  and  C_26
REMARK    9  A    between atoms: C_18  and  C_22
REMARK   10  A    between atoms: C_19  and  C_21
REMARK   11  A    between atoms: C_22  and  O_24
REMARK   12  A    between atoms: O_24  and  C_25
REMARK                            x       y       z     vdW  Elec       q    Type
REMARK                         _______ _______ _______ _____ _____    ______ ____
ROOT
ATOM      1  C   UNL     1       8.775   2.226   0.383  0.00  0.00    +0.080 C 
ATOM      2  C   UNL     1      10.050   1.763   0.485  0.00  0.00    +0.069 C 
ATOM      3  C   UNL     1      11.216   2.705   0.586  0.00  0.00    +0.102 C 
ATOM      4  C   UNL     1      10.818   4.095   0.182  0.00  0.00    +0.066 C 
ATOM      5  C   UNL     1       9.528   4.465   0.100  0.00  0.00    +0.016 C 
ATOM      6  N   UNL     1       8.523   3.579   0.373  0.00  0.00    -0.312 N 
ATOM      7  C   UNL     1       9.185   5.877  -0.300  0.00  0.00    +0.061 C 
ATOM      8  H   UNL     1       7.509   3.951   0.585  0.00  0.00    +0.152 HD
ENDROOT
BRANCH   3   9
ATOM      9  C   UNL     1      11.709   2.724   2.010  0.00  0.00    -0.016 A 
ATOM     10  C   UNL     1      10.872   3.143   3.026  0.00  0.00    +0.006 A 
ATOM     11  C   UNL     1      11.324   3.161   4.332  0.00  0.00    +0.000 A 
ATOM     12  C   UNL     1      12.614   2.759   4.622  0.00  0.00    +0.001 A 
ATOM     13  C   UNL     1      13.453   2.339   3.607  0.00  0.00    +0.020 A 
ATOM     14  C   UNL     1      12.999   2.316   2.300  0.00  0.00    +0.045 A 
ATOM     15 CL   UNL     1      14.049   1.782   1.026  0.00  0.00    -0.083 Cl
ENDBRANCH   3   9
BRANCH   4  16
ATOM     16  C   UNL     1      11.825   5.040  -0.118  0.00  0.00    +0.337 C 
ATOM     17  O   UNL     1      11.520   6.171  -0.446  0.00  0.00    -0.245 OA
BRANCH  16  18
ATOM     18  O   UNL     1      13.125   4.688  -0.040  0.00  0.00    -0.465 OA
ATOM     19  C   UNL     1      14.090   5.693  -0.358  0.00  0.00    +0.280 C 
ENDBRANCH  16  18
ENDBRANCH   4  16
BRANCH   2  20
ATOM     20  C   UNL     1      10.286   0.350   0.491  0.00  0.00    +0.098 C 
ATOM     21  N   UNL     1      10.473  -0.770   0.495  0.00  0.00    -0.191 NA
ENDBRANCH   2  20
BRANCH   1  22
ATOM     22  S   UNL     1       7.437   1.085   0.272  0.00  0.00    -0.100 S 
BRANCH  22  23
ATOM     23  C   UNL     1       6.047   2.240   0.172  0.00  0.00    +0.171 C 
BRANCH  23  25
ATOM     24  N   UNL     1       3.584   2.123  -0.020  0.00  0.00    -0.285 N 
ATOM     25  C   UNL     1       4.758   1.467   0.066  0.00  0.00    +0.227 C 
ATOM     26  O   UNL     1       4.777   0.255   0.059  0.00  0.00    -0.275 OA
ATOM     27  H   UNL     1       3.572   3.220  -0.105  0.00  0.00    +0.155 HD
BRANCH  24  32
ATOM     28  C   UNL     1      -1.295  -0.771   0.055  0.00  0.00    +0.044 C 
ATOM     29  C   UNL     1       0.001  -0.002   0.035  0.00  0.00    -0.050 A 
ATOM     30  C   UNL     1       1.133  -0.543   0.616  0.00  0.00    +0.005 A 
ATOM     31  C   UNL     1       2.322   0.159   0.600  0.00  0.00    +0.024 A 
ATOM     32  C   UNL     1       2.381   1.410  -0.002  0.00  0.00    +0.036 A 
ATOM     33  C   UNL     1       1.242   1.950  -0.586  0.00  0.00    -0.029 A 
ATOM     34  C   UNL     1       0.056   1.242  -0.565  0.00  0.00    +0.008 A 
ATOM     35  C   UNL     1       1.301   3.306  -1.240  0.00  0.00    +0.045 C 
ENDBRANCH  24  32
ENDBRANCH  23  25
ENDBRANCH  22  23
ENDBRANCH   1  22
TORSDOF 8
