REMARK  Name = ZINC06657780
REMARK  5 active torsions:
REMARK  status: ('A' for Active; 'I' for Inactive)
REMARK    1  A    between atoms: C_1  and  C_2
REMARK    2  A    between atoms: C_2  and  C_4
REMARK    3  A    between atoms: C_2  and  N_43
REMARK    4  A    between atoms: C_14  and  C_15
REMARK    5  A    between atoms: C_14  and  N_43
REMARK                            x       y       z     vdW  Elec       q    Type
REMARK                         _______ _______ _______ _____ _____    ______ ____
ROOT
ATOM      1  N   UNL     1       5.810   3.378   0.856  0.00  0.00    +0.388 N 
ATOM      2  H   UNL     1       6.287   2.637   0.330  0.00  0.00    -0.084 HD
ATOM      3  H   UNL     1       5.317   2.967   1.657  0.00  0.00    -0.084 HD
ENDROOT
BRANCH   1   5
ATOM      4  C   UNL     1       5.387   4.105  -1.449  0.00  0.00    -0.009 C 
ATOM      5  C   UNL     1       4.834   4.049  -0.024  0.00  0.00    -0.043 C 
BRANCH   5   6
ATOM      6  C   UNL     1       3.544   3.270  -0.015  0.00  0.00    -0.061 A 
ATOM      7  C   UNL     1       3.583   1.877  -0.022  0.00  0.00    +0.002 A 
ATOM      8  C   UNL     1       2.436   1.144  -0.015  0.00  0.00    +0.009 A 
ATOM      9  C   UNL     1       1.193   1.799   0.000  0.00  0.00    -0.018 A 
ATOM     10  C   UNL     1      -0.013   1.076   0.008  0.00  0.00    +0.008 A 
ATOM     11  C   UNL     1      -1.198   1.744   0.017  0.00  0.00    +0.001 A 
ATOM     12  C   UNL     1      -1.237   3.137   0.031  0.00  0.00    +0.001 A 
ATOM     13  C   UNL     1      -0.090   3.870   0.023  0.00  0.00    +0.008 A 
ATOM     14  C   UNL     1       1.153   3.215   0.008  0.00  0.00    -0.018 A 
ATOM     15  C   UNL     1       2.358   3.938   0.000  0.00  0.00    +0.010 A 
ENDBRANCH   5   6
ENDBRANCH   1   5
BRANCH   1  16
ATOM     16  C   UNL     1       6.809   4.348   1.346  0.00  0.00    -0.006 C 
BRANCH  16  17
ATOM     17  C   UNL     1       7.791   3.636   2.240  0.00  0.00    +0.093 A 
ATOM     18  N   UNL     1       8.797   4.359   2.797  0.00  0.00    -0.312 N 
ATOM     19  H   UNL     1       8.868   5.338   2.606  0.00  0.00    +0.170 HD
ATOM     20  C   UNL     1       9.705   3.767   3.608  0.00  0.00    +0.259 A 
ATOM     21  O   UNL     1      10.611   4.403   4.113  0.00  0.00    -0.267 OA
ATOM     22  C   UNL     1       9.553   2.326   3.855  0.00  0.00    +0.065 A 
ATOM     23  C   UNL     1      10.433   1.621   4.675  0.00  0.00    +0.017 A 
ATOM     24  C   UNL     1      10.247   0.281   4.872  0.00  0.00    +0.021 A 
ATOM     25  C   UNL     1       9.189  -0.386   4.265  0.00  0.00    +0.043 A 
ATOM     26  C   UNL     1       8.305   0.288   3.450  0.00  0.00    +0.048 A 
ATOM     27  C   UNL     1       8.475   1.656   3.233  0.00  0.00    +0.079 A 
ATOM     28  N   UNL     1       7.628   2.364   2.444  0.00  0.00    -0.236 NA
ATOM     29 CL   UNL     1       8.980  -2.088   4.536  0.00  0.00    -0.083 Cl
ENDBRANCH  16  17
ENDBRANCH   1  16
TORSDOF 4
