REMARK  Name = ZINC11671066
REMARK  7 active torsions:
REMARK  status: ('A' for Active; 'I' for Inactive)
REMARK    1  A    between atoms: C_4  and  C_7
REMARK    2  A    between atoms: C_10  and  C_28
REMARK    3  A    between atoms: C_13  and  C_15
REMARK    4  A    between atoms: C_15  and  S_16
REMARK    5  A    between atoms: S_16  and  C_17
REMARK    6  A    between atoms: C_20  and  C_23
REMARK    7  A    between atoms: N_21  and  N_22
REMARK                            x       y       z     vdW  Elec       q    Type
REMARK                         _______ _______ _______ _____ _____    ______ ____
ROOT
ATOM      1  C   UNL     1       4.146  -0.682  -0.040  0.00  0.00    +0.137 C 
ATOM      2  C   UNL     1       2.621  -0.452  -0.018  0.00  0.00    +0.087 C 
ATOM      3  C   UNL     1       2.480   1.053  -0.015  0.00  0.00    +0.069 C 
ATOM      4  N   UNL     1       3.649   1.595  -0.023  0.00  0.00    -0.181 NA
ATOM      5  N   UNL     1       4.700   0.681  -0.038  0.00  0.00    -0.184 N 
ATOM      6  C   UNL     1       6.011   0.994  -0.049  0.00  0.00    +0.246 C 
ATOM      7  O   UNL     1       6.845   0.113  -0.061  0.00  0.00    -0.273 OA
ENDROOT
BRANCH   3   8
ATOM      8  C   UNL     1       1.202   1.787   0.000  0.00  0.00    -0.002 A 
ATOM      9  C   UNL     1      -0.013   1.076   0.008  0.00  0.00    +0.010 A 
ATOM     10  C   UNL     1      -1.202   1.730   0.017  0.00  0.00    +0.009 A 
ATOM     11  C   UNL     1      -1.232   3.136   0.030  0.00  0.00    -0.018 A 
ATOM     12  C   UNL     1      -2.451   3.834   0.045  0.00  0.00    +0.008 A 
ATOM     13  C   UNL     1      -2.449   5.196   0.053  0.00  0.00    +0.001 A 
ATOM     14  C   UNL     1      -1.254   5.912   0.046  0.00  0.00    +0.001 A 
ATOM     15  C   UNL     1      -0.053   5.271   0.031  0.00  0.00    +0.008 A 
ATOM     16  C   UNL     1      -0.015   3.865   0.022  0.00  0.00    -0.017 A 
ATOM     17  C   UNL     1       1.205   3.173   0.008  0.00  0.00    +0.018 A 
ENDBRANCH   3   8
BRANCH   1  21
ATOM     18  C   UNL     1       5.380  -2.813   3.450  0.00  0.00    +0.000 A 
ATOM     19  C   UNL     1       5.305  -3.464   2.233  0.00  0.00    +0.000 A 
ATOM     20  C   UNL     1       4.906  -2.775   1.104  0.00  0.00    +0.005 A 
ATOM     21  C   UNL     1       4.581  -1.434   1.191  0.00  0.00    -0.025 A 
ATOM     22  C   UNL     1       4.661  -0.781   2.407  0.00  0.00    +0.005 A 
ATOM     23  C   UNL     1       5.056  -1.472   3.538  0.00  0.00    +0.000 A 
ENDBRANCH   1  21
BRANCH   6  24
ATOM     24  C   UNL     1       6.441   2.438  -0.044  0.00  0.00    +0.175 C 
BRANCH  24  25
ATOM     25  S   UNL     1       8.249   2.530  -0.061  0.00  0.00    -0.075 S 
BRANCH  25  26
ATOM     26  C   UNL     1       8.467   4.278  -0.053  0.00  0.00    +0.209 A 
ATOM     27  N   UNL     1       7.513   5.182  -0.039  0.00  0.00    -0.120 NA
ATOM     28  N   UNL     1       8.021   6.362  -0.037  0.00  0.00    -0.123 NA
ATOM     29  C   UNL     1       9.334   6.285  -0.051  0.00  0.00    +0.217 A 
ATOM     30  N   UNL     1       9.659   4.946  -0.056  0.00  0.00    -0.221 N 
BRANCH  29  31
ATOM     31  C   UNL     1      10.277   7.414  -0.054  0.00  0.00    +0.173 A 
ATOM     32  C   UNL     1       9.975   8.710   0.241  0.00  0.00    +0.053 A 
ATOM     33  C   UNL     1      11.171   9.443   0.115  0.00  0.00    +0.042 A 
ATOM     34  C   UNL     1      12.133   8.572  -0.247  0.00  0.00    +0.196 A 
ATOM     35  O   UNL     1      11.592   7.347  -0.344  0.00  0.00    -0.460 OA
ENDBRANCH  29  31
BRANCH  30  36
ATOM     36  N   UNL     1      10.911   4.400  -0.064  0.00  0.00    -0.294 N 
ATOM     37  H   UNL     1      11.239   4.261  -1.008  0.00  0.00    +0.163 HD
ATOM     38  H   UNL     1      11.557   4.969   0.462  0.00  0.00    +0.163 HD
ENDBRANCH  30  36
ENDBRANCH  25  26
ENDBRANCH  24  25
ENDBRANCH   6  24
TORSDOF 7
