REMARK  Name = ZINC36013936
REMARK  17 active torsions:
REMARK  status: ('A' for Active; 'I' for Inactive)
REMARK    1  A    between atoms: C_1  and  C_2
REMARK    2  A    between atoms: C_2  and  N_3
REMARK    3  A    between atoms: C_4  and  C_25
REMARK    4  A    between atoms: C_5  and  C_20
REMARK    5  A    between atoms: C_6  and  C_11
REMARK    6  A    between atoms: C_14  and  C_17
REMARK    7  A    between atoms: C_17  and  C_18
REMARK    8  A    between atoms: C_17  and  C_19
REMARK    9  A    between atoms: C_20  and  O_22
REMARK   10  A    between atoms: O_22  and  C_23
REMARK   11  A    between atoms: C_23  and  C_24
REMARK   12  A    between atoms: C_25  and  N_26
REMARK   13  A    between atoms: C_30  and  C_33
REMARK   14  A    between atoms: N_36  and  C_37
REMARK   15  A    between atoms: C_37  and  C_38
REMARK   16  A    between atoms: C_37  and  C_39
REMARK   17  A    between atoms: C_37  and  C_40
REMARK                            x       y       z     vdW  Elec       q    Type
REMARK                         _______ _______ _______ _____ _____    ______ ____
ROOT
ATOM      1  N   UNL     1       0.512  -0.493   1.165  0.00  0.00    -0.258 N 
ATOM      2  C   UNL     1       1.846  -0.478   1.457  0.00  0.00    +0.041 C 
ATOM      3  C   UNL     1       2.297  -0.849   2.674  0.00  0.00    +0.080 C 
ATOM      4  C   UNL     1       1.274  -1.282   3.704  0.00  0.00    +0.144 C 
ATOM      5  N   UNL     1      -0.139  -1.263   3.290  0.00  0.00    -0.288 N 
ATOM      6  C   UNL     1      -0.435  -0.862   2.038  0.00  0.00    +0.307 C 
ATOM      7  O   UNL     1      -1.598  -0.839   1.687  0.00  0.00    -0.252 OA
ATOM      8  H   UNL     1      -0.840  -1.529   3.905  0.00  0.00    +0.151 HD
ENDROOT
BRANCH   4   9
ATOM      9  C   UNL     1       1.417  -0.386   4.907  0.00  0.00    -0.022 A 
ATOM     10  C   UNL     1       0.848   0.874   4.902  0.00  0.00    +0.006 A 
ATOM     11  C   UNL     1       0.979   1.696   6.005  0.00  0.00    +0.004 A 
ATOM     12  C   UNL     1       1.679   1.259   7.114  0.00  0.00    -0.045 A 
ATOM     13  C   UNL     1       2.247  -0.001   7.120  0.00  0.00    +0.004 A 
ATOM     14  C   UNL     1       2.113  -0.825   6.018  0.00  0.00    +0.006 A 
BRANCH  12  15
ATOM     15  C   UNL     1       1.823   2.156   8.316  0.00  0.00    +0.013 C 
ATOM     16  C   UNL     1       1.200   1.476   9.537  0.00  0.00    +0.012 C 
ATOM     17  C   UNL     1       3.306   2.421   8.581  0.00  0.00    +0.012 C 
ENDBRANCH  12  15
ENDBRANCH   4   9
BRANCH   1  19
ATOM     18  C   UNL     1      -0.163   1.430  -0.185  0.00  0.00    +0.025 C 
ATOM     19  C   UNL     1       0.093  -0.078  -0.175  0.00  0.00    +0.111 C 
ENDBRANCH   1  19
BRANCH   3  20
ATOM     20  C   UNL     1       3.679  -0.834   2.978  0.00  0.00    +0.339 C 
ATOM     21  O   UNL     1       4.327  -1.862   2.916  0.00  0.00    -0.245 OA
BRANCH  20  22
ATOM     22  O   UNL     1       4.279   0.320   3.336  0.00  0.00    -0.462 OA
BRANCH  22  23
ATOM     23  C   UNL     1       5.676   0.262   3.628  0.00  0.00    +0.229 C 
ATOM     24  C   UNL     1       6.176   1.656   4.012  0.00  0.00    +0.048 C 
ENDBRANCH  22  23
ENDBRANCH  20  22
ENDBRANCH   3  20
BRANCH   2  25
ATOM     25  C   UNL     1       2.830  -0.040   0.403  0.00  0.00    +0.136 C 
BRANCH  25  26
ATOM     26  N   UNL     1       2.843  -1.019  -0.692  0.00  0.00    -0.294 NA
ATOM     27  C   UNL     1       3.364  -2.314  -0.234  0.00  0.00    +0.104 C 
ATOM     28  C   UNL     1       3.193  -3.352  -1.348  0.00  0.00    +0.125 C 
ATOM     29  N   UNL     1       3.817  -2.830  -2.573  0.00  0.00    -0.280 N 
ATOM     30  C   UNL     1       3.446  -1.478  -3.021  0.00  0.00    +0.088 C 
ATOM     31  C   UNL     1       3.607  -0.514  -1.841  0.00  0.00    +0.107 C 
ATOM     32  C   UNL     1       4.361  -1.048  -4.169  0.00  0.00    +0.029 C 
ATOM     33  C   UNL     1       4.703  -3.569  -3.268  0.00  0.00    +0.303 C 
ATOM     34  O   UNL     1       5.274  -3.090  -4.229  0.00  0.00    -0.253 OA
ATOM     35  N   UNL     1       4.957  -4.840  -2.898  0.00  0.00    -0.294 N 
ATOM     36  H   UNL     1       4.452  -5.245  -2.175  0.00  0.00    +0.151 HD
BRANCH  35  37
ATOM     37  C   UNL     1       5.996  -5.610  -3.587  0.00  0.00    +0.028 C 
ATOM     38  C   UNL     1       7.344  -4.903  -3.430  0.00  0.00    +0.031 C 
ATOM     39  C   UNL     1       6.081  -7.011  -2.978  0.00  0.00    +0.031 C 
ATOM     40  C   UNL     1       5.648  -5.720  -5.073  0.00  0.00    +0.031 C 
ENDBRANCH  35  37
ENDBRANCH  25  26
ENDBRANCH   2  25
TORSDOF 9
