REMARK  Name = ZINC02416940
REMARK  6 active torsions:
REMARK  status: ('A' for Active; 'I' for Inactive)
REMARK    1  A    between atoms: C_1  and  C_2
REMARK    2  A    between atoms: C_3  and  O_22
REMARK    3  A    between atoms: C_9  and  O_21
REMARK    4  A    between atoms: C_10  and  C_13
REMARK    5  A    between atoms: C_13  and  N_14
REMARK    6  A    between atoms: O_22  and  C_23
REMARK                            x       y       z     vdW  Elec       q    Type
REMARK                         _______ _______ _______ _____ _____    ______ ____
ROOT
ATOM      1  C   UNL     1      -0.708   0.890  -1.029  0.00  0.00    +0.090 C 
ATOM      2  C   UNL     1      -0.471  -0.571  -0.747  0.00  0.00    +0.148 A 
ATOM      3  C   UNL     1      -1.536  -1.391  -0.651  0.00  0.00    +0.213 A 
ATOM      4  C   UNL     1      -1.334  -2.776  -0.385  0.00  0.00    +0.235 A 
ATOM      5  O   UNL     1      -2.273  -3.548  -0.292  0.00  0.00    -0.283 OA
ATOM      6  C   UNL     1       0.057  -3.236  -0.228  0.00  0.00    +0.068 A 
ATOM      7  C   UNL     1       0.354  -4.574   0.034  0.00  0.00    +0.019 A 
ATOM      8  C   UNL     1       1.656  -4.963   0.174  0.00  0.00    +0.046 A 
ATOM      9  C   UNL     1       2.686  -4.032   0.056  0.00  0.00    +0.122 A 
ATOM     10  C   UNL     1       2.407  -2.701  -0.203  0.00  0.00    +0.020 A 
ATOM     11  C   UNL     1       1.090  -2.290  -0.348  0.00  0.00    +0.144 A 
ATOM     12  O   UNL     1       0.790  -1.001  -0.607  0.00  0.00    -0.456 OA
ENDROOT
BRANCH   9  13
ATOM     13  O   UNL     1       3.975  -4.434   0.198  0.00  0.00    -0.506 OA
ATOM     14  H   UNL     1       4.418  -4.638  -0.637  0.00  0.00    +0.292 HD
ENDBRANCH   9  13
BRANCH  10  15
ATOM     15  C   UNL     1       3.530  -1.703  -0.328  0.00  0.00    -0.036 C 
BRANCH  15  16
ATOM     16  N   UNL     1       3.953  -1.273   1.011  0.00  0.00    +0.383 N 
ATOM     17  C   UNL     1       2.819  -0.597   1.672  0.00  0.00    -0.078 C 
ATOM     18  C   UNL     1       3.011  -0.700   3.164  0.00  0.00    -0.019 C 
ATOM     19  C   UNL     1       3.682   0.564   3.734  0.00  0.00    -0.002 C 
ATOM     20  C   UNL     1       4.810   1.077   2.815  0.00  0.00    -0.002 C 
ATOM     21  C   UNL     1       5.650  -0.043   2.257  0.00  0.00    -0.019 C 
ATOM     22  C   UNL     1       5.083  -0.463   0.885  0.00  0.00    -0.078 C 
ATOM     23  H   UNL     1       4.199  -2.090   1.550  0.00  0.00    -0.081 HD
ENDBRANCH  15  16
ENDBRANCH  10  15
BRANCH   3  24
ATOM     24  O   UNL     1      -2.796  -0.900  -0.807  0.00  0.00    -0.448 OA
BRANCH  24  25
ATOM     25  C   UNL     1      -3.619  -0.901   0.274  0.00  0.00    +0.143 A 
ATOM     26  C   UNL     1      -3.135  -1.286   1.516  0.00  0.00    +0.047 A 
ATOM     27  C   UNL     1      -3.974  -1.286   2.614  0.00  0.00    +0.004 A 
ATOM     28  C   UNL     1      -5.295  -0.903   2.476  0.00  0.00    +0.001 A 
ATOM     29  C   UNL     1      -5.781  -0.519   1.240  0.00  0.00    +0.019 A 
ATOM     30  C   UNL     1      -4.944  -0.511   0.139  0.00  0.00    +0.060 A 
ATOM     31 BR   UNL     1      -5.607   0.022  -1.550  0.00  0.00    -0.046 Br
ENDBRANCH  24  25
ENDBRANCH   3  24
TORSDOF 5
