REMARK  Name = ZINC14745113
REMARK  5 active torsions:
REMARK  status: ('A' for Active; 'I' for Inactive)
REMARK    1  A    between atoms: C_1  and  N_2
REMARK    2  A    between atoms: C_5  and  C_7
REMARK    3  A    between atoms: C_17  and  N_68
REMARK    4  A    between atoms: C_23  and  C_26
REMARK    5  A    between atoms: C_23  and  O_33
REMARK                            x       y       z     vdW  Elec       q    Type
REMARK                         _______ _______ _______ _____ _____    ______ ____
ROOT
ATOM      1  C   UNL     1      -2.868   3.578   5.671  0.00  0.00    +0.172 C 
ATOM      2  N   UNL     1      -2.274   2.399   5.036  0.00  0.00    -0.270 N 
ATOM      3  C   UNL     1      -2.069   1.218   5.643  0.00  0.00    +0.043 A 
ATOM      4  C   UNL     1      -1.501   0.392   4.731  0.00  0.00    +0.004 A 
ATOM      5  C   UNL     1      -1.382   1.143   3.550  0.00  0.00    +0.151 A 
ATOM      6  N   UNL     1      -1.864   2.345   3.816  0.00  0.00    -0.166 NA
ATOM      7  C   UNL     1      -1.103  -1.033   5.000  0.00  0.00    +0.024 C 
ATOM      8  C   UNL     1      -1.061  -1.242   6.520  0.00  0.00    -0.064 C 
ATOM      9  C   UNL     1      -2.357  -0.716   7.144  0.00  0.00    -0.009 C 
ATOM     10  C   UNL     1      -2.385   0.815   7.060  0.00  0.00    +0.054 C 
ENDROOT
BRANCH   5  11
ATOM     11  C   UNL     1      -0.821   0.682   2.263  0.00  0.00    +0.267 C 
ATOM     12  O   UNL     1      -0.504  -0.482   2.121  0.00  0.00    -0.268 OA
ATOM     13  N   UNL     1      -0.661   1.554   1.247  0.00  0.00    -0.296 N 
ATOM     14  C   UNL     1      -0.028   1.079   0.001  0.00  0.00    +0.108 C 
ATOM     15  C   UNL     1      -0.744   1.613  -1.252  0.00  0.00    +0.019 C 
ATOM     16  C   UNL     1      -2.239   1.581  -1.047  0.00  0.00    +0.002 C 
ATOM     17  C   UNL     1      -2.700   2.921  -0.480  0.00  0.00    +0.002 C 
ATOM     18  C   UNL     1      -2.594   3.028   0.983  0.00  0.00    +0.019 C 
ATOM     19  C   UNL     1      -1.114   2.914   1.425  0.00  0.00    +0.108 C 
ENDBRANCH   5  11
BRANCH   8  25
ATOM     20  C   UNL     1      -2.062  -3.433   6.280  0.00  0.00    -0.075 C 
ATOM     21  C   UNL     1      -1.815  -4.931   6.475  0.00  0.00    +0.021 C 
ATOM     22  C   UNL     1      -1.636  -5.224   7.968  0.00  0.00    +0.088 C 
ATOM     23  C   UNL     1      -0.475  -4.385   8.509  0.00  0.00    +0.021 C 
ATOM     24  C   UNL     1      -0.761  -2.904   8.255  0.00  0.00    -0.075 C 
ATOM     25  N   UNL     1      -0.898  -2.684   6.799  0.00  0.00    +0.382 N 
ATOM     26  H   UNL     1      -0.049  -3.020   6.330  0.00  0.00    -0.081 HD
BRANCH  22  27
ATOM     27  C   UNL     1      -1.334  -6.688   8.162  0.00  0.00    -0.016 A 
ATOM     28  C   UNL     1      -0.025  -7.131   8.145  0.00  0.00    +0.008 A 
ATOM     29  C   UNL     1       0.253  -8.472   8.329  0.00  0.00    +0.020 A 
ATOM     30  C   UNL     1      -0.779  -9.373   8.519  0.00  0.00    +0.041 A 
ATOM     31  C   UNL     1      -2.090  -8.929   8.531  0.00  0.00    +0.020 A 
ATOM     32  C   UNL     1      -2.366  -7.587   8.353  0.00  0.00    +0.008 A 
ATOM     33 CL   UNL     1      -0.431 -11.059   8.744  0.00  0.00    -0.084 Cl
ENDBRANCH  22  27
BRANCH  22  34
ATOM     34  O   UNL     1      -2.836  -4.887   8.668  0.00  0.00    -0.384 OA
ATOM     35  H   UNL     1      -3.614  -5.382   8.375  0.00  0.00    +0.211 HD
ENDBRANCH  22  34
ENDBRANCH   8  25
TORSDOF 4
