REMARK  Name = ZINC63141393
REMARK  8 active torsions:
REMARK  status: ('A' for Active; 'I' for Inactive)
REMARK    1  A    between atoms: C_1  and  O_2
REMARK    2  A    between atoms: O_2  and  C_3
REMARK    3  A    between atoms: C_3  and  C_5
REMARK    4  A    between atoms: C_8  and  C_11
REMARK    5  A    between atoms: N_30  and  C_33
REMARK    6  A    between atoms: C_33  and  C_34
REMARK    7  A    between atoms: C_34  and  C_35
REMARK    8  A    between atoms: C_35  and  N_36
REMARK                            x       y       z     vdW  Elec       q    Type
REMARK                         _______ _______ _______ _____ _____    ______ ____
ROOT
ATOM      1  C   UNL     1       0.827  -6.343  -1.340  0.00  0.00    +0.133 C 
ATOM      2  C   UNL     1      -0.284  -6.838  -2.266  0.00  0.00    +0.131 C 
ATOM      3  C   UNL     1       0.189  -6.535  -3.685  0.00  0.00    -0.034 C 
ATOM      4  C   UNL     1      -0.697  -5.703  -4.215  0.00  0.00    -0.001 A 
ATOM      5  C   UNL     1      -0.789  -5.090  -5.550  0.00  0.00    +0.010 A 
ATOM      6  C   UNL     1      -1.849  -4.265  -5.759  0.00  0.00    +0.001 A 
ATOM      7  C   UNL     1      -2.816  -3.993  -4.786  0.00  0.00    +0.002 A 
ATOM      8  C   UNL     1      -2.810  -4.514  -3.533  0.00  0.00    +0.026 A 
ATOM      9  C   UNL     1      -1.745  -5.398  -3.194  0.00  0.00    +0.043 A 
ATOM     10  N   UNL     1      -1.506  -6.046  -2.071  0.00  0.00    -0.375 N 
ATOM     11  C   UNL     1       1.464  -7.125  -4.224  0.00  0.00    +0.065 C 
ATOM     12  C   UNL     1       2.531  -7.094  -3.161  0.00  0.00    +0.167 C 
ATOM     13  N   UNL     1       2.144  -6.742  -1.813  0.00  0.00    -0.279 N 
ATOM     14  C   UNL     1       3.163  -6.743  -0.891  0.00  0.00    +0.234 C 
ATOM     15  O   UNL     1       2.956  -6.531   0.285  0.00  0.00    -0.274 OA
ATOM     16  C   UNL     1       4.557  -7.022  -1.413  0.00  0.00    +0.203 C 
ATOM     17  N   UNL     1       4.754  -6.252  -2.655  0.00  0.00    -0.291 N 
ATOM     18  C   UNL     1       3.744  -6.294  -3.566  0.00  0.00    +0.237 C 
ATOM     19  O   UNL     1       3.815  -5.725  -4.634  0.00  0.00    -0.274 OA
ATOM     20  H   UNL     1      -2.034  -6.011  -1.258  0.00  0.00    +0.160 HD
ENDROOT
BRANCH   1  24
ATOM     21  C   UNL     1       0.658  -2.076  -1.122  0.00  0.00    +0.059 A 
ATOM     22  C   UNL     1       0.089  -2.853  -0.111  0.00  0.00    +0.015 A 
ATOM     23  C   UNL     1       0.147  -4.229  -0.188  0.00  0.00    +0.006 A 
ATOM     24  C   UNL     1       0.767  -4.840  -1.263  0.00  0.00    -0.025 A 
ATOM     25  C   UNL     1       1.334  -4.076  -2.268  0.00  0.00    +0.006 A 
ATOM     26  C   UNL     1       1.278  -2.699  -2.207  0.00  0.00    +0.015 A 
BRANCH  21  27
ATOM     27  C   UNL     1       0.601  -0.602  -1.046  0.00  0.00    +0.339 C 
ATOM     28  O   UNL     1       1.092   0.071  -1.930  0.00  0.00    -0.245 OA
BRANCH  27  30
ATOM     29  C   UNL     1      -0.017   1.425   0.010  0.00  0.00    +0.280 C 
ATOM     30  O   UNL     1       0.002  -0.004   0.002  0.00  0.00    -0.464 OA
ENDBRANCH  27  30
ENDBRANCH  21  27
ENDBRANCH   1  24
BRANCH  17  31
ATOM     31  C   UNL     1       5.976  -5.481  -2.896  0.00  0.00    +0.109 C 
BRANCH  31  32
ATOM     32  C   UNL     1       7.008  -6.365  -3.599  0.00  0.00    +0.034 C 
BRANCH  32  33
ATOM     33  C   UNL     1       8.284  -5.560  -3.850  0.00  0.00    +0.086 C 
BRANCH  33  34
ATOM     34  N   UNL     1       9.274  -6.410  -4.525  0.00  0.00    -0.298 NA
ATOM     35  C   UNL     1       9.723  -7.497  -3.643  0.00  0.00    +0.112 C 
ATOM     36  C   UNL     1      10.707  -8.390  -4.404  0.00  0.00    +0.175 C 
ATOM     37  O   UNL     1      11.795  -7.595  -4.880  0.00  0.00    -0.377 OA
ATOM     38  C   UNL     1      11.394  -6.526  -5.742  0.00  0.00    +0.175 C 
ATOM     39  C   UNL     1      10.418  -5.614  -4.995  0.00  0.00    +0.112 C 
ENDBRANCH  33  34
ENDBRANCH  32  33
ENDBRANCH  31  32
ENDBRANCH  17  31
TORSDOF 7
