REMARK  Name = ZINC08708171
REMARK  9 active torsions:
REMARK  status: ('A' for Active; 'I' for Inactive)
REMARK    1  A    between atoms: C_1  and  C_2
REMARK    2  A    between atoms: C_2  and  C_4
REMARK    3  A    between atoms: C_2  and  S_17
REMARK    4  A    between atoms: N_6  and  C_7
REMARK    5  A    between atoms: C_10  and  N_13
REMARK    6  A    between atoms: C_14  and  C_16
REMARK    7  A    between atoms: S_17  and  C_18
REMARK    8  A    between atoms: C_21  and  C_29
REMARK    9  A    between atoms: N_22  and  C_23
REMARK                            x       y       z     vdW  Elec       q    Type
REMARK                         _______ _______ _______ _____ _____    ______ ____
ROOT
ATOM      1  C   UNL     1       0.522  -2.902   0.897  0.00  0.00    +0.197 A 
ATOM      2  N   UNL     1       0.876  -4.110   0.516  0.00  0.00    -0.122 NA
ATOM      3  N   UNL     1       1.391  -4.070  -0.660  0.00  0.00    -0.126 NA
ATOM      4  C   UNL     1       1.393  -2.834  -1.109  0.00  0.00    +0.186 A 
ATOM      5  N   UNL     1       0.832  -2.047  -0.125  0.00  0.00    -0.269 N 
ENDROOT
BRANCH   4   6
ATOM      6  C   UNL     1       1.896  -2.377  -2.414  0.00  0.00    +0.085 A 
ATOM      7  C   UNL     1       2.181  -3.183  -3.472  0.00  0.00    +0.039 A 
ATOM      8  C   UNL     1       2.647  -2.318  -4.553  0.00  0.00    +0.000 A 
ATOM      9  C   UNL     1       3.076  -2.553  -5.863  0.00  0.00    +0.010 A 
ATOM     10  C   UNL     1       3.464  -1.505  -6.648  0.00  0.00    +0.001 A 
ATOM     11  C   UNL     1       3.435  -0.207  -6.156  0.00  0.00    +0.002 A 
ATOM     12  C   UNL     1       3.017   0.048  -4.868  0.00  0.00    +0.026 A 
ATOM     13  C   UNL     1       2.617  -1.004  -4.050  0.00  0.00    +0.047 A 
ATOM     14  N   UNL     1       2.158  -1.068  -2.752  0.00  0.00    -0.352 N 
ATOM     15  H   UNL     1       2.038  -0.305  -2.164  0.00  0.00    +0.166 HD
ENDBRANCH   4   6
BRANCH   5  16
ATOM     16  C   UNL     1       0.628  -0.661  -0.162  0.00  0.00    +0.051 A 
ATOM     17  C   UNL     1      -0.662  -0.147  -0.151  0.00  0.00    +0.026 A 
ATOM     18  C   UNL     1      -0.860   1.220  -0.187  0.00  0.00    +0.002 A 
ATOM     19  C   UNL     1       0.225   2.075  -0.233  0.00  0.00    +0.000 A 
ATOM     20  C   UNL     1       1.511   1.567  -0.244  0.00  0.00    +0.002 A 
ATOM     21  C   UNL     1       1.715   0.201  -0.208  0.00  0.00    +0.026 A 
ENDBRANCH   5  16
BRANCH   1  22
ATOM     22  S   UNL     1      -0.219  -2.467   2.436  0.00  0.00    -0.073 S 
BRANCH  22  24
ATOM     23  C   UNL     1      -1.254  -4.995   2.426  0.00  0.00    +0.029 C 
ATOM     24  C   UNL     1      -0.301  -4.098   3.218  0.00  0.00    +0.137 C 
BRANCH  24  25
ATOM     25  C   UNL     1      -0.804  -3.952   4.631  0.00  0.00    +0.230 C 
ATOM     26  O   UNL     1      -1.490  -3.000   4.935  0.00  0.00    -0.274 OA
ATOM     27  N   UNL     1      -0.491  -4.881   5.556  0.00  0.00    -0.285 N 
ATOM     28  H   UNL     1      -0.005  -5.679   5.297  0.00  0.00    +0.155 HD
BRANCH  27  29
ATOM     29  C   UNL     1      -0.868  -4.693   6.892  0.00  0.00    +0.034 A 
ATOM     30  C   UNL     1      -0.902  -3.413   7.430  0.00  0.00    +0.025 A 
ATOM     31  C   UNL     1      -1.277  -3.228   8.746  0.00  0.00    +0.025 A 
ATOM     32  C   UNL     1      -1.611  -4.322   9.534  0.00  0.00    +0.033 A 
ATOM     33  C   UNL     1      -1.572  -5.602   8.997  0.00  0.00    +0.025 A 
ATOM     34  C   UNL     1      -1.201  -5.787   7.680  0.00  0.00    +0.025 A 
BRANCH  32  35
ATOM     35  N   UNL     1      -1.988  -4.133  10.870  0.00  0.00    -0.286 N 
ATOM     36  C   UNL     1      -2.700  -3.045  11.222  0.00  0.00    +0.214 C 
ATOM     37  O   UNL     1      -2.943  -2.187  10.400  0.00  0.00    -0.276 OA
ATOM     38  C   UNL     1      -3.194  -2.894  12.638  0.00  0.00    +0.109 C 
ATOM     39  H   UNL     1      -1.736  -4.787  11.541  0.00  0.00    +0.155 HD
ENDBRANCH  32  35
ENDBRANCH  27  29
ENDBRANCH  24  25
ENDBRANCH  22  24
ENDBRANCH   1  22
TORSDOF 7
