REMARK  Name = ZINC40031743
REMARK  6 active torsions:
REMARK  status: ('A' for Active; 'I' for Inactive)
REMARK    1  A    between atoms: C_3  and  C_8
REMARK    2  A    between atoms: C_5  and  O_7
REMARK    3  A    between atoms: N_23  and  C_24
REMARK    4  A    between atoms: C_24  and  C_25
REMARK    5  A    between atoms: C_25  and  C_26
REMARK    6  A    between atoms: C_26  and  O_27
REMARK                            x       y       z     vdW  Elec       q    Type
REMARK                         _______ _______ _______ _____ _____    ______ ____
ROOT
ATOM      1  C   UNL     1       3.671   2.190  -0.021  0.00  0.00    +0.145 C 
ATOM      2  C   UNL     1       3.944   2.722  -1.390  0.00  0.00    +0.072 A 
ATOM      3  C   UNL     1       4.159   2.036  -2.668  0.00  0.00    +0.199 A 
ATOM      4  O   UNL     1       3.967   0.843  -2.825  0.00  0.00    -0.287 OA
ATOM      5  C   UNL     1       4.631   2.933  -3.753  0.00  0.00    +0.065 A 
ATOM      6  C   UNL     1       5.069   2.404  -4.966  0.00  0.00    +0.030 A 
ATOM      7  C   UNL     1       5.509   3.251  -5.960  0.00  0.00    +0.019 A 
ATOM      8  C   UNL     1       5.515   4.624  -5.750  0.00  0.00    +0.019 A 
ATOM      9  C   UNL     1       5.084   5.158  -4.557  0.00  0.00    +0.048 A 
ATOM     10  C   UNL     1       4.631   4.321  -3.537  0.00  0.00    +0.140 A 
ATOM     11  O   UNL     1       4.203   4.872  -2.378  0.00  0.00    -0.450 OA
ATOM     12  C   UNL     1       3.982   4.085  -1.307  0.00  0.00    +0.199 A 
ATOM     13  C   UNL     1       3.744   4.470   0.095  0.00  0.00    +0.283 C 
ATOM     14  O   UNL     1       3.717   5.612   0.508  0.00  0.00    -0.267 OA
ATOM     15  N   UNL     1       3.562   3.368   0.855  0.00  0.00    -0.284 N 
ATOM     16 BR   UNL     1       6.105   2.544  -7.609  0.00  0.00    -0.050 Br
ENDROOT
BRANCH   1  19
ATOM     17  C   UNL     1      -0.017   1.377   0.010  0.00  0.00    +0.004 A 
ATOM     18  C   UNL     1       1.171   2.086   0.002  0.00  0.00    +0.006 A 
ATOM     19  C   UNL     1       2.379   1.415  -0.013  0.00  0.00    -0.019 A 
ATOM     20  C   UNL     1       2.403   0.033  -0.021  0.00  0.00    +0.051 A 
ATOM     21  C   UNL     1       1.214  -0.680  -0.013  0.00  0.00    +0.117 A 
ATOM     22  C   UNL     1       0.002  -0.004   0.002  0.00  0.00    +0.045 A 
BRANCH  21  23
ATOM     23  O   UNL     1       1.235  -2.039  -0.021  0.00  0.00    -0.507 OA
ATOM     24  H   UNL     1       1.249  -2.437   0.860  0.00  0.00    +0.292 HD
ENDBRANCH  21  23
ENDBRANCH   1  19
BRANCH  15  25
ATOM     25  C   UNL     1       3.300   3.348   2.296  0.00  0.00    +0.111 C 
BRANCH  25  26
ATOM     26  C   UNL     1       4.627   3.282   3.054  0.00  0.00    +0.047 C 
BRANCH  26  27
ATOM     27  C   UNL     1       4.354   3.261   4.560  0.00  0.00    +0.157 C 
BRANCH  27  28
ATOM     28  O   UNL     1       5.593   3.199   5.268  0.00  0.00    -0.395 OA
ATOM     29  H   UNL     1       5.496   3.183   6.230  0.00  0.00    +0.209 HD
ENDBRANCH  27  28
ENDBRANCH  26  27
ENDBRANCH  25  26
ENDBRANCH  15  25
TORSDOF 6
