REMARK  Name = ZINC40456545
REMARK  6 active torsions:
REMARK  status: ('A' for Active; 'I' for Inactive)
REMARK    1  A    between atoms: C_1  and  C_2
REMARK    2  A    between atoms: C_2  and  N_3
REMARK    3  A    between atoms: N_3  and  C_4
REMARK    4  A    between atoms: C_7  and  C_23
REMARK    5  A    between atoms: C_17  and  S_19
REMARK    6  A    between atoms: S_19  and  N_22
REMARK                            x       y       z     vdW  Elec       q    Type
REMARK                         _______ _______ _______ _____ _____    ______ ____
ROOT
ATOM      1  C   UNL     1       0.710  -1.947  -1.215  0.00  0.00    -0.060 C 
ATOM      2  C   UNL     1      -0.728  -2.472  -1.317  0.00  0.00    +0.011 C 
ATOM      3  C   UNL     1      -1.437  -1.918  -2.553  0.00  0.00    +0.127 C 
ATOM      4  S   UNL     1      -0.567  -2.456  -4.061  0.00  0.00    -0.016 S 
ATOM      5  O   UNL     1      -0.523  -3.876  -4.082  0.00  0.00    -0.173 OA
ATOM      6  O   UNL     1      -1.108  -1.759  -5.175  0.00  0.00    -0.173 OA
ATOM      7  C   UNL     1       1.106  -1.823  -3.727  0.00  0.00    +0.199 C 
ATOM      8  C   UNL     1       1.518  -2.419  -2.364  0.00  0.00    +0.035 C 
ATOM      9  C   UNL     1       2.913  -2.836  -2.303  0.00  0.00    +0.013 C 
ATOM     10  C   UNL     1       3.535  -3.078  -3.461  0.00  0.00    +0.136 C 
ATOM     11  S   UNL     1       2.335  -2.729  -4.757  0.00  0.00    -0.079 S 
ATOM     12  C   UNL     1      -2.876  -2.434  -2.587  0.00  0.00    +0.032 C 
ENDROOT
BRANCH   1  13
ATOM     13  N   UNL     1       0.690  -0.478  -1.207  0.00  0.00    +0.381 N 
ATOM     14  H   UNL     1       0.202  -0.144  -2.024  0.00  0.00    -0.086 HD
ATOM     15  H   UNL     1       1.636  -0.129  -1.214  0.00  0.00    -0.086 HD
BRANCH  13  17
ATOM     16  C   UNL     1      -0.019   1.526   0.010  0.00  0.00    -0.017 C 
ATOM     17  C   UNL     1       0.002  -0.004   0.002  0.00  0.00    -0.086 C 
ENDBRANCH  13  17
ENDBRANCH   1  13
BRANCH  10  18
ATOM     18  S   UNL     1       5.198  -3.617  -3.679  0.00  0.00    +0.062 S 
ATOM     19  O   UNL     1       5.742  -2.839  -4.736  0.00  0.00    -0.153 OA
ATOM     20  O   UNL     1       5.784  -3.660  -2.385  0.00  0.00    -0.153 OA
BRANCH  18  21
ATOM     21  N   UNL     1       5.139  -5.180  -4.223  0.00  0.00    -0.203 NA
ATOM     22  H   UNL     1       4.282  -5.614  -4.359  0.00  0.00    +0.144 HD
ATOM     23  H   UNL     1       5.961  -5.662  -4.406  0.00  0.00    +0.144 HD
ENDBRANCH  18  21
ENDBRANCH  10  18
TORSDOF 4
