REMARK  Name = ZINC39716330
REMARK  10 active torsions:
REMARK  status: ('A' for Active; 'I' for Inactive)
REMARK    1  A    between atoms: C_1  and  C_2
REMARK    2  A    between atoms: C_7  and  N_26
REMARK    3  A    between atoms: C_8  and  C_13
REMARK    4  A    between atoms: N_17  and  C_21
REMARK    5  A    between atoms: C_21  and  C_22
REMARK    6  A    between atoms: C_22  and  C_23
REMARK    7  A    between atoms: C_23  and  O_24
REMARK    8  A    between atoms: O_24  and  C_25
REMARK    9  A    between atoms: C_28  and  C_35
REMARK   10  A    between atoms: C_31  and  C_34
REMARK                            x       y       z     vdW  Elec       q    Type
REMARK                         _______ _______ _______ _____ _____    ______ ____
ROOT
ATOM      1  C   UNL     1      -0.211   1.527   0.018  0.00  0.00    +0.045 C 
ATOM      2  C   UNL     1      -0.217   0.020   0.023  0.00  0.00    -0.034 A 
ATOM      3  C   UNL     1      -0.533  -0.682  -1.148  0.00  0.00    +0.008 A 
ATOM      4  C   UNL     1      -0.535  -2.046  -1.135  0.00  0.00    +0.047 A 
ATOM      5  C   UNL     1      -0.220  -2.728   0.054  0.00  0.00    +0.142 A 
ATOM      6  N   UNL     1      -0.224  -4.061   0.057  0.00  0.00    -0.214 NA
ATOM      7  C   UNL     1       0.065  -4.755   1.149  0.00  0.00    +0.136 A 
ATOM      8  C   UNL     1       0.387  -4.072   2.345  0.00  0.00    +0.081 A 
ATOM      9  C   UNL     1       0.389  -2.656   2.330  0.00  0.00    +0.267 A 
ATOM     10  O   UNL     1       0.661  -2.026   3.337  0.00  0.00    -0.267 OA
ATOM     11  N   UNL     1       0.085  -2.016   1.180  0.00  0.00    -0.267 N 
ATOM     12  C   UNL     1       0.089  -0.653   1.155  0.00  0.00    +0.099 A 
ENDROOT
BRANCH   8  13
ATOM     13  C   UNL     1       0.700  -4.785   3.525  0.00  0.00    +0.037 C 
ATOM     14  C   UNL     1      -0.126  -4.705   4.609  0.00  0.00    +0.077 C 
ATOM     15  C   UNL     1      -1.397  -4.074   4.736  0.00  0.00    +0.258 C 
ATOM     16  O   UNL     1      -1.905  -3.494   3.792  0.00  0.00    -0.269 OA
ATOM     17  N   UNL     1      -2.009  -4.136   5.905  0.00  0.00    -0.255 N 
ATOM     18  C   UNL     1      -1.446  -4.780   6.951  0.00  0.00    +0.121 C 
ATOM     19  S   UNL     1      -2.052  -4.984   8.539  0.00  0.00    -0.027 S 
ATOM     20  S   UNL     1       0.089  -5.371   6.254  0.00  0.00    -0.061 S 
BRANCH  17  21
ATOM     21  C   UNL     1      -3.317  -3.497   6.069  0.00  0.00    +0.117 C 
BRANCH  21  22
ATOM     22  C   UNL     1      -4.421  -4.499   5.723  0.00  0.00    +0.047 C 
BRANCH  22  23
ATOM     23  C   UNL     1      -5.787  -3.832   5.894  0.00  0.00    +0.161 C 
BRANCH  23  24
ATOM     24  O   UNL     1      -6.818  -4.767   5.571  0.00  0.00    -0.383 OA
ATOM     25  C   UNL     1      -8.141  -4.242   5.699  0.00  0.00    +0.193 C 
ENDBRANCH  23  24
ENDBRANCH  22  23
ENDBRANCH  21  22
ENDBRANCH  17  21
ENDBRANCH   8  13
BRANCH   7  26
ATOM     26  N   UNL     1       0.051  -6.133   1.119  0.00  0.00    -0.310 N 
ATOM     27  C   UNL     1      -0.484  -6.909   2.249  0.00  0.00    +0.138 C 
ATOM     28  C   UNL     1      -1.489  -7.929   1.701  0.00  0.00    +0.133 C 
ATOM     29  O   UNL     1      -0.875  -8.678   0.650  0.00  0.00    -0.371 OA
ATOM     30  C   UNL     1      -0.487  -7.892  -0.479  0.00  0.00    +0.133 C 
ATOM     31  C   UNL     1       0.565  -6.870  -0.046  0.00  0.00    +0.138 C 
ATOM     32  C   UNL     1       0.098  -8.804  -1.560  0.00  0.00    +0.039 C 
ATOM     33  C   UNL     1      -2.717  -7.195   1.157  0.00  0.00    +0.039 C 
ENDBRANCH   7  26
TORSDOF 6
