REMARK  Name = ZINC44477736
REMARK  5 active torsions:
REMARK  status: ('A' for Active; 'I' for Inactive)
REMARK    1  A    between atoms: C_1  and  C_2
REMARK    2  A    between atoms: N_5  and  C_11
REMARK    3  A    between atoms: C_7  and  C_9
REMARK    4  A    between atoms: C_7  and  C_10
REMARK    5  A    between atoms: C_11  and  C_12
REMARK                            x       y       z     vdW  Elec       q    Type
REMARK                         _______ _______ _______ _____ _____    ______ ____
ROOT
ATOM      1  C   UNL     1      -0.019   1.526   0.010  0.00  0.00    +0.039 C 
ATOM      2  C   UNL     1       0.002  -0.004   0.002  0.00  0.00    +0.130 C 
ATOM      3  C   UNL     1       0.720  -0.499  -1.256  0.00  0.00    +0.116 C 
ATOM      4  N   UNL     1       0.805  -1.966  -1.221  0.00  0.00    -0.291 NA
ATOM      5  C   UNL     1       1.523  -2.417  -0.020  0.00  0.00    +0.119 C 
ATOM      6  C   UNL     1       0.797  -1.904   1.226  0.00  0.00    +0.077 C 
ATOM      7  O   UNL     1       0.695  -0.479   1.159  0.00  0.00    -0.368 OA
ATOM      8  C   UNL     1       1.583  -2.302   2.476  0.00  0.00    +0.042 C 
ATOM      9  C   UNL     1      -0.605  -2.513   1.287  0.00  0.00    +0.042 C 
ENDROOT
BRANCH   4  10
ATOM     10  C   UNL     1       1.439  -2.486  -2.440  0.00  0.00    +0.144 C 
BRANCH  10  11
ATOM     11  C   UNL     1       0.552  -2.207  -3.626  0.00  0.00    +0.104 A 
ATOM     12  C   UNL     1      -0.408  -3.076  -4.041  0.00  0.00    +0.122 A 
ATOM     13  S   UNL     1      -1.062  -2.268  -5.360  0.00  0.00    +0.049 S 
ATOM     14  N   UNL     1      -0.146  -0.934  -5.336  0.00  0.00    -0.109 NA
ATOM     15  N   UNL     1       0.644  -1.100  -4.333  0.00  0.00    -0.143 NA
ATOM     16 CL   UNL     1      -0.843  -4.620  -3.380  0.00  0.00    -0.072 Cl
ENDBRANCH  10  11
ENDBRANCH   4  10
TORSDOF 2
