REMARK  Name = ZINC04177266
REMARK  7 active torsions:
REMARK  status: ('A' for Active; 'I' for Inactive)
REMARK    1  A    between atoms: C_1  and  C_2
REMARK    2  A    between atoms: C_4  and  O_9
REMARK    3  A    between atoms: O_9  and  C_10
REMARK    4  A    between atoms: C_10  and  C_12
REMARK    5  A    between atoms: C_10  and  C_13
REMARK    6  A    between atoms: N_15  and  C_16
REMARK    7  A    between atoms: C_17  and  C_25
REMARK                            x       y       z     vdW  Elec       q    Type
REMARK                         _______ _______ _______ _____ _____    ______ ____
ROOT
ATOM      1  C   UNL     1       1.469   4.424  -0.153  0.00  0.00    +0.258 C 
ATOM      2  O   UNL     1       0.274   4.469   0.052  0.00  0.00    -0.271 OA
ATOM      3  N   UNL     1       2.077   3.236  -0.338  0.00  0.00    -0.276 N 
ATOM      4  H   UNL     1       3.033   3.200  -0.501  0.00  0.00    +0.155 HD
ENDROOT
BRANCH   3   5
ATOM      5  C   UNL     1       1.337   2.064  -0.295  0.00  0.00    +0.084 A 
ATOM      6  C   UNL     1       1.779   0.759  -0.460  0.00  0.00    +0.068 A 
ATOM      7  C   UNL     1       0.790  -0.301  -0.367  0.00  0.00    -0.023 A 
ATOM      8  C   UNL     1      -0.474   0.110  -0.126  0.00  0.00    -0.004 A 
ATOM      9  S   UNL     1      -0.363   1.874  -0.022  0.00  0.00    -0.077 S 
ATOM     10  C   UNL     1      -1.692  -0.750   0.017  0.00  0.00    +0.043 C 
ATOM     11  C   UNL     1      -1.362  -2.150  -0.520  0.00  0.00    +0.005 C 
ATOM     12  C   UNL     1      -0.026  -2.604   0.074  0.00  0.00    +0.005 C 
ATOM     13  C   UNL     1       1.117  -1.781  -0.525  0.00  0.00    +0.037 C 
BRANCH   6  14
ATOM     14  C   UNL     1       3.191   0.461  -0.719  0.00  0.00    +0.244 C 
ATOM     15  O   UNL     1       3.602   0.410  -1.863  0.00  0.00    -0.270 OA
ATOM     16  N   UNL     1       4.034   0.244   0.311  0.00  0.00    -0.325 N 
ATOM     17  H   UNL     1       3.706   0.285   1.223  0.00  0.00    +0.145 HD
ATOM     18  H   UNL     1       4.968   0.047   0.139  0.00  0.00    +0.145 HD
ENDBRANCH   6  14
ENDBRANCH   3   5
BRANCH   1  19
ATOM     19  C   UNL     1       2.273   5.698  -0.200  0.00  0.00    +0.256 C 
ATOM     20  C   UNL     1       3.267   5.716   0.963  0.00  0.00    +0.062 C 
BRANCH  19  21
ATOM     21  O   UNL     1       1.395   6.820  -0.093  0.00  0.00    -0.480 OA
BRANCH  21  25
ATOM     22  C   UNL     1       0.508  11.483  -1.229  0.00  0.00    +0.045 C 
ATOM     23  C   UNL     1       1.426  10.289  -1.191  0.00  0.00    -0.029 A 
ATOM     24  C   UNL     1       0.982   9.094  -0.658  0.00  0.00    +0.050 A 
ATOM     25  C   UNL     1       1.828   7.995  -0.620  0.00  0.00    +0.122 A 
ATOM     26  C   UNL     1       3.117   8.097  -1.125  0.00  0.00    +0.047 A 
ATOM     27  C   UNL     1       3.555   9.292  -1.660  0.00  0.00    +0.024 A 
ATOM     28  C   UNL     1       2.711  10.388  -1.694  0.00  0.00    +0.044 A 
ATOM     29 CL   UNL     1       3.264  11.889  -2.368  0.00  0.00    -0.083 Cl
ENDBRANCH  21  25
ENDBRANCH  19  21
ENDBRANCH   1  19
TORSDOF 5
