REMARK  Name = ZINC51360809
REMARK  4 active torsions:
REMARK  status: ('A' for Active; 'I' for Inactive)
REMARK    1  A    between atoms: C_1  and  C_2
REMARK    2  A    between atoms: N_7  and  C_9
REMARK    3  A    between atoms: C_9  and  C_10
REMARK    4  A    between atoms: C_11  and  C_19
REMARK                            x       y       z     vdW  Elec       q    Type
REMARK                         _______ _______ _______ _____ _____    ______ ____
ROOT
ATOM      1  C   UNL     1       1.321  -3.966   2.518  0.00  0.00    +0.104 A 
ATOM      2  C   UNL     1       2.247  -4.828   2.011  0.00  0.00    +0.110 A 
ATOM      3  C   UNL     1       1.733  -6.183   2.301  0.00  0.00    +0.035 A 
ATOM      4  C   UNL     1       2.194  -7.470   2.051  0.00  0.00    +0.012 A 
ATOM      5  C   UNL     1       1.450  -8.554   2.466  0.00  0.00    +0.001 A 
ATOM      6  C   UNL     1       0.247  -8.361   3.129  0.00  0.00    +0.004 A 
ATOM      7  C   UNL     1      -0.220  -7.089   3.381  0.00  0.00    +0.047 A 
ATOM      8  C   UNL     1       0.517  -5.984   2.971  0.00  0.00    +0.136 A 
ATOM      9  O   UNL     1       0.322  -4.654   3.080  0.00  0.00    -0.461 OA
ENDROOT
BRANCH   2  10
ATOM     10  C   UNL     1       3.494  -4.484   1.321  0.00  0.00    +0.390 C 
ATOM     11  O   UNL     1       3.794  -3.309   1.149  0.00  0.00    -0.240 OA
ATOM     12  O   UNL     1       4.235  -5.370   0.916  0.00  0.00    -0.240 OA
ENDBRANCH   2  10
BRANCH   1  13
ATOM     13  C   UNL     1       1.413  -2.463   2.461  0.00  0.00    -0.002 C 
BRANCH  13  19
ATOM     14  C   UNL     1      -0.019   1.526   0.010  0.00  0.00    +0.005 C 
ATOM     15  C   UNL     1       0.002  -0.004   0.002  0.00  0.00    -0.031 C 
ATOM     16  C   UNL     1       0.721  -0.499  -1.257  0.00  0.00    -0.001 C 
ATOM     17  C   UNL     1       0.805  -2.027  -1.217  0.00  0.00    -0.018 C 
ATOM     18  C   UNL     1       1.518  -2.460   0.066  0.00  0.00    -0.078 C 
ATOM     19  N   UNL     1       0.768  -1.979   1.233  0.00  0.00    +0.385 N 
ATOM     20  C   UNL     1       0.744  -0.512   1.240  0.00  0.00    -0.075 C 
ATOM     21  H   UNL     1      -0.177  -2.330   1.192  0.00  0.00    -0.081 HD
ENDBRANCH  13  19
ENDBRANCH   1  13
TORSDOF 3
