REMARK  Name = ZINC08635527
REMARK  14 active torsions:
REMARK  status: ('A' for Active; 'I' for Inactive)
REMARK    1  A    between atoms: C_1  and  C_2
REMARK    2  A    between atoms: C_4  and  C_39
REMARK    3  A    between atoms: C_6  and  N_8
REMARK    4  A    between atoms: N_8  and  C_9
REMARK    5  A    between atoms: C_9  and  N_11
REMARK    6  A    between atoms: N_11  and  C_12
REMARK    7  A    between atoms: C_12  and  C_13
REMARK    8  A    between atoms: C_21  and  C_23
REMARK    9  A    between atoms: C_25  and  C_29
REMARK   10  A    between atoms: N_27  and  C_28
REMARK   11  A    between atoms: C_32  and  O_37
REMARK   12  A    between atoms: C_33  and  O_35
REMARK   13  A    between atoms: O_35  and  C_36
REMARK   14  A    between atoms: O_37  and  C_38
REMARK                            x       y       z     vdW  Elec       q    Type
REMARK                         _______ _______ _______ _____ _____    ______ ____
ROOT
ATOM      1  C   UNL     1       8.139  -1.438   1.690  0.00  0.00    -0.051 C 
ATOM      2  C   UNL     1       7.800  -1.705   0.221  0.00  0.00    -0.010 C 
ATOM      3  C   UNL     1       8.165  -0.464  -0.605  0.00  0.00    -0.007 C 
ATOM      4  C   UNL     1       9.662  -0.181  -0.426  0.00  0.00    -0.015 C 
ATOM      5  C   UNL     1       9.949   0.043   1.061  0.00  0.00    -0.078 C 
ATOM      6  C   UNL     1       7.723   0.932   1.413  0.00  0.00    -0.068 C 
ATOM      7  C   UNL     1       7.373   0.733  -0.065  0.00  0.00    +0.024 C 
ATOM      8  N   UNL     1       8.706  -0.082   1.851  0.00  0.00    +0.383 N 
ATOM      9  H   UNL     1       8.924   0.072   2.843  0.00  0.00    -0.081 HD
ENDROOT
BRANCH   7  10
ATOM     10  C   UNL     1       5.896   0.465  -0.202  0.00  0.00    +0.041 A 
ATOM     11  C   UNL     1       4.921   0.963   0.589  0.00  0.00    +0.053 A 
ATOM     12  C   UNL     1       3.689   0.468   0.121  0.00  0.00    +0.093 A 
ATOM     13  N   UNL     1       3.932  -0.306  -0.916  0.00  0.00    -0.171 NA
ATOM     14  N   UNL     1       5.315  -0.316  -1.137  0.00  0.00    -0.271 N 
ATOM     15  C   UNL     1       6.010  -1.051  -2.197  0.00  0.00    +0.172 C 
BRANCH  12  16
ATOM     16  C   UNL     1       2.354   0.761   0.698  0.00  0.00    +0.006 A 
ATOM     17  C   UNL     1       2.230   1.678   1.740  0.00  0.00    +0.014 A 
ATOM     18  C   UNL     1       0.988   1.951   2.276  0.00  0.00    +0.050 A 
ATOM     19  C   UNL     1      -0.139   1.313   1.781  0.00  0.00    +0.162 A 
ATOM     20  C   UNL     1      -0.021   0.395   0.741  0.00  0.00    +0.162 A 
ATOM     21  C   UNL     1       1.222   0.119   0.200  0.00  0.00    +0.059 A 
BRANCH  20  22
ATOM     22  O   UNL     1      -1.127  -0.234   0.260  0.00  0.00    -0.491 OA
ATOM     23  C   UNL     1      -0.932  -1.163  -0.808  0.00  0.00    +0.277 C 
ENDBRANCH  20  22
BRANCH  19  24
ATOM     24  O   UNL     1      -1.361   1.584   2.312  0.00  0.00    -0.491 OA
ATOM     25  C   UNL     1      -1.409   2.536   3.377  0.00  0.00    +0.277 C 
ENDBRANCH  19  24
ENDBRANCH  12  16
ENDBRANCH   7  10
BRANCH   1  26
ATOM     26  C   UNL     1       6.869  -1.551   2.536  0.00  0.00    +0.088 C 
BRANCH  26  27
ATOM     27  N   UNL     1       7.170  -1.177   3.920  0.00  0.00    -0.328 N 
ATOM     28  H   UNL     1       8.070  -0.912   4.166  0.00  0.00    +0.148 HD
BRANCH  27  29
ATOM     29  C   UNL     1       6.196  -1.201   4.851  0.00  0.00    +0.134 C 
ATOM     30  S   UNL     1       4.607  -1.669   4.416  0.00  0.00    -0.019 S 
BRANCH  29  31
ATOM     31  N   UNL     1       6.472  -0.857   6.125  0.00  0.00    -0.297 N 
ATOM     32  H   UNL     1       7.351  -0.517   6.355  0.00  0.00    +0.154 HD
BRANCH  31  38
ATOM     33  C   UNL     1       4.170   0.954  10.073  0.00  0.00    +0.044 C 
ATOM     34  C   UNL     1       4.354  -0.129   9.040  0.00  0.00    -0.048 A 
ATOM     35  C   UNL     1       3.554  -1.256   9.071  0.00  0.00    +0.006 A 
ATOM     36  C   UNL     1       3.721  -2.252   8.125  0.00  0.00    -0.048 A 
ATOM     37  C   UNL     1       4.687  -2.122   7.147  0.00  0.00    +0.026 A 
ATOM     38  C   UNL     1       5.492  -0.991   7.114  0.00  0.00    +0.033 A 
ATOM     39  C   UNL     1       5.326   0.004   8.068  0.00  0.00    +0.026 A 
ATOM     40  C   UNL     1       2.846  -3.478   8.162  0.00  0.00    +0.044 C 
ENDBRANCH  31  38
ENDBRANCH  29  31
ENDBRANCH  27  29
ENDBRANCH  26  27
ENDBRANCH   1  26
TORSDOF 9
