REMARK  Name = ZINC00463027
REMARK  7 active torsions:
REMARK  status: ('A' for Active; 'I' for Inactive)
REMARK    1  A    between atoms: C_1  and  C_2
REMARK    2  A    between atoms: C_2  and  C_3
REMARK    3  A    between atoms: C_6  and  C_9
REMARK    4  A    between atoms: C_9  and  C_11
REMARK    5  A    between atoms: C_11  and  C_12
REMARK    6  A    between atoms: C_12  and  O_24
REMARK    7  A    between atoms: N_19  and  C_22
REMARK                            x       y       z     vdW  Elec       q    Type
REMARK                         _______ _______ _______ _____ _____    ______ ____
ROOT
ATOM      1  C   UNL     1      -0.753   1.593  -1.232  0.00  0.00    +0.175 C 
ATOM      2  C   UNL     1      -0.038   1.157  -2.490  0.00  0.00    +0.016 A 
ATOM      3  C   UNL     1       0.259  -0.080  -3.018  0.00  0.00    +0.028 A 
ATOM      4  C   UNL     1       0.942  -0.172  -4.219  0.00  0.00    +0.041 A 
ATOM      5  C   UNL     1       1.323   0.981  -4.883  0.00  0.00    +0.022 A 
ATOM      6  C   UNL     1       1.029   2.228  -4.354  0.00  0.00    +0.025 A 
ATOM      7  C   UNL     1       0.340   2.325  -3.146  0.00  0.00    +0.043 A 
ATOM      8  N   UNL     1      -0.073   3.443  -2.418  0.00  0.00    -0.271 N 
ATOM      9  C   UNL     1      -0.717   3.105  -1.289  0.00  0.00    +0.256 C 
ATOM     10  O   UNL     1      -1.183   3.868  -0.469  0.00  0.00    -0.272 OA
ATOM     11  C   UNL     1       0.169   4.825  -2.838  0.00  0.00    +0.138 C 
ATOM     12 CL   UNL     1       1.317  -1.728  -4.889  0.00  0.00    -0.084 Cl
ENDROOT
BRANCH   1  13
ATOM     13  O   UNL     1      -2.102   1.123  -1.234  0.00  0.00    -0.374 OA
ATOM     14  H   UNL     1      -2.616   1.399  -0.463  0.00  0.00    +0.211 HD
ENDBRANCH   1  13
BRANCH   1  15
ATOM     15  C   UNL     1      -0.013   1.086   0.008  0.00  0.00    +0.129 C 
BRANCH  15  16
ATOM     16  C   UNL     1      -0.718   1.572   1.248  0.00  0.00    +0.167 C 
ATOM     17  O   UNL     1      -1.714   2.256   1.150  0.00  0.00    -0.292 OA
BRANCH  16  21
ATOM     18  C   UNL     1       0.782   0.547   5.081  0.00  0.00    -0.048 A 
ATOM     19  C   UNL     1      -0.356   1.327   4.973  0.00  0.00    +0.004 A 
ATOM     20  C   UNL     1      -0.850   1.665   3.731  0.00  0.00    +0.011 A 
ATOM     21  C   UNL     1      -0.198   1.216   2.578  0.00  0.00    +0.018 A 
ATOM     22  C   UNL     1       0.948   0.422   2.695  0.00  0.00    +0.011 A 
ATOM     23  C   UNL     1       1.433   0.098   3.945  0.00  0.00    +0.004 A 
BRANCH  18  25
ATOM     24  C   UNL     1       0.679  -1.129   6.906  0.00  0.00    +0.009 C 
ATOM     25  C   UNL     1       1.315   0.183   6.443  0.00  0.00    +0.032 C 
ENDBRANCH  18  25
ENDBRANCH  16  21
ENDBRANCH  15  16
ENDBRANCH   1  15
TORSDOF 5
