REMARK  Name = ZINC00625548
REMARK  4 active torsions:
REMARK  status: ('A' for Active; 'I' for Inactive)
REMARK    1  A    between atoms: C_6  and  C_7
REMARK    2  A    between atoms: C_10  and  C_12
REMARK    3  A    between atoms: C_14  and  C_25
REMARK    4  A    between atoms: C_15  and  N_24
REMARK                            x       y       z     vdW  Elec       q    Type
REMARK                         _______ _______ _______ _____ _____    ______ ____
ROOT
ATOM      1  C   UNL     1      -2.804   2.261  -2.422  0.00  0.00    +0.137 C 
ATOM      2  C   UNL     1      -1.953   2.054  -3.644  0.00  0.00    +0.101 C 
ATOM      3  C   UNL     1      -0.618   1.854  -3.524  0.00  0.00    +0.198 C 
ATOM      4  O   UNL     1      -0.018   1.838  -2.324  0.00  0.00    -0.445 OA
ATOM      5  C   UNL     1      -0.742   1.586  -1.217  0.00  0.00    +0.115 C 
ATOM      6  C   UNL     1      -2.075   1.772  -1.194  0.00  0.00    +0.049 C 
ATOM      7  C   UNL     1      -2.828   1.524  -0.030  0.00  0.00    +0.163 C 
ATOM      8  O   UNL     1      -4.032   1.686  -0.053  0.00  0.00    -0.292 OA
ATOM      9  C   UNL     1      -2.170   1.063   1.242  0.00  0.00    +0.080 C 
ATOM     10  C   UNL     1      -0.727   1.579   1.268  0.00  0.00    +0.016 C 
ATOM     11  C   UNL     1      -0.013   1.086   0.008  0.00  0.00    +0.075 C 
ENDROOT
BRANCH   1  15
ATOM     12  C   UNL     1      -2.837   5.890  -2.006  0.00  0.00    +0.135 A 
ATOM     13  C   UNL     1      -4.174   5.667  -2.107  0.00  0.00    +0.050 A 
ATOM     14  C   UNL     1      -4.341   4.278  -2.281  0.00  0.00    +0.046 A 
ATOM     15  C   UNL     1      -3.111   3.728  -2.270  0.00  0.00    +0.118 A 
ATOM     16  O   UNL     1      -2.205   4.705  -2.106  0.00  0.00    -0.459 OA
BRANCH  12  22
ATOM     17  C   UNL     1      -2.966   8.363  -1.735  0.00  0.00    +0.012 A 
ATOM     18  C   UNL     1      -2.356   9.587  -1.554  0.00  0.00    +0.016 A 
ATOM     19  C   UNL     1      -0.977   9.670  -1.466  0.00  0.00    +0.018 A 
ATOM     20  C   UNL     1      -0.202   8.527  -1.552  0.00  0.00    +0.016 A 
ATOM     21  C   UNL     1      -0.800   7.296  -1.728  0.00  0.00    +0.012 A 
ATOM     22  C   UNL     1      -2.190   7.206  -1.818  0.00  0.00    +0.017 A 
ATOM     23 BR   UNL     1      -0.149  11.353  -1.225  0.00  0.00    -0.050 Br
ENDBRANCH  12  22
ENDBRANCH   1  15
BRANCH   3  24
ATOM     24  N   UNL     1       0.137   1.664  -4.655  0.00  0.00    -0.328 N 
ATOM     25  H   UNL     1      -0.286   1.673  -5.528  0.00  0.00    +0.145 HD
ATOM     26  H   UNL     1       1.093   1.520  -4.581  0.00  0.00    +0.145 HD
ENDBRANCH   3  24
BRANCH   2  27
ATOM     27  C   UNL     1      -2.557   2.068  -4.942  0.00  0.00    +0.101 C 
ATOM     28  N   UNL     1      -3.036   2.079  -5.972  0.00  0.00    -0.191 NA
ENDBRANCH   2  27
TORSDOF 4
