REMARK  Name = ZINC36595986
REMARK  9 active torsions:
REMARK  status: ('A' for Active; 'I' for Inactive)
REMARK    1  A    between atoms: C_1  and  C_2
REMARK    2  A    between atoms: C_5  and  C_7
REMARK    3  A    between atoms: C_7  and  N_8
REMARK    4  A    between atoms: N_8  and  C_9
REMARK    5  A    between atoms: C_9  and  C_11
REMARK    6  A    between atoms: C_9  and  C_18
REMARK    7  A    between atoms: C_15  and  O_17
REMARK    8  A    between atoms: N_20  and  C_21
REMARK    9  A    between atoms: C_27  and  C_29
REMARK                            x       y       z     vdW  Elec       q    Type
REMARK                         _______ _______ _______ _____ _____    ______ ____
ROOT
ATOM      1  C   UNL     1       3.835  -3.626  -0.746  0.00  0.00    +0.193 C 
ENDROOT
BRANCH   1   2
ATOM      2  C   UNL     1       4.092  -3.062  -2.120  0.00  0.00    -0.015 A 
ATOM      3  C   UNL     1       3.235  -3.363  -3.162  0.00  0.00    +0.006 A 
ATOM      4  C   UNL     1       3.468  -2.847  -4.423  0.00  0.00    +0.004 A 
ATOM      5  C   UNL     1       4.559  -2.029  -4.645  0.00  0.00    +0.045 A 
ATOM      6  C   UNL     1       5.421  -1.725  -3.602  0.00  0.00    +0.117 A 
ATOM      7  C   UNL     1       5.181  -2.239  -2.335  0.00  0.00    +0.051 A 
BRANCH   6   8
ATOM      8  O   UNL     1       6.495  -0.921  -3.817  0.00  0.00    -0.507 OA
ATOM      9  H   UNL     1       6.315   0.020  -3.682  0.00  0.00    +0.292 HD
ENDBRANCH   6   8
ENDBRANCH   1   2
BRANCH   1  10
ATOM     10  C   UNL     1       5.114  -4.196  -0.190  0.00  0.00    +0.238 C 
ATOM     11  O   UNL     1       5.345  -5.383  -0.293  0.00  0.00    -0.273 OA
ATOM     12  N   UNL     1       6.003  -3.388   0.422  0.00  0.00    -0.311 N 
ATOM     13  H   UNL     1       5.818  -2.439   0.505  0.00  0.00    +0.149 HD
BRANCH  12  14
ATOM     14  C   UNL     1       7.246  -3.943   0.963  0.00  0.00    +0.073 C 
ATOM     15  C   UNL     1       6.992  -4.486   2.370  0.00  0.00    +0.022 C 
ATOM     16  C   UNL     1       8.291  -5.066   2.935  0.00  0.00    +0.002 C 
ATOM     17  C   UNL     1       9.355  -3.968   2.997  0.00  0.00    +0.000 C 
ATOM     18  C   UNL     1       9.608  -3.424   1.589  0.00  0.00    +0.002 C 
ATOM     19  C   UNL     1       8.310  -2.845   1.024  0.00  0.00    +0.022 C 
ENDBRANCH  12  14
ENDBRANCH   1  10
BRANCH   1  20
ATOM     20  N   UNL     1       2.826  -4.684  -0.834  0.00  0.00    -0.275 N 
ATOM     21  C   UNL     1       1.666  -4.566  -0.159  0.00  0.00    +0.248 C 
ATOM     22  O   UNL     1       0.790  -5.396  -0.306  0.00  0.00    -0.270 OA
BRANCH  21  23
ATOM     23  C   UNL     1       1.458  -3.428   0.762  0.00  0.00    +0.038 A 
ATOM     24  C   UNL     1       1.663  -2.121   0.317  0.00  0.00    +0.013 A 
ATOM     25  C   UNL     1       1.468  -1.063   1.180  0.00  0.00    +0.002 A 
ATOM     26  C   UNL     1       1.069  -1.294   2.485  0.00  0.00    +0.020 A 
ATOM     27  C   UNL     1       0.863  -2.588   2.933  0.00  0.00    +0.042 A 
ATOM     28  C   UNL     1       1.051  -3.656   2.077  0.00  0.00    +0.033 A 
ATOM     29 CL   UNL     1       0.363  -2.869   4.571  0.00  0.00    -0.084 Cl
ENDBRANCH  21  23
BRANCH  20  30
ATOM     30  C   UNL     1       3.078  -5.870  -1.656  0.00  0.00    +0.183 C 
BRANCH  30  35
ATOM     31  C   UNL     1       4.386  -9.561   1.523  0.00  0.00    +0.086 C 
ATOM     32  C   UNL     1       3.568  -8.709   0.588  0.00  0.00    +0.102 A 
ATOM     33  C   UNL     1       2.286  -8.928   0.243  0.00  0.00    +0.045 A 
ATOM     34  C   UNL     1       1.919  -7.893  -0.648  0.00  0.00    +0.046 A 
ATOM     35  C   UNL     1       2.999  -7.104  -0.795  0.00  0.00    +0.122 A 
ATOM     36  O   UNL     1       3.993  -7.600  -0.040  0.00  0.00    -0.463 OA
ENDBRANCH  30  35
ENDBRANCH  20  30
ENDBRANCH   1  20
TORSDOF 8
