REMARK  Name = ZINC43283653
REMARK  7 active torsions:
REMARK  status: ('A' for Active; 'I' for Inactive)
REMARK    1  A    between atoms: C_1  and  C_2
REMARK    2  A    between atoms: C_2  and  C_3
REMARK    3  A    between atoms: C_3  and  C_5
REMARK    4  A    between atoms: C_3  and  N_19
REMARK    5  A    between atoms: C_5  and  C_7
REMARK    6  A    between atoms: C_5  and  S_13
REMARK    7  A    between atoms: S_13  and  C_14
REMARK                            x       y       z     vdW  Elec       q    Type
REMARK                         _______ _______ _______ _____ _____    ______ ____
ROOT
ATOM      1  C   UNL     1       0.869  -2.026   1.065  0.00  0.00    +0.076 C 
ENDROOT
BRANCH   1   2
ATOM      2  C   UNL     1       1.326  -2.517   2.415  0.00  0.00    +0.003 A 
ATOM      3  C   UNL     1       2.434  -3.229   2.733  0.00  0.00    +0.013 A 
ATOM      4  C   UNL     1       2.653  -3.574   4.054  0.00  0.00    +0.023 A 
ATOM      5  C   UNL     1       1.752  -3.188   4.992  0.00  0.00    +0.055 A 
ATOM      6  S   UNL     1       0.552  -2.304   4.010  0.00  0.00    -0.085 S 
ATOM      7 BR   UNL     1       1.768  -3.500   6.857  0.00  0.00    -0.043 Br
ENDBRANCH   1   2
BRANCH   1   8
ATOM      8  C   UNL     1       0.774  -0.499   1.084  0.00  0.00    -0.057 C 
BRANCH   8   9
ATOM      9  N   UNL     1       0.270  -0.024  -0.212  0.00  0.00    +0.381 N 
ATOM     10  H   UNL     1       0.208   0.983  -0.200  0.00  0.00    -0.090 HD
ATOM     11  H   UNL     1       0.901  -0.313  -0.944  0.00  0.00    -0.090 HD
ATOM     12  H   UNL     1      -0.644  -0.415  -0.382  0.00  0.00    -0.090 HD
ENDBRANCH   8   9
BRANCH   8  14
ATOM     13  C   UNL     1       2.044   1.614   1.492  0.00  0.00    +0.002 C 
ATOM     14  C   UNL     1       2.160   0.096   1.341  0.00  0.00    -0.018 C 
ENDBRANCH   8  14
ENDBRANCH   1   8
BRANCH   1  15
ATOM     15  S   UNL     1      -0.760  -2.728   0.686  0.00  0.00    -0.090 S 
BRANCH  15  16
ATOM     16  C   UNL     1      -0.446  -4.451   0.489  0.00  0.00    +0.159 A 
ATOM     17  N   UNL     1       0.703  -5.115   0.491  0.00  0.00    -0.135 NA
ATOM     18  N   UNL     1       0.747  -6.366   0.334  0.00  0.00    -0.149 NA
ATOM     19  C   UNL     1      -0.339  -7.091   0.159  0.00  0.00    +0.182 A 
ATOM     20  S   UNL     1      -1.586  -5.808   0.236  0.00  0.00    -0.048 S 
ENDBRANCH  15  16
ENDBRANCH   1  15
TORSDOF 6
