REMARK  Name = ZINC63280142
REMARK  4 active torsions:
REMARK  status: ('A' for Active; 'I' for Inactive)
REMARK    1  A    between atoms: C_6  and  C_11
REMARK    2  A    between atoms: C_19  and  C_21
REMARK    3  A    between atoms: C_21  and  O_22
REMARK    4  A    between atoms: O_22  and  C_23
REMARK                            x       y       z     vdW  Elec       q    Type
REMARK                         _______ _______ _______ _____ _____    ______ ____
ROOT
ATOM      1  C   UNL     1       3.639  -2.760  -1.304  0.00  0.00    +0.202 C 
ATOM      2  N   UNL     1       5.115  -2.892  -1.272  0.00  0.00    -0.231 NA
ATOM      3  N   UNL     1       5.411  -4.328  -1.417  0.00  0.00    -0.224 NA
ATOM      4  C   UNL     1       4.211  -4.844  -2.106  0.00  0.00    +0.240 C 
ATOM      5  N   UNL     1       3.117  -4.144  -1.354  0.00  0.00    -0.206 N 
ATOM      6  N   UNL     1       2.118  -4.988  -0.919  0.00  0.00    -0.175 NA
ATOM      7  C   UNL     1       2.232  -6.274  -0.904  0.00  0.00    +0.132 C 
ATOM      8  S   UNL     1       3.864  -6.582  -1.650  0.00  0.00    -0.064 S 
ATOM      9  H   UNL     1       5.492  -2.531  -0.409  0.00  0.00    +0.143 HD
ATOM     10  H   UNL     1       6.239  -4.473  -1.975  0.00  0.00    +0.144 HD
ENDROOT
BRANCH   1  16
ATOM     11  C   UNL     1      -0.016   1.348   0.009  0.00  0.00    +0.001 A 
ATOM     12  C   UNL     1       1.166   2.101   0.002  0.00  0.00    +0.002 A 
ATOM     13  C   UNL     1       2.391   1.535  -0.013  0.00  0.00    +0.026 A 
ATOM     14  C   UNL     1       2.529   0.120  -0.022  0.00  0.00    +0.043 A 
ATOM     15  N   UNL     1       3.587  -0.654  -0.037  0.00  0.00    -0.375 N 
ATOM     16  C   UNL     1       3.143  -2.053  -0.041  0.00  0.00    +0.141 C 
ATOM     17  C   UNL     1       1.631  -2.008  -0.025  0.00  0.00    +0.010 C 
ATOM     18  C   UNL     1       1.295  -0.698  -0.014  0.00  0.00    -0.004 A 
ATOM     19  C   UNL     1       0.002  -0.004   0.002  0.00  0.00    +0.010 A 
ATOM     20  H   UNL     1       4.509  -0.353  -0.045  0.00  0.00    +0.160 HD
ENDBRANCH   1  16
BRANCH   7  21
ATOM     21  C   UNL     1       1.241  -7.289  -0.395  0.00  0.00    +0.293 C 
BRANCH  21  22
ATOM     22  O   UNL     1       0.083  -6.616   0.102  0.00  0.00    -0.485 OA
BRANCH  22  23
ATOM     23  C   UNL     1      -0.915  -7.391   0.602  0.00  0.00    +0.121 A 
ATOM     24  C   UNL     1      -0.779  -8.772   0.619  0.00  0.00    +0.048 A 
ATOM     25  C   UNL     1      -1.795  -9.559   1.127  0.00  0.00    +0.042 A 
ATOM     26  C   UNL     1      -2.948  -8.971   1.618  0.00  0.00    +0.124 A 
ATOM     27  C   UNL     1      -3.085  -7.593   1.601  0.00  0.00    +0.042 A 
ATOM     28  C   UNL     1      -2.068  -6.803   1.100  0.00  0.00    +0.048 A 
ATOM     29  F   UNL     1      -3.940  -9.742   2.114  0.00  0.00    -0.205 F 
ENDBRANCH  22  23
ENDBRANCH  21  22
ENDBRANCH   7  21
TORSDOF 4
