REMARK  Name = ZINC24890853
REMARK  6 active torsions:
REMARK  status: ('A' for Active; 'I' for Inactive)
REMARK    1  A    between atoms: C_1  and  C_2
REMARK    2  A    between atoms: N_13  and  C_25
REMARK    3  A    between atoms: C_14  and  S_16
REMARK    4  A    between atoms: S_16  and  C_17
REMARK    5  A    between atoms: C_17  and  C_18
REMARK    6  A    between atoms: C_18  and  C_19
REMARK                            x       y       z     vdW  Elec       q    Type
REMARK                         _______ _______ _______ _____ _____    ______ ____
ROOT
ATOM      1  C   UNL     1       6.859  -3.688   0.011  0.00  0.00    +0.008 C 
ATOM      2  C   UNL     1       5.744  -2.686   0.315  0.00  0.00    -0.009 C 
ATOM      3  C   UNL     1       5.952  -1.418  -0.517  0.00  0.00    +0.008 C 
ATOM      4  C   UNL     1       4.995  -0.323  -0.044  0.00  0.00    +0.037 C 
ATOM      5  C   UNL     1       3.574  -0.880  -0.034  0.00  0.00    -0.023 A 
ATOM      6  C   UNL     1       3.356  -2.211  -0.039  0.00  0.00    -0.004 A 
ATOM      7  S   UNL     1       1.592  -2.388  -0.025  0.00  0.00    -0.073 S 
ATOM      8  C   UNL     1       1.152  -0.668  -0.012  0.00  0.00    +0.117 A 
ATOM      9  C   UNL     1       2.394  -0.013  -0.020  0.00  0.00    +0.076 A 
ATOM     10  C   UNL     1       2.345   1.417  -0.013  0.00  0.00    +0.268 A 
ATOM     11  O   UNL     1       3.374   2.070  -0.019  0.00  0.00    -0.267 OA
ATOM     12  N   UNL     1       1.148   2.030   0.002  0.00  0.00    -0.253 N 
ATOM     13  C   UNL     1      -0.016   1.313   0.009  0.00  0.00    +0.177 A 
ATOM     14  N   UNL     1       0.002  -0.004   0.002  0.00  0.00    -0.216 NA
ATOM     15  C   UNL     1       4.385  -3.299  -0.053  0.00  0.00    +0.046 C 
ENDROOT
BRANCH  12  16
ATOM     16  C   UNL     1       1.093   3.431   0.010  0.00  0.00    +0.087 A 
ATOM     17  C   UNL     1       1.071   4.120   1.215  0.00  0.00    +0.029 A 
ATOM     18  C   UNL     1       1.021   5.500   1.220  0.00  0.00    +0.002 A 
ATOM     19  C   UNL     1       0.983   6.197   0.026  0.00  0.00    +0.003 A 
ATOM     20  C   UNL     1       1.000   5.516  -1.177  0.00  0.00    +0.040 A 
ATOM     21  C   UNL     1       1.054   4.134  -1.189  0.00  0.00    +0.147 A 
ATOM     22  F   UNL     1       1.069   3.468  -2.365  0.00  0.00    -0.203 F 
ENDBRANCH  12  16
BRANCH  13  23
ATOM     23  S   UNL     1      -1.560   2.162   0.021  0.00  0.00    -0.087 S 
BRANCH  23  24
ATOM     24  C   UNL     1      -2.694   0.751   0.019  0.00  0.00    +0.086 C 
BRANCH  24  25
ATOM     25  C   UNL     1      -4.138   1.258   0.028  0.00  0.00    +0.107 C 
BRANCH  25  26
ATOM     26  C   UNL     1      -5.082   0.083   0.026  0.00  0.00    +0.221 C 
ATOM     27  O   UNL     1      -4.643  -1.047   0.018  0.00  0.00    -0.275 OA
ATOM     28  N   UNL     1      -6.414   0.289   0.034  0.00  0.00    -0.240 N 
ATOM     29  C   UNL     1      -7.258  -0.761   0.032  0.00  0.00    +0.303 C 
ATOM     30  O   UNL     1      -6.819  -1.895   0.024  0.00  0.00    -0.253 OA
ATOM     31  N   UNL     1      -8.590  -0.555   0.040  0.00  0.00    -0.313 N 
ATOM     32  H   UNL     1      -6.812   1.315   0.041  0.00  0.00    +0.159 HD
ATOM     33  H   UNL     1      -9.279  -1.413   0.038  0.00  0.00    +0.146 HD
ATOM     34  H   UNL     1      -8.988   0.470   0.047  0.00  0.00    +0.146 HD
ENDBRANCH  25  26
ENDBRANCH  24  25
ENDBRANCH  23  24
ENDBRANCH  13  23
TORSDOF 5
