REMARK  Name = ZINC03516667
REMARK  6 active torsions:
REMARK  status: ('A' for Active; 'I' for Inactive)
REMARK    1  A    between atoms: C_1  and  C_2
REMARK    2  A    between atoms: C_2  and  C_19
REMARK    3  A    between atoms: N_5  and  C_9
REMARK    4  A    between atoms: C_9  and  C_10
REMARK    5  A    between atoms: N_15  and  C_16
REMARK    6  A    between atoms: C_16  and  C_17
REMARK                            x       y       z     vdW  Elec       q    Type
REMARK                         _______ _______ _______ _____ _____    ______ ____
ROOT
ATOM      1  C   UNL     1      -0.662  -0.558   1.264  0.00  0.00    +0.047 C 
ATOM      2  C   UNL     1       0.002  -0.004   0.002  0.00  0.00    +0.135 C 
ATOM      3  C   UNL     1       1.480  -0.340  -0.014  0.00  0.00    +0.251 C 
ATOM      4  O   UNL     1       1.980  -1.445  -0.025  0.00  0.00    -0.272 OA
ATOM      5  N   UNL     1       2.123   0.844  -0.014  0.00  0.00    -0.215 N 
ATOM      6  C   UNL     1       1.266   1.871   0.000  0.00  0.00    +0.310 C 
ATOM      7  O   UNL     1       1.608   3.037   0.003  0.00  0.00    -0.252 OA
ATOM      8  N   UNL     1      -0.018   1.469   0.010  0.00  0.00    -0.281 N 
ATOM      9  H   UNL     1      -0.803   2.038   0.017  0.00  0.00    +0.152 HD
ENDROOT
BRANCH   2  10
ATOM     10  C   UNL     1      -0.679  -0.537  -1.232  0.00  0.00    -0.016 A 
ATOM     11  C   UNL     1      -0.255  -1.724  -1.798  0.00  0.00    +0.006 A 
ATOM     12  C   UNL     1      -0.883  -2.215  -2.927  0.00  0.00    +0.000 A 
ATOM     13  C   UNL     1      -1.930  -1.514  -3.496  0.00  0.00    +0.000 A 
ATOM     14  C   UNL     1      -2.351  -0.324  -2.933  0.00  0.00    +0.000 A 
ATOM     15  C   UNL     1      -1.726   0.165  -1.801  0.00  0.00    +0.006 A 
ENDBRANCH   2  10
BRANCH   5  16
ATOM     16  C   UNL     1       3.581   0.989  -0.027  0.00  0.00    +0.214 C 
BRANCH  16  17
ATOM     17  C   UNL     1       4.067   1.047  -1.453  0.00  0.00    +0.238 C 
ATOM     18  O   UNL     1       3.274   0.974  -2.367  0.00  0.00    -0.274 OA
ATOM     19  N   UNL     1       5.383   1.179  -1.711  0.00  0.00    -0.239 N 
ATOM     20  C   UNL     1       5.817   1.231  -2.986  0.00  0.00    +0.306 C 
ATOM     21  O   UNL     1       5.022   1.158  -3.902  0.00  0.00    -0.252 OA
ATOM     22  N   UNL     1       7.133   1.363  -3.244  0.00  0.00    -0.296 N 
ATOM     23  H   UNL     1       6.017   1.238  -0.980  0.00  0.00    +0.159 HD
ATOM     24  H   UNL     1       7.768   1.421  -2.513  0.00  0.00    +0.151 HD
BRANCH  22  25
ATOM     25  C   UNL     1       7.606   1.419  -4.630  0.00  0.00    +0.132 C 
BRANCH  25  26
ATOM     26  C   UNL     1       9.105   1.568  -4.644  0.00  0.00    -0.016 C 
ATOM     27  C   UNL     1       9.842   0.712  -5.307  0.00  0.00    +0.005 C 
ENDBRANCH  25  26
ENDBRANCH  22  25
ENDBRANCH  16  17
ENDBRANCH   5  16
TORSDOF 5
