REMARK  Name = ZINC16513746
REMARK  12 active torsions:
REMARK  status: ('A' for Active; 'I' for Inactive)
REMARK    1  A    between atoms: C_1  and  C_2
REMARK    2  A    between atoms: C_2  and  N_3
REMARK    3  A    between atoms: N_3  and  C_4
REMARK    4  A    between atoms: C_5  and  N_20
REMARK    5  A    between atoms: N_6  and  C_13
REMARK    6  A    between atoms: C_13  and  C_14
REMARK    7  A    between atoms: C_21  and  C_23
REMARK    8  A    between atoms: C_23  and  N_68
REMARK    9  A    between atoms: C_24  and  N_68
REMARK   10  A    between atoms: C_25  and  C_26
REMARK   11  A    between atoms: C_25  and  C_32
REMARK   12  A    between atoms: C_25  and  N_68
REMARK                            x       y       z     vdW  Elec       q    Type
REMARK                         _______ _______ _______ _____ _____    ______ ____
ROOT
ATOM      1  N   UNL     1       0.083  -2.766  -2.348  0.00  0.00    -0.266 N 
ATOM      2  C   UNL     1       0.037  -2.133  -3.539  0.00  0.00    +0.203 C 
ATOM      3  O   UNL     1       0.246  -0.940  -3.601  0.00  0.00    -0.277 OA
ENDROOT
BRANCH   1   4
ATOM      4  C   UNL     1       0.270  -2.025  -1.163  0.00  0.00    +0.140 A 
ATOM      5  C   UNL     1       1.417  -2.181  -0.411  0.00  0.00    +0.128 A 
ATOM      6  N   UNL     1       1.569  -1.448   0.743  0.00  0.00    -0.276 N 
ATOM      7  C   UNL     1       0.616  -0.582   1.129  0.00  0.00    +0.331 A 
ATOM      8  O   UNL     1       0.771   0.060   2.150  0.00  0.00    -0.246 OA
ATOM      9  N   UNL     1      -0.506  -0.412   0.407  0.00  0.00    -0.273 N 
ATOM     10  H   UNL     1      -1.199   0.239   0.716  0.00  0.00    +0.173 HD
ATOM     11  C   UNL     1      -0.706  -1.109  -0.729  0.00  0.00    +0.277 A 
ATOM     12  O   UNL     1      -1.727  -0.948  -1.375  0.00  0.00    -0.266 OA
BRANCH   5  13
ATOM     13  N   UNL     1       2.394  -3.062  -0.809  0.00  0.00    -0.343 N 
ATOM     14  H   UNL     1       3.154  -3.236  -0.233  0.00  0.00    +0.144 HD
ATOM     15  H   UNL     1       2.324  -3.510  -1.667  0.00  0.00    +0.144 HD
ENDBRANCH   5  13
BRANCH   6  16
ATOM     16  C   UNL     1       2.779  -1.609   1.553  0.00  0.00    +0.163 C 
BRANCH  16  17
ATOM     17  C   UNL     1       2.559  -2.694   2.575  0.00  0.00    -0.028 A 
ATOM     18  C   UNL     1       2.052  -2.377   3.821  0.00  0.00    +0.005 A 
ATOM     19  C   UNL     1       1.846  -3.373   4.758  0.00  0.00    +0.000 A 
ATOM     20  C   UNL     1       2.156  -4.684   4.451  0.00  0.00    +0.000 A 
ATOM     21  C   UNL     1       2.668  -5.001   3.207  0.00  0.00    +0.000 A 
ATOM     22  C   UNL     1       2.870  -4.005   2.269  0.00  0.00    +0.005 A 
ENDBRANCH  16  17
ENDBRANCH   6  16
ENDBRANCH   1   4
BRANCH   1  24
ATOM     23  C   UNL     1      -1.548  -4.585  -2.240  0.00  0.00    +0.025 C 
ATOM     24  C   UNL     1      -0.063  -4.223  -2.287  0.00  0.00    +0.110 C 
ENDBRANCH   1  24
BRANCH   2  25
ATOM     25  C   UNL     1      -0.276  -2.909  -4.793  0.00  0.00    +0.020 C 
BRANCH  25  27
ATOM     26  C   UNL     1       1.083  -1.472  -6.189  0.00  0.00    -0.094 C 
ATOM     27  N   UNL     1      -0.283  -1.978  -5.941  0.00  0.00    +0.391 N 
ATOM     28  H   UNL     1      -0.898  -1.185  -5.723  0.00  0.00    -0.080 HD
BRANCH  27  29
ATOM     29  C   UNL     1      -0.794  -2.664  -7.145  0.00  0.00    -0.007 C 
BRANCH  29  30
ATOM     30  C   UNL     1      -2.187  -3.170  -6.867  0.00  0.00    -0.057 A 
ATOM     31  C   UNL     1      -3.099  -2.359  -6.218  0.00  0.00    +0.002 A 
ATOM     32  C   UNL     1      -4.378  -2.821  -5.967  0.00  0.00    +0.000 A 
ATOM     33  C   UNL     1      -4.740  -4.097  -6.356  0.00  0.00    +0.000 A 
ATOM     34  C   UNL     1      -3.826  -4.910  -7.000  0.00  0.00    +0.000 A 
ATOM     35  C   UNL     1      -2.549  -4.446  -7.255  0.00  0.00    +0.002 A 
ENDBRANCH  29  30
BRANCH  29  36
ATOM     36  C   UNL     1      -0.836  -1.682  -8.287  0.00  0.00    -0.057 A 
ATOM     37  C   UNL     1      -1.267  -0.387  -8.070  0.00  0.00    +0.002 A 
ATOM     38  C   UNL     1      -1.300   0.516  -9.116  0.00  0.00    +0.000 A 
ATOM     39  C   UNL     1      -0.912   0.120 -10.383  0.00  0.00    +0.000 A 
ATOM     40  C   UNL     1      -0.486  -1.177 -10.602  0.00  0.00    +0.000 A 
ATOM     41  C   UNL     1      -0.448  -2.078  -9.554  0.00  0.00    +0.002 A 
ENDBRANCH  29  36
ENDBRANCH  27  29
ENDBRANCH  25  27
ENDBRANCH   2  25
TORSDOF 10
