REMARK  Name = ZINC39759494
REMARK  7 active torsions:
REMARK  status: ('A' for Active; 'I' for Inactive)
REMARK    1  A    between atoms: C_1  and  N_2
REMARK    2  A    between atoms: N_2  and  C_3
REMARK    3  A    between atoms: N_2  and  S_4
REMARK    4  A    between atoms: S_4  and  C_7
REMARK    5  A    between atoms: C_16  and  C_18
REMARK    6  A    between atoms: N_21  and  C_24
REMARK    7  A    between atoms: C_24  and  C_25
REMARK                            x       y       z     vdW  Elec       q    Type
REMARK                         _______ _______ _______ _____ _____    ______ ____
ROOT
ATOM      1  C   UNL     1       1.432  -1.539  -3.093  0.00  0.00    +0.106 A 
ATOM      2  C   UNL     1       2.207  -0.396  -3.019  0.00  0.00    +0.030 A 
ATOM      3  C   UNL     1       3.572  -0.471  -3.192  0.00  0.00    +0.026 A 
ATOM      4  C   UNL     1       4.184  -1.701  -3.441  0.00  0.00    +0.040 A 
ATOM      5  C   UNL     1       3.399  -2.841  -3.512  0.00  0.00    -0.023 A 
ATOM      6  C   UNL     1       2.031  -2.761  -3.333  0.00  0.00    +0.034 A 
ATOM      7  C   UNL     1       4.296  -4.027  -3.788  0.00  0.00    +0.056 C 
ATOM      8  C   UNL     1       5.711  -3.431  -3.870  0.00  0.00    +0.118 C 
ATOM      9  N   UNL     1       5.537  -1.994  -3.643  0.00  0.00    -0.271 N 
ATOM     10  C   UNL     1       6.534  -1.087  -3.631  0.00  0.00    +0.223 C 
ATOM     11  O   UNL     1       6.278   0.094  -3.525  0.00  0.00    -0.275 OA
ENDROOT
BRANCH  10  12
ATOM     12  C   UNL     1       7.966  -1.540  -3.749  0.00  0.00    +0.072 C 
ATOM     13  C   UNL     1       8.566  -1.710  -2.350  0.00  0.00    -0.006 C 
ATOM     14  C   UNL     1      10.042  -2.092  -2.478  0.00  0.00    -0.078 C 
ATOM     15  N   UNL     1      10.765  -1.037  -3.198  0.00  0.00    +0.383 N 
ATOM     16  C   UNL     1      10.242  -0.918  -4.564  0.00  0.00    -0.078 C 
ATOM     17  C   UNL     1       8.774  -0.490  -4.517  0.00  0.00    -0.006 C 
ATOM     18  H   UNL     1      10.645  -0.159  -2.715  0.00  0.00    -0.081 HD
BRANCH  15  19
ATOM     19  C   UNL     1      12.194  -1.372  -3.249  0.00  0.00    -0.039 C 
BRANCH  19  20
ATOM     20  C   UNL     1      12.955  -0.233  -3.879  0.00  0.00    -0.010 A 
ATOM     21  C   UNL     1      13.144  -0.201  -5.250  0.00  0.00    +0.126 A 
ATOM     22  C   UNL     1      13.843   0.846  -5.827  0.00  0.00    +0.038 A 
ATOM     23  C   UNL     1      14.351   1.858  -5.034  0.00  0.00    +0.004 A 
ATOM     24  C   UNL     1      14.162   1.826  -3.666  0.00  0.00    +0.020 A 
ATOM     25  C   UNL     1      13.459   0.783  -3.088  0.00  0.00    +0.045 A 
ATOM     26 CL   UNL     1      13.215   0.748  -1.369  0.00  0.00    -0.083 Cl
ATOM     27  F   UNL     1      12.648  -1.190  -6.024  0.00  0.00    -0.205 F 
ENDBRANCH  19  20
ENDBRANCH  15  19
ENDBRANCH  10  12
BRANCH   1  28
ATOM     28  S   UNL     1      -0.313  -1.439  -2.873  0.00  0.00    +0.060 S 
ATOM     29  O   UNL     1      -0.870  -2.572  -3.525  0.00  0.00    -0.153 OA
ATOM     30  O   UNL     1      -0.688  -0.109  -3.204  0.00  0.00    -0.153 OA
BRANCH  28  32
ATOM     31  C   UNL     1      -0.655  -0.456  -0.377  0.00  0.00    +0.131 C 
ATOM     32  N   UNL     1      -0.615  -1.627  -1.256  0.00  0.00    -0.183 NA
ATOM     33  C   UNL     1      -0.841  -2.965  -0.704  0.00  0.00    +0.131 C 
ENDBRANCH  28  32
ENDBRANCH   1  28
TORSDOF 5
