REMARK  Name = ZINC39687479
REMARK  8 active torsions:
REMARK  status: ('A' for Active; 'I' for Inactive)
REMARK    1  A    between atoms: C_1  and  C_2
REMARK    2  A    between atoms: C_2  and  C_3
REMARK    3  A    between atoms: C_3  and  C_4
REMARK    4  A    between atoms: C_4  and  C_5
REMARK    5  A    between atoms: C_5  and  C_7
REMARK    6  A    between atoms: C_5  and  C_8
REMARK    7  A    between atoms: C_12  and  C_21
REMARK    8  A    between atoms: N_23  and  C_24
REMARK                            x       y       z     vdW  Elec       q    Type
REMARK                         _______ _______ _______ _____ _____    ______ ____
ROOT
ATOM      1  C   UNL     1       1.609  -4.103  -2.435  0.00  0.00    +0.218 C 
ATOM      2  O   UNL     1       1.237  -4.726  -1.463  0.00  0.00    -0.275 OA
ATOM      3  N   UNL     1       2.239  -4.739  -3.442  0.00  0.00    -0.300 N 
ATOM      4  C   UNL     1       2.767  -4.154  -4.697  0.00  0.00    +0.121 C 
ATOM      5  C   UNL     1       4.105  -4.889  -4.938  0.00  0.00    +0.100 C 
ATOM      6  C   UNL     1       3.962  -6.221  -4.181  0.00  0.00    -0.004 C 
ATOM      7  C   UNL     1       2.566  -6.182  -3.542  0.00  0.00    +0.115 C 
ATOM      8  C   UNL     1       4.068  -7.394  -5.151  0.00  0.00    -0.010 C 
ATOM      9  C   UNL     1       3.981  -8.707  -4.368  0.00  0.00    -0.082 C 
ATOM     10  N   UNL     1       5.067  -8.763  -3.381  0.00  0.00    +0.379 N 
ATOM     11  C   UNL     1       4.905  -7.685  -2.397  0.00  0.00    -0.082 C 
ATOM     12  C   UNL     1       5.030  -6.329  -3.097  0.00  0.00    -0.010 C 
ATOM     13  H   UNL     1       5.045  -9.654  -2.909  0.00  0.00    -0.086 HD
ATOM     14  H   UNL     1       5.953  -8.656  -3.852  0.00  0.00    -0.086 HD
ENDROOT
BRANCH   5  15
ATOM     15  C   UNL     1       4.308  -5.139  -6.410  0.00  0.00    +0.218 C 
ATOM     16  O   UNL     1       3.350  -5.315  -7.133  0.00  0.00    -0.275 OA
ATOM     17  N   UNL     1       5.554  -5.166  -6.923  0.00  0.00    -0.312 N 
ATOM     18  H   UNL     1       6.320  -5.025  -6.345  0.00  0.00    +0.149 HD
BRANCH  17  19
ATOM     19  C   UNL     1       5.752  -5.408  -8.354  0.00  0.00    +0.076 C 
ATOM     20  C   UNL     1       5.766  -6.916  -8.619  0.00  0.00    +0.041 C 
ATOM     21  C   UNL     1       5.939  -7.165 -10.120  0.00  0.00    +0.108 C 
ATOM     22  N   UNL     1       7.142  -6.460 -10.582  0.00  0.00    -0.317 N 
ATOM     23  C   UNL     1       7.271  -5.024 -10.299  0.00  0.00    +0.108 C 
ATOM     24  C   UNL     1       7.084  -4.798  -8.796  0.00  0.00    +0.041 C 
ATOM     25  C   UNL     1       8.140  -7.138 -11.273  0.00  0.00    +0.099 A 
ATOM     26  C   UNL     1       9.328  -6.486 -11.584  0.00  0.00    +0.042 A 
ATOM     27  C   UNL     1      10.312  -7.173 -12.271  0.00  0.00    +0.005 A 
ATOM     28  C   UNL     1      10.074  -8.494 -12.626  0.00  0.00    +0.018 A 
ATOM     29  C   UNL     1       8.871  -9.079 -12.284  0.00  0.00    +0.084 A 
ATOM     30  N   UNL     1       7.952  -8.401 -11.623  0.00  0.00    -0.350 N 
ATOM     31  H   UNL     1       7.117  -8.837 -11.392  0.00  0.00    +0.166 HD
ENDBRANCH  17  19
ENDBRANCH   5  15
BRANCH   1  32
ATOM     32  C   UNL     1       1.365  -2.618  -2.517  0.00  0.00    +0.072 C 
ATOM     33  C   UNL     1       0.505  -2.309  -3.745  0.00  0.00    +0.017 C 
BRANCH  32  34
ATOM     34  C   UNL     1       0.638  -2.150  -1.255  0.00  0.00    +0.012 C 
BRANCH  34  35
ATOM     35  C   UNL     1       0.501  -0.626  -1.280  0.00  0.00    +0.000 C 
BRANCH  35  37
ATOM     36  C   UNL     1      -0.363   1.365  -0.044  0.00  0.00    +0.004 C 
ATOM     37  C   UNL     1      -0.226  -0.158  -0.018  0.00  0.00    -0.003 C 
ENDBRANCH  35  37
ENDBRANCH  34  35
ENDBRANCH  32  34
ENDBRANCH   1  32
TORSDOF 6
