REMARK  Name = ZINC38732235
REMARK  8 active torsions:
REMARK  status: ('A' for Active; 'I' for Inactive)
REMARK    1  A    between atoms: C_1  and  O_2
REMARK    2  A    between atoms: O_2  and  C_3
REMARK    3  A    between atoms: C_3  and  C_5
REMARK    4  A    between atoms: C_5  and  C_7
REMARK    5  A    between atoms: C_5  and  N_17
REMARK    6  A    between atoms: C_7  and  C_8
REMARK    7  A    between atoms: C_18  and  C_20
REMARK    8  A    between atoms: C_26  and  C_28
REMARK                            x       y       z     vdW  Elec       q    Type
REMARK                         _______ _______ _______ _____ _____    ______ ____
ROOT
ATOM      1  C   UNL     1      -4.995  -3.348   1.179  0.00  0.00    +0.087 C 
ATOM      2  C   UNL     1      -5.854  -2.359   0.390  0.00  0.00    +0.013 C 
ATOM      3  C   UNL     1      -5.489  -0.929   0.795  0.00  0.00    +0.001 C 
ATOM      4  C   UNL     1      -5.742  -0.743   2.293  0.00  0.00    +0.001 C 
ATOM      5  C   UNL     1      -4.882  -1.733   3.082  0.00  0.00    +0.013 C 
ATOM      6  C   UNL     1      -5.247  -3.162   2.677  0.00  0.00    +0.087 C 
ENDROOT
BRANCH   6   7
ATOM      7  C   UNL     1      -4.401  -4.136   3.454  0.00  0.00    +0.219 C 
ATOM      8  O   UNL     1      -3.348  -3.775   3.936  0.00  0.00    -0.275 OA
ATOM      9  N   UNL     1      -4.813  -5.410   3.614  0.00  0.00    -0.298 N 
ATOM     10  C   UNL     1      -6.028  -5.892   2.942  0.00  0.00    +0.126 C 
ATOM     11  C   UNL     1      -5.670  -7.131   2.112  0.00  0.00    +0.125 C 
ATOM     12  N   UNL     1      -4.912  -8.062   2.961  0.00  0.00    -0.314 N 
ATOM     13  C   UNL     1      -3.698  -7.579   3.634  0.00  0.00    +0.125 C 
ATOM     14  C   UNL     1      -4.053  -6.342   4.459  0.00  0.00    +0.126 C 
ATOM     15  C   UNL     1      -5.338  -9.375   3.126  0.00  0.00    +0.099 A 
ATOM     16  C   UNL     1      -6.408  -9.852   2.376  0.00  0.00    +0.042 A 
ATOM     17  C   UNL     1      -6.821 -11.161   2.550  0.00  0.00    +0.005 A 
ATOM     18  C   UNL     1      -6.147 -11.951   3.472  0.00  0.00    +0.018 A 
ATOM     19  C   UNL     1      -5.094 -11.413   4.182  0.00  0.00    +0.084 A 
ATOM     20  N   UNL     1      -4.718 -10.162   3.991  0.00  0.00    -0.350 N 
ATOM     21  H   UNL     1      -3.971  -9.809   4.501  0.00  0.00    +0.166 HD
ENDBRANCH   6   7
BRANCH   1  23
ATOM     22  N   UNL     1      -3.082  -3.205  -0.382  0.00  0.00    -0.302 N 
ATOM     23  C   UNL     1      -3.539  -3.098   0.881  0.00  0.00    +0.217 C 
ATOM     24  O   UNL     1      -2.778  -2.800   1.778  0.00  0.00    -0.275 OA
ATOM     25  H   UNL     1      -3.690  -3.444  -1.099  0.00  0.00    +0.150 HD
BRANCH  22  26
ATOM     26  C   UNL     1      -1.666  -2.962  -0.672  0.00  0.00    +0.186 C 
BRANCH  26  27
ATOM     27  C   UNL     1      -1.440  -1.486  -0.870  0.00  0.00    +0.328 C 
ATOM     28  O   UNL     1      -2.366  -0.715  -0.777  0.00  0.00    -0.249 OA
BRANCH  27  30
ATOM     29  C   UNL     1      -0.069   0.385  -1.322  0.00  0.00    +0.280 C 
ATOM     30  O   UNL     1      -0.210  -1.026  -1.148  0.00  0.00    -0.467 OA
ENDBRANCH  27  30
ENDBRANCH  26  27
BRANCH  26  31
ATOM     31  C   UNL     1      -1.270  -3.713  -1.945  0.00  0.00    +0.071 C 
BRANCH  31  32
ATOM     32  C   UNL     1      -1.379  -5.197  -1.707  0.00  0.00    -0.020 A 
ATOM     33  C   UNL     1      -2.589  -6.014  -1.835  0.00  0.00    +0.003 A 
ATOM     34  C   UNL     1      -3.913  -5.739  -2.181  0.00  0.00    +0.010 A 
ATOM     35  C   UNL     1      -4.831  -6.751  -2.209  0.00  0.00    +0.001 A 
ATOM     36  C   UNL     1      -4.457  -8.050  -1.895  0.00  0.00    +0.002 A 
ATOM     37  C   UNL     1      -3.156  -8.344  -1.550  0.00  0.00    +0.026 A 
ATOM     38  C   UNL     1      -2.205  -7.330  -1.516  0.00  0.00    +0.047 A 
ATOM     39  N   UNL     1      -0.861  -7.300  -1.219  0.00  0.00    -0.360 N 
ATOM     40  C   UNL     1      -0.385  -6.023  -1.344  0.00  0.00    +0.087 A 
ATOM     41  H   UNL     1      -0.330  -8.070  -0.963  0.00  0.00    +0.165 HD
ENDBRANCH  31  32
ENDBRANCH  26  31
ENDBRANCH  22  26
ENDBRANCH   1  23
TORSDOF 7
