REMARK  Name = ZINC08741026
REMARK  6 active torsions:
REMARK  status: ('A' for Active; 'I' for Inactive)
REMARK    1  A    between atoms: C_1  and  C_2
REMARK    2  A    between atoms: C_5  and  C_9
REMARK    3  A    between atoms: C_7  and  C_8
REMARK    4  A    between atoms: N_11  and  C_12
REMARK    5  A    between atoms: C_12  and  C_14
REMARK    6  A    between atoms: C_12  and  C_15
REMARK                            x       y       z     vdW  Elec       q    Type
REMARK                         _______ _______ _______ _____ _____    ______ ____
ROOT
ATOM      1  C   UNL     1       0.923   3.412   0.659  0.00  0.00    +0.236 C 
ATOM      2  O   UNL     1      -0.171   3.595   1.149  0.00  0.00    -0.274 OA
ATOM      3  N   UNL     1       1.853   4.386   0.704  0.00  0.00    -0.300 N 
ATOM      4  C   UNL     1       3.146   4.219   0.026  0.00  0.00    +0.107 C 
ATOM      5  C   UNL     1       3.366   5.420  -0.908  0.00  0.00    +0.013 C 
ATOM      6  C   UNL     1       3.238   6.715  -0.104  0.00  0.00    -0.022 C 
ATOM      7  C   UNL     1       1.834   6.817   0.492  0.00  0.00    +0.013 C 
ATOM      8  C   UNL     1       1.595   5.634   1.436  0.00  0.00    +0.107 C 
ATOM      9  C   UNL     1       3.497   7.896  -1.001  0.00  0.00    +0.027 A 
ATOM     10  C   UNL     1       4.270   8.949  -0.650  0.00  0.00    +0.059 A 
ATOM     11  N   UNL     1       4.287   9.807  -1.670  0.00  0.00    -0.241 NA
ATOM     12  C   UNL     1       3.554   9.330  -2.643  0.00  0.00    +0.196 A 
ATOM     13  N   UNL     1       3.044   8.136  -2.260  0.00  0.00    -0.349 N 
ATOM     14  H   UNL     1       2.446   7.543  -2.800  0.00  0.00    +0.166 HD
ATOM     15  C   UNL     1       4.957   9.054   0.690  0.00  0.00    +0.038 C 
ATOM     16  C   UNL     1       4.305   8.036   1.635  0.00  0.00    -0.075 C 
ATOM     17  N   UNL     1       4.243   6.712   0.981  0.00  0.00    +0.387 N 
ATOM     18  H   UNL     1       5.165   6.487   0.588  0.00  0.00    -0.085 HD
ATOM     19  H   UNL     1       3.986   6.003   1.678  0.00  0.00    -0.085 HD
ENDROOT
BRANCH   1  20
ATOM     20  C   UNL     1       1.243   2.094   0.002  0.00  0.00    +0.156 C 
ATOM     21  C   UNL     1       0.957   2.190  -1.498  0.00  0.00    +0.038 C 
BRANCH  20  24
ATOM     22  C   UNL     1       0.831  -0.241   0.560  0.00  0.00    +0.245 C 
ATOM     23  O   UNL     1       1.895  -0.522   0.045  0.00  0.00    -0.270 OA
ATOM     24  N   UNL     1       0.414   1.040   0.591  0.00  0.00    -0.300 N 
ATOM     25  H   UNL     1      -0.437   1.263   0.999  0.00  0.00    +0.150 HD
BRANCH  22  30
ATOM     26  C   UNL     1      -2.427  -4.383   2.874  0.00  0.00    +0.044 C 
ATOM     27  C   UNL     1      -1.573  -3.298   2.269  0.00  0.00    -0.047 A 
ATOM     28  C   UNL     1      -2.005  -1.984   2.301  0.00  0.00    +0.004 A 
ATOM     29  C   UNL     1      -1.226  -0.986   1.753  0.00  0.00    +0.013 A 
ATOM     30  C   UNL     1      -0.006  -1.305   1.155  0.00  0.00    +0.037 A 
ATOM     31  C   UNL     1       0.423  -2.633   1.125  0.00  0.00    +0.016 A 
ATOM     32  C   UNL     1      -0.363  -3.621   1.682  0.00  0.00    -0.047 A 
ATOM     33  C   UNL     1       0.099  -5.056   1.651  0.00  0.00    +0.044 C 
ENDBRANCH  22  30
ENDBRANCH  20  24
ENDBRANCH   1  20
TORSDOF 3
