REMARK  Name = ZINC19816542
REMARK  11 active torsions:
REMARK  status: ('A' for Active; 'I' for Inactive)
REMARK    1  A    between atoms: C_1  and  O_2
REMARK    2  A    between atoms: O_2  and  C_3
REMARK    3  A    between atoms: C_5  and  O_23
REMARK    4  A    between atoms: C_6  and  C_11
REMARK    5  A    between atoms: C_7  and  O_9
REMARK    6  A    between atoms: O_9  and  C_10
REMARK    7  A    between atoms: C_12  and  C_21
REMARK    8  A    between atoms: C_13  and  N_20
REMARK    9  A    between atoms: C_15  and  N_19
REMARK   10  A    between atoms: C_16  and  C_17
REMARK   11  A    between atoms: O_23  and  C_24
REMARK                            x       y       z     vdW  Elec       q    Type
REMARK                         _______ _______ _______ _____ _____    ______ ____
ROOT
ATOM      1  C   UNL     1       1.154   3.599   0.010  0.00  0.00    +0.112 C 
ATOM      2  C   UNL     1       1.799   4.091  -1.239  0.00  0.00    +0.069 C 
ATOM      3  C   UNL     1       3.076   4.484  -1.359  0.00  0.00    +0.079 C 
ATOM      4  S   UNL     1       4.208   4.487  -0.017  0.00  0.00    -0.058 S 
ATOM      5  C   UNL     1       3.105   4.469   1.348  0.00  0.00    +0.079 C 
ATOM      6  C   UNL     1       1.823   4.078   1.253  0.00  0.00    +0.069 C 
ENDROOT
BRANCH   1  10
ATOM      7  C   UNL     1       1.212  -0.681  -0.014  0.00  0.00    +0.127 A 
ATOM      8  C   UNL     1       0.002  -0.004   0.002  0.00  0.00    +0.091 A 
ATOM      9  C   UNL     1      -0.017   1.383   0.010  0.00  0.00    +0.131 A 
ATOM     10  C   UNL     1       1.175   2.092   0.002  0.00  0.00    +0.049 A 
ATOM     11  C   UNL     1       2.385   1.415  -0.014  0.00  0.00    +0.131 A 
ATOM     12  C   UNL     1       2.404   0.029  -0.021  0.00  0.00    +0.091 A 
BRANCH   7  14
ATOM     13  C   UNL     1       2.513  -2.671  -0.037  0.00  0.00    +0.277 C 
ATOM     14  O   UNL     1       1.231  -2.040  -0.021  0.00  0.00    -0.495 OA
ENDBRANCH   7  14
BRANCH  11  15
ATOM     15  O   UNL     1       3.552   2.111  -0.020  0.00  0.00    -0.495 OA
ATOM     16  C   UNL     1       4.761   1.349  -0.035  0.00  0.00    +0.277 C 
ENDBRANCH  11  15
BRANCH   9  17
ATOM     17  O   UNL     1      -1.203   2.046   0.019  0.00  0.00    -0.495 OA
ATOM     18  C   UNL     1      -2.390   1.251   0.020  0.00  0.00    +0.277 C 
ENDBRANCH   9  17
ENDBRANCH   1  10
BRANCH   5  19
ATOM     19  N   UNL     1       3.576   4.875   2.574  0.00  0.00    -0.352 N 
ATOM     20  H   UNL     1       2.908   4.874   3.448  0.00  0.00    +0.143 HD
ATOM     21  H   UNL     1       4.621   5.200   2.682  0.00  0.00    +0.143 HD
ENDBRANCH   5  19
BRANCH   3  22
ATOM     22  N   UNL     1       3.521   4.903  -2.590  0.00  0.00    -0.352 N 
ATOM     23  H   UNL     1       4.564   5.231  -2.716  0.00  0.00    +0.143 HD
ATOM     24  H   UNL     1       2.834   4.911  -3.450  0.00  0.00    +0.143 HD
ENDBRANCH   3  22
BRANCH   6  25
ATOM     25  C   UNL     1       1.033   4.125   2.446  0.00  0.00    +0.098 C 
ATOM     26  N   UNL     1       0.406   4.162   3.393  0.00  0.00    -0.191 NA
ENDBRANCH   6  25
BRANCH   2  27
ATOM     27  C   UNL     1       0.986   4.151  -2.417  0.00  0.00    +0.098 C 
ATOM     28  N   UNL     1       0.342   4.199  -3.351  0.00  0.00    -0.191 NA
ENDBRANCH   2  27
TORSDOF 8
