REMARK  Name = ZINC08965138
REMARK  9 active torsions:
REMARK  status: ('A' for Active; 'I' for Inactive)
REMARK    1  A    between atoms: C_1  and  C_2
REMARK    2  A    between atoms: C_2  and  O_3
REMARK    3  A    between atoms: O_3  and  C_4
REMARK    4  A    between atoms: C_4  and  C_6
REMARK    5  A    between atoms: C_7  and  C_34
REMARK    6  A    between atoms: C_11  and  N_26
REMARK    7  A    between atoms: C_12  and  C_14
REMARK    8  A    between atoms: C_14  and  C_16
REMARK    9  A    between atoms: C_27  and  C_29
REMARK                            x       y       z     vdW  Elec       q    Type
REMARK                         _______ _______ _______ _____ _____    ______ ____
ROOT
ATOM      1  C   UNL     1       1.662   5.586  -1.139  0.00  0.00    +0.066 C 
ATOM      2  C   UNL     1       2.996   5.655  -1.237  0.00  0.00    +0.016 C 
ATOM      3  N   UNL     1       3.818   5.412  -0.162  0.00  0.00    -0.312 N 
ATOM      4  C   UNL     1       3.229   5.354   1.075  0.00  0.00    +0.076 A 
ATOM      5  C   UNL     1       1.860   5.267   1.304  0.00  0.00    +0.015 A 
ATOM      6  C   UNL     1       1.456   5.225   2.624  0.00  0.00    +0.048 A 
ATOM      7  C   UNL     1       2.426   5.266   3.634  0.00  0.00    +0.078 A 
ATOM      8  S   UNL     1       3.942   5.369   2.693  0.00  0.00    -0.068 S 
ATOM      9  C   UNL     1       0.913   5.226   0.110  0.00  0.00    +0.098 C 
ATOM     10  C   UNL     1       3.615   6.011  -2.565  0.00  0.00    +0.061 C 
ATOM     11  H   UNL     1       4.774   5.287  -0.273  0.00  0.00    +0.152 HD
ENDROOT
BRANCH   9  12
ATOM     12  C   UNL     1       0.343   3.838  -0.030  0.00  0.00    +0.002 A 
ATOM     13  C   UNL     1      -0.951   3.438   0.016  0.00  0.00    +0.012 A 
ATOM     14  C   UNL     1      -1.245   2.097  -0.144  0.00  0.00    +0.008 A 
ATOM     15  C   UNL     1      -0.229   1.220  -0.332  0.00  0.00    +0.045 A 
ATOM     16  S   UNL     1       1.197   2.293  -0.299  0.00  0.00    -0.101 S 
ENDBRANCH   9  12
BRANCH   6  17
ATOM     17  N   UNL     1       0.107   5.141   2.945  0.00  0.00    -0.357 N 
ATOM     18  H   UNL     1      -0.168   5.110   3.875  0.00  0.00    +0.142 HD
ATOM     19  H   UNL     1      -0.558   5.113   2.241  0.00  0.00    +0.142 HD
ENDBRANCH   6  17
BRANCH   1  20
ATOM     20  C   UNL     1       0.905   5.873  -2.296  0.00  0.00    +0.338 C 
ATOM     21  O   UNL     1       0.411   6.976  -2.442  0.00  0.00    -0.245 OA
BRANCH  20  22
ATOM     22  O   UNL     1       0.730   4.925  -3.241  0.00  0.00    -0.462 OA
BRANCH  22  24
ATOM     23  C   UNL     1      -0.134   4.091  -5.338  0.00  0.00    +0.048 C 
ATOM     24  C   UNL     1      -0.047   5.285  -4.385  0.00  0.00    +0.229 C 
ENDBRANCH  22  24
ENDBRANCH  20  22
ENDBRANCH   1  20
BRANCH   7  25
ATOM     25  C   UNL     1       2.253   5.236   5.020  0.00  0.00    +0.178 C 
ATOM     26  O   UNL     1       1.134   5.162   5.492  0.00  0.00    -0.291 OA
BRANCH  25  27
ATOM     27  C   UNL     1       3.453   5.293   5.930  0.00  0.00    +0.035 C 
ATOM     28  C   UNL     1       4.219   6.594   5.682  0.00  0.00    +0.018 C 
ATOM     29  C   UNL     1       5.437   6.652   6.607  0.00  0.00    -0.010 C 
ATOM     30  C   UNL     1       4.974   6.603   8.064  0.00  0.00    +0.007 C 
ATOM     31  C   UNL     1       4.207   5.303   8.312  0.00  0.00    -0.010 C 
ATOM     32  C   UNL     1       2.990   5.244   7.388  0.00  0.00    +0.018 C 
ATOM     33  C   UNL     1       5.122   4.110   8.027  0.00  0.00    +0.007 C 
ATOM     34  C   UNL     1       5.585   4.159   6.570  0.00  0.00    -0.010 C 
ATOM     35  C   UNL     1       6.351   5.459   6.322  0.00  0.00    +0.007 C 
ATOM     36  C   UNL     1       4.367   4.100   5.646  0.00  0.00    +0.018 C 
ENDBRANCH  25  27
ENDBRANCH   7  25
TORSDOF 7
