REMARK  Name = ZINC11897905
REMARK  9 active torsions:
REMARK  status: ('A' for Active; 'I' for Inactive)
REMARK    1  A    between atoms: C_1  and  N_2
REMARK    2  A    between atoms: C_6  and  C_7
REMARK    3  A    between atoms: C_7  and  C_9
REMARK    4  A    between atoms: C_7  and  N_48
REMARK    5  A    between atoms: C_9  and  N_10
REMARK    6  A    between atoms: N_10  and  S_11
REMARK    7  A    between atoms: S_11  and  C_14
REMARK    8  A    between atoms: C_24  and  N_48
REMARK    9  A    between atoms: C_25  and  N_48
REMARK                            x       y       z     vdW  Elec       q    Type
REMARK                         _______ _______ _______ _____ _____    ______ ____
ROOT
ATOM      1  N   UNL     1       3.913  -1.153  -2.623  0.00  0.00    -0.191 NA
ATOM      2  H   UNL     1       3.924  -1.960  -3.161  0.00  0.00    +0.148 HD
ENDROOT
BRANCH   1   3
ATOM      3  S   UNL     1       3.008  -1.094  -1.237  0.00  0.00    +0.058 S 
ATOM      4  O   UNL     1       3.858  -0.585  -0.219  0.00  0.00    -0.153 OA
ATOM      5  O   UNL     1       2.355  -2.351  -1.125  0.00  0.00    -0.153 OA
BRANCH   3   6
ATOM      6  C   UNL     1       1.746   0.109  -1.489  0.00  0.00    +0.109 A 
ATOM      7  C   UNL     1       0.529  -0.269  -2.024  0.00  0.00    +0.032 A 
ATOM      8  C   UNL     1      -0.463   0.672  -2.225  0.00  0.00    +0.051 A 
ATOM      9  C   UNL     1      -0.239   2.000  -1.890  0.00  0.00    +0.162 A 
ATOM     10  C   UNL     1       0.984   2.380  -1.350  0.00  0.00    +0.164 A 
ATOM     11  C   UNL     1       1.976   1.430  -1.152  0.00  0.00    +0.078 A 
ATOM     12  O   UNL     1       1.222   3.675  -1.007  0.00  0.00    -0.485 OA
ATOM     13  C   UNL     1       0.345   4.660  -1.565  0.00  0.00    +0.270 C 
ATOM     14  C   UNL     1      -1.098   4.163  -1.406  0.00  0.00    +0.270 C 
ATOM     15  O   UNL     1      -1.222   2.917  -2.102  0.00  0.00    -0.485 OA
ENDBRANCH   3   6
ENDBRANCH   1   3
BRANCH   1  16
ATOM     16  C   UNL     1       4.696   0.014  -3.037  0.00  0.00    +0.096 C 
BRANCH  16  17
ATOM     17  C   UNL     1       5.784  -0.424  -4.019  0.00  0.00    -0.006 C 
BRANCH  17  23
ATOM     18  C   UNL     1       5.099   1.142  -6.606  0.00  0.00    +0.148 C 
ATOM     19  N   UNL     1       6.191   1.472  -5.687  0.00  0.00    -0.355 N 
ATOM     20  C   UNL     1       7.064   2.509  -5.830  0.00  0.00    +0.085 A 
ATOM     21  C   UNL     1       7.921   2.485  -4.789  0.00  0.00    +0.019 A 
ATOM     22  C   UNL     1       7.561   1.397  -3.971  0.00  0.00    +0.021 A 
ATOM     23  C   UNL     1       6.502   0.791  -4.547  0.00  0.00    +0.006 A 
ENDBRANCH  17  23
BRANCH  17  26
ATOM     24  C   UNL     1       6.982  -0.837  -1.956  0.00  0.00    -0.096 C 
ATOM     25  C   UNL     1       6.285  -2.694  -3.344  0.00  0.00    -0.096 C 
ATOM     26  N   UNL     1       6.767  -1.297  -3.344  0.00  0.00    +0.382 N 
ATOM     27  H   UNL     1       7.658  -1.251  -3.853  0.00  0.00    -0.082 HD
ENDBRANCH  17  26
ENDBRANCH  16  17
ENDBRANCH   1  16
TORSDOF 6
