REMARK  Name = ZINC39531986
REMARK  8 active torsions:
REMARK  status: ('A' for Active; 'I' for Inactive)
REMARK    1  A    between atoms: C_1  and  C_2
REMARK    2  A    between atoms: C_5  and  C_8
REMARK    3  A    between atoms: C_8  and  C_10
REMARK    4  A    between atoms: C_8  and  N_13
REMARK    5  A    between atoms: C_10  and  N_11
REMARK    6  A    between atoms: C_17  and  S_20
REMARK    7  A    between atoms: S_20  and  O_23
REMARK    8  A    between atoms: O_23  and  C_24
REMARK                            x       y       z     vdW  Elec       q    Type
REMARK                         _______ _______ _______ _____ _____    ______ ____
ROOT
ATOM      1  N   UNL     1       0.901  -4.849   1.036  0.00  0.00    -0.296 NA
ATOM      2  C   UNL     1       2.228  -4.217   1.036  0.00  0.00    +0.066 C 
ATOM      3  C   UNL     1       3.067  -4.798   2.177  0.00  0.00    -0.064 C 
ATOM      4  N   UNL     1       3.197  -6.250   1.998  0.00  0.00    +0.398 N 
ATOM      5  C   UNL     1       1.866  -6.870   2.024  0.00  0.00    +0.130 C 
ATOM      6  C   UNL     1       1.017  -6.306   0.883  0.00  0.00    +0.095 C 
ATOM      7  H   UNL     1       3.639  -6.441   1.111  0.00  0.00    -0.083 HD
ATOM      8  H   UNL     1       3.760  -6.632   2.743  0.00  0.00    -0.083 HD
ENDROOT
BRANCH   5   9
ATOM      9  S   UNL     1       2.031  -8.666   1.825  0.00  0.00    +0.109 S 
ATOM     10  O   UNL     1       0.774  -9.298   2.026  0.00  0.00    -0.138 OA
ATOM     11  O   UNL     1       2.815  -8.961   0.677  0.00  0.00    -0.138 OA
BRANCH   9  12
ATOM     12  O   UNL     1       2.884  -9.114   3.003  0.00  0.00    -0.347 OA
BRANCH  12  13
ATOM     13  C   UNL     1       2.220  -9.136   4.189  0.00  0.00    +0.156 A 
ATOM     14  C   UNL     1       2.197  -8.006   4.994  0.00  0.00    +0.048 A 
ATOM     15  C   UNL     1       1.521  -8.031   6.198  0.00  0.00    +0.004 A 
ATOM     16  C   UNL     1       0.869  -9.182   6.603  0.00  0.00    +0.000 A 
ATOM     17  C   UNL     1       0.892 -10.309   5.803  0.00  0.00    +0.004 A 
ATOM     18  C   UNL     1       1.561 -10.287   4.594  0.00  0.00    +0.048 A 
ENDBRANCH  12  13
ENDBRANCH   9  12
ENDBRANCH   5   9
BRANCH   1  19
ATOM     19  C   UNL     1       0.045  -4.276  -0.011  0.00  0.00    +0.101 C 
BRANCH  19  24
ATOM     20  C   UNL     1      -0.593   1.393   0.908  0.00  0.00    +0.044 C 
ATOM     21  C   UNL     1      -0.426  -0.085   0.668  0.00  0.00    -0.050 A 
ATOM     22  C   UNL     1      -0.258  -0.562  -0.618  0.00  0.00    +0.003 A 
ATOM     23  C   UNL     1      -0.106  -1.918  -0.838  0.00  0.00    +0.005 A 
ATOM     24  C   UNL     1      -0.120  -2.797   0.229  0.00  0.00    -0.029 A 
ATOM     25  C   UNL     1      -0.287  -2.320   1.515  0.00  0.00    +0.005 A 
ATOM     26  C   UNL     1      -0.435  -0.964   1.736  0.00  0.00    +0.003 A 
ENDBRANCH  19  24
BRANCH  19  27
ATOM     27  C   UNL     1      -1.325  -4.955   0.022  0.00  0.00    +0.115 C 
BRANCH  27  28
ATOM     28  N   UNL     1      -2.153  -4.441  -1.077  0.00  0.00    -0.259 NA
ATOM     29  I   UNL     1      -4.059  -5.188  -0.973  0.00  0.00    +0.018 I 
ATOM     30  H   UNL     1      -1.734  -4.645  -1.972  0.00  0.00    +0.134 HD
ENDBRANCH  27  28
ENDBRANCH  19  27
ENDBRANCH   1  19
TORSDOF 7
