REMARK  Name = ZINC63827929
REMARK  10 active torsions:
REMARK  status: ('A' for Active; 'I' for Inactive)
REMARK    1  A    between atoms: C_1  and  C_2
REMARK    2  A    between atoms: C_2  and  C_33
REMARK    3  A    between atoms: N_5  and  C_9
REMARK    4  A    between atoms: C_9  and  C_10
REMARK    5  A    between atoms: N_12  and  C_13
REMARK    6  A    between atoms: C_13  and  C_14
REMARK    7  A    between atoms: C_14  and  C_16
REMARK    8  A    between atoms: C_14  and  C_24
REMARK    9  A    between atoms: C_19  and  O_22
REMARK   10  A    between atoms: O_22  and  C_23
REMARK                            x       y       z     vdW  Elec       q    Type
REMARK                         _______ _______ _______ _____ _____    ______ ____
ROOT
ATOM      1  C   UNL     1      -4.806  -6.351   1.624  0.00  0.00    +0.064 C 
ENDROOT
BRANCH   1   2
ATOM      2  C   UNL     1      -6.065  -5.707   1.103  0.00  0.00    -0.033 C 
ATOM      3  C   UNL     1      -7.055  -5.146   1.835  0.00  0.00    -0.000 A 
ATOM      4  C   UNL     1      -7.249  -4.975   3.280  0.00  0.00    +0.010 A 
ATOM      5  C   UNL     1      -8.368  -4.359   3.723  0.00  0.00    +0.001 A 
ATOM      6  C   UNL     1      -9.346  -3.882   2.840  0.00  0.00    +0.002 A 
ATOM      7  C   UNL     1      -9.239  -4.002   1.499  0.00  0.00    +0.026 A 
ATOM      8  C   UNL     1      -8.102  -4.633   0.923  0.00  0.00    +0.043 A 
ATOM      9  N   UNL     1      -7.773  -4.867  -0.324  0.00  0.00    -0.380 N 
ATOM     10  C   UNL     1      -6.475  -5.551  -0.345  0.00  0.00    +0.145 C 
ATOM     11  H   UNL     1      -8.298  -4.626  -1.103  0.00  0.00    +0.160 HD
ENDBRANCH   1   2
BRANCH   1  12
ATOM     12  C   UNL     1      -4.756  -7.789   1.178  0.00  0.00    -0.038 A 
ATOM     13  C   UNL     1      -4.749  -8.094  -0.171  0.00  0.00    +0.008 A 
ATOM     14  C   UNL     1      -4.703  -9.412  -0.582  0.00  0.00    +0.046 A 
ATOM     15  C   UNL     1      -4.664 -10.430   0.359  0.00  0.00    +0.120 A 
ATOM     16  C   UNL     1      -4.671 -10.122   1.712  0.00  0.00    +0.046 A 
ATOM     17  C   UNL     1      -4.712  -8.802   2.118  0.00  0.00    +0.008 A 
BRANCH  15  18
ATOM     18  O   UNL     1      -4.620 -11.727  -0.043  0.00  0.00    -0.495 OA
ATOM     19  C   UNL     1      -4.581 -12.723   0.981  0.00  0.00    +0.277 C 
ENDBRANCH  15  18
ENDBRANCH   1  12
BRANCH   1  20
ATOM     20  C   UNL     1      -3.588  -5.604   1.077  0.00  0.00    +0.116 C 
BRANCH  20  23
ATOM     21  C   UNL     1      -2.585  -3.391   1.260  0.00  0.00    +0.231 C 
ATOM     22  O   UNL     1      -1.707  -3.759   0.508  0.00  0.00    -0.274 OA
ATOM     23  N   UNL     1      -3.573  -4.239   1.608  0.00  0.00    -0.313 N 
ATOM     24  H   UNL     1      -4.275  -3.944   2.209  0.00  0.00    +0.149 HD
BRANCH  21  25
ATOM     25  C   UNL     1      -2.569  -1.986   1.805  0.00  0.00    +0.213 C 
BRANCH  25  30
ATOM     26  C   UNL     1      -0.019   1.526   0.010  0.00  0.00    +0.042 C 
ATOM     27  C   UNL     1       0.002  -0.004   0.002  0.00  0.00    +0.113 C 
ATOM     28  C   UNL     1      -1.403  -0.557   0.139  0.00  0.00    +0.247 C 
ATOM     29  O   UNL     1      -2.332  -0.392  -0.621  0.00  0.00    -0.273 OA
ATOM     30  N   UNL     1      -1.403  -1.272   1.282  0.00  0.00    -0.215 N 
ATOM     31  C   UNL     1      -0.206  -1.247   1.879  0.00  0.00    +0.310 C 
ATOM     32  O   UNL     1       0.040  -1.819   2.924  0.00  0.00    -0.252 OA
ATOM     33  N   UNL     1       0.695  -0.520   1.195  0.00  0.00    -0.285 N 
ATOM     34  H   UNL     1       1.621  -0.365   1.440  0.00  0.00    +0.151 HD
BRANCH  27  35
ATOM     35  C   UNL     1       0.667  -0.525  -1.274  0.00  0.00    +0.021 C 
ATOM     36  C   UNL     1       1.801  -1.539  -1.116  0.00  0.00    +0.006 C 
ATOM     37  C   UNL     1       2.113  -0.103  -1.540  0.00  0.00    +0.006 C 
ENDBRANCH  27  35
ENDBRANCH  25  30
ENDBRANCH  21  25
ENDBRANCH  20  23
ENDBRANCH   1  20
TORSDOF 8
