REMARK  Name = ZINC09338065
REMARK  7 active torsions:
REMARK  status: ('A' for Active; 'I' for Inactive)
REMARK    1  A    between atoms: C_4  and  C_7
REMARK    2  A    between atoms: C_7  and  C_8
REMARK    3  A    between atoms: C_8  and  C_10
REMARK    4  A    between atoms: C_8  and  N_20
REMARK    5  A    between atoms: C_21  and  C_23
REMARK    6  A    between atoms: C_23  and  N_24
REMARK    7  A    between atoms: C_25  and  C_27
REMARK                            x       y       z     vdW  Elec       q    Type
REMARK                         _______ _______ _______ _____ _____    ______ ____
ROOT
ATOM      1  N   UNL     1       1.624   3.311   0.004  0.00  0.00    -0.304 N 
ATOM      2  C   UNL     1       1.396   1.982  -0.001  0.00  0.00    +0.231 C 
ATOM      3  O   UNL     1       2.328   1.207  -0.014  0.00  0.00    -0.274 OA
ATOM      4  H   UNL     1       0.879   3.931   0.015  0.00  0.00    +0.149 HD
ENDROOT
BRANCH   1   5
ATOM      5  C   UNL     1       2.999   3.818  -0.006  0.00  0.00    +0.143 C 
BRANCH   5   6
ATOM      6  C   UNL     1       3.499   3.883  -1.426  0.00  0.00    +0.129 A 
ATOM      7  N   UNL     1       4.521   3.138  -1.927  0.00  0.00    -0.340 N 
ATOM      8  H   UNL     1       5.063   2.462  -1.427  0.00  0.00    +0.167 HD
ATOM      9  C   UNL     1       4.671   3.487  -3.254  0.00  0.00    +0.066 A 
ATOM     10  C   UNL     1       5.526   3.081  -4.270  0.00  0.00    +0.028 A 
ATOM     11  C   UNL     1       5.413   3.643  -5.524  0.00  0.00    +0.002 A 
ATOM     12  C   UNL     1       4.451   4.611  -5.776  0.00  0.00    +0.002 A 
ATOM     13  C   UNL     1       3.601   5.022  -4.789  0.00  0.00    +0.030 A 
ATOM     14  C   UNL     1       3.697   4.466  -3.510  0.00  0.00    +0.089 A 
ATOM     15  N   UNL     1       3.014   4.657  -2.353  0.00  0.00    -0.231 NA
ENDBRANCH   5   6
BRANCH   5  16
ATOM     16  C   UNL     1       3.030   5.218   0.611  0.00  0.00    +0.065 C 
BRANCH  16  20
ATOM     17  C   UNL     1       1.945   4.982   4.735  0.00  0.00    +0.000 A 
ATOM     18  C   UNL     1       3.270   4.864   4.362  0.00  0.00    +0.000 A 
ATOM     19  C   UNL     1       3.622   4.940   3.027  0.00  0.00    +0.004 A 
ATOM     20  C   UNL     1       2.647   5.134   2.066  0.00  0.00    -0.045 A 
ATOM     21  C   UNL     1       1.322   5.257   2.440  0.00  0.00    +0.004 A 
ATOM     22  C   UNL     1       0.970   5.176   3.774  0.00  0.00    +0.000 A 
ENDBRANCH  16  20
ENDBRANCH   5  16
ENDBRANCH   1   5
BRANCH   2  23
ATOM     23  C   UNL     1      -0.018   1.461   0.010  0.00  0.00    +0.200 C 
BRANCH  23  24
ATOM     24  N   UNL     1       0.002  -0.004   0.002  0.00  0.00    -0.306 N 
ATOM     25  C   UNL     1      -1.156  -0.694   0.009  0.00  0.00    +0.220 C 
ATOM     26  O   UNL     1      -2.214  -0.102   0.023  0.00  0.00    -0.275 OA
ATOM     27  H   UNL     1       0.849  -0.478  -0.009  0.00  0.00    +0.149 HD
BRANCH  25  28
ATOM     28  C   UNL     1      -1.135  -2.201   0.001  0.00  0.00    +0.048 C 
ATOM     29  C   UNL     1      -0.419  -2.694  -1.258  0.00  0.00    +0.019 C 
ATOM     30  C   UNL     1      -0.399  -4.224  -1.266  0.00  0.00    -0.009 C 
ATOM     31  C   UNL     1      -1.834  -4.753  -1.255  0.00  0.00    +0.007 C 
ATOM     32  C   UNL     1      -2.550  -4.260   0.004  0.00  0.00    -0.009 C 
ATOM     33  C   UNL     1      -2.571  -2.730   0.012  0.00  0.00    +0.019 C 
ATOM     34  C   UNL     1      -1.810  -4.767   1.243  0.00  0.00    +0.007 C 
ATOM     35  C   UNL     1      -0.375  -4.237   1.232  0.00  0.00    -0.009 C 
ATOM     36  C   UNL     1       0.342  -4.731  -0.027  0.00  0.00    +0.007 C 
ATOM     37  C   UNL     1      -0.395  -2.707   1.241  0.00  0.00    +0.019 C 
ENDBRANCH  25  28
ENDBRANCH  23  24
ENDBRANCH   2  23
TORSDOF 7
