REMARK  Name = ZINC60374284
REMARK  15 active torsions:
REMARK  status: ('A' for Active; 'I' for Inactive)
REMARK    1  A    between atoms: C_1  and  C_2
REMARK    2  A    between atoms: C_2  and  C_3
REMARK    3  A    between atoms: C_2  and  C_4
REMARK    4  A    between atoms: C_2  and  O_5
REMARK    5  A    between atoms: O_5  and  C_6
REMARK    6  A    between atoms: N_8  and  C_9
REMARK    7  A    between atoms: C_9  and  C_11
REMARK    8  A    between atoms: C_9  and  C_18
REMARK    9  A    between atoms: C_11  and  C_12
REMARK   10  A    between atoms: N_20  and  C_21
REMARK   11  A    between atoms: C_21  and  C_22
REMARK   12  A    between atoms: C_22  and  C_24
REMARK   13  A    between atoms: C_22  and  N_32
REMARK   14  A    between atoms: C_29  and  O_30
REMARK   15  A    between atoms: O_30  and  C_31
REMARK                            x       y       z     vdW  Elec       q    Type
REMARK                         _______ _______ _______ _____ _____    ______ ____
ROOT
ATOM      1  C   UNL     1       4.960  -0.062  -0.714  0.00  0.00    +0.234 C 
ATOM      2  O   UNL     1       4.598  -0.317   0.415  0.00  0.00    -0.274 OA
ATOM      3  N   UNL     1       6.191  -0.424  -1.126  0.00  0.00    -0.315 N 
ATOM      4  H   UNL     1       6.480  -0.220  -2.029  0.00  0.00    +0.149 HD
ENDROOT
BRANCH   1   5
ATOM      5  C   UNL     1       4.032   0.660  -1.657  0.00  0.00    +0.166 C 
BRANCH   5   8
ATOM      6  C   UNL     1       2.307   0.990   0.032  0.00  0.00    +0.401 C 
ATOM      7  O   UNL     1       3.141   1.524   0.737  0.00  0.00    -0.226 OA
ATOM      8  N   UNL     1       2.652   0.524  -1.185  0.00  0.00    -0.269 N 
ATOM      9  H   UNL     1       1.986   0.098  -1.747  0.00  0.00    +0.153 HD
BRANCH   6  10
ATOM     10  O   UNL     1       1.039   0.865   0.466  0.00  0.00    -0.445 OA
BRANCH  10  12
ATOM     11  C   UNL     1       1.043   2.882   1.798  0.00  0.00    +0.055 C 
ATOM     12  C   UNL     1       0.744   1.382   1.766  0.00  0.00    +0.107 C 
ATOM     13  C   UNL     1       1.608   0.667   2.807  0.00  0.00    +0.055 C 
ATOM     14  C   UNL     1      -0.735   1.150   2.083  0.00  0.00    +0.055 C 
ENDBRANCH  10  12
ENDBRANCH   6  10
ENDBRANCH   5   8
BRANCH   5  15
ATOM     15  C   UNL     1       4.409   2.142  -1.708  0.00  0.00    +0.067 C 
BRANCH  15  16
ATOM     16  C   UNL     1       3.563   2.841  -2.742  0.00  0.00    -0.045 A 
ATOM     17  C   UNL     1       3.996   2.917  -4.052  0.00  0.00    +0.004 A 
ATOM     18  C   UNL     1       3.220   3.558  -5.000  0.00  0.00    +0.000 A 
ATOM     19  C   UNL     1       2.011   4.121  -4.638  0.00  0.00    +0.000 A 
ATOM     20  C   UNL     1       1.578   4.044  -3.327  0.00  0.00    +0.000 A 
ATOM     21  C   UNL     1       2.352   3.400  -2.380  0.00  0.00    +0.004 A 
ENDBRANCH  15  16
ENDBRANCH   5  15
ENDBRANCH   1   5
BRANCH   3  22
ATOM     22  C   UNL     1       7.092  -1.126  -0.209  0.00  0.00    +0.093 C 
BRANCH  22  23
ATOM     23  C   UNL     1       8.458  -1.306  -0.875  0.00  0.00    -0.017 C 
BRANCH  23  24
ATOM     24  C   UNL     1       8.319  -2.211  -2.071  0.00  0.00    -0.018 A 
ATOM     25  C   UNL     1       8.253  -1.673  -3.342  0.00  0.00    +0.005 A 
ATOM     26  C   UNL     1       8.125  -2.503  -4.440  0.00  0.00    +0.000 A 
ATOM     27  C   UNL     1       8.062  -3.874  -4.269  0.00  0.00    +0.004 A 
ATOM     28  C   UNL     1       8.127  -4.417  -3.001  0.00  0.00    +0.046 A 
ATOM     29  C   UNL     1       8.261  -3.586  -1.898  0.00  0.00    +0.122 A 
BRANCH  29  30
ATOM     30  O   UNL     1       8.332  -4.119  -0.649  0.00  0.00    -0.495 OA
ATOM     31  C   UNL     1       8.266  -5.542  -0.546  0.00  0.00    +0.277 C 
ENDBRANCH  29  30
ENDBRANCH  23  24
BRANCH  23  32
ATOM     32  N   UNL     1       8.967   0.003  -1.308  0.00  0.00    +0.385 N 
ATOM     33  C   UNL     1       9.079   0.919  -0.144  0.00  0.00    -0.078 C 
ATOM     34  C   UNL     1      10.108   1.975  -0.622  0.00  0.00    -0.020 C 
ATOM     35  C   UNL     1      11.112   1.133  -1.442  0.00  0.00    -0.020 C 
ATOM     36  C   UNL     1      10.338  -0.136  -1.845  0.00  0.00    -0.078 C 
ATOM     37  H   UNL     1       8.358   0.399  -2.007  0.00  0.00    -0.081 HD
ENDBRANCH  23  32
ENDBRANCH  22  23
ENDBRANCH   3  22
TORSDOF 11
