REMARK  Name = ZINC13500648
REMARK  11 active torsions:
REMARK  status: ('A' for Active; 'I' for Inactive)
REMARK    1  A    between atoms: C_1  and  C_2
REMARK    2  A    between atoms: C_9  and  C_14
REMARK    3  A    between atoms: C_14  and  N_72
REMARK    4  A    between atoms: C_15  and  N_72
REMARK    5  A    between atoms: C_21  and  C_23
REMARK    6  A    between atoms: C_21  and  C_35
REMARK    7  A    between atoms: C_21  and  N_72
REMARK    8  A    between atoms: N_27  and  C_28
REMARK    9  A    between atoms: C_28  and  C_29
REMARK   10  A    between atoms: C_35  and  C_36
REMARK   11  A    between atoms: C_35  and  C_37
REMARK                            x       y       z     vdW  Elec       q    Type
REMARK                         _______ _______ _______ _____ _____    ______ ____
ROOT
ATOM      1  N   UNL     1      -0.395   1.264   2.524  0.00  0.00    +0.391 N 
ATOM      2  H   UNL     1      -0.906   1.566   3.362  0.00  0.00    -0.080 HD
ENDROOT
BRANCH   1   3
ATOM      3  C   UNL     1       0.965   1.842   2.556  0.00  0.00    -0.067 C 
ATOM      4  C   UNL     1       0.909   3.175   3.305  0.00  0.00    -0.015 C 
ATOM      5  C   UNL     1       2.310   3.787   3.362  0.00  0.00    -0.002 C 
ATOM      6  C   UNL     1       2.823   4.022   1.940  0.00  0.00    -0.000 C 
ATOM      7  C   UNL     1       2.879   2.688   1.192  0.00  0.00    -0.002 C 
ATOM      8  C   UNL     1       1.478   2.077   1.134  0.00  0.00    -0.015 C 
ENDBRANCH   1   3
BRANCH   1   9
ATOM      9  C   UNL     1      -0.316  -0.212   2.518  0.00  0.00    -0.036 C 
BRANCH   9  18
ATOM     10  C   UNL     1      -2.062  -2.583   9.369  0.00  0.00    +0.044 C 
ATOM     11  C   UNL     1      -1.037  -2.216   8.327  0.00  0.00    -0.050 A 
ATOM     12  C   UNL     1       0.315  -2.308   8.629  0.00  0.00    +0.005 A 
ATOM     13  C   UNL     1       1.269  -1.976   7.692  0.00  0.00    +0.026 A 
ATOM     14  C   UNL     1       0.875  -1.545   6.429  0.00  0.00    +0.049 A 
ATOM     15  C   UNL     1      -0.496  -1.453   6.127  0.00  0.00    -0.001 A 
ATOM     16  C   UNL     1      -1.447  -1.795   7.094  0.00  0.00    +0.013 A 
ATOM     17  C   UNL     1      -0.900  -0.994   4.797  0.00  0.00    +0.017 A 
ATOM     18  C   UNL     1       0.066  -0.683   3.897  0.00  0.00    +0.001 A 
ATOM     19  C   UNL     1       1.428  -0.793   4.251  0.00  0.00    +0.251 A 
ATOM     20  O   UNL     1       2.280  -0.503   3.430  0.00  0.00    -0.268 OA
ATOM     21  N   UNL     1       1.809  -1.208   5.472  0.00  0.00    -0.322 N 
ATOM     22  H   UNL     1       2.753  -1.272   5.682  0.00  0.00    +0.169 HD
ENDBRANCH   9  18
ENDBRANCH   1   9
BRANCH   1  23
ATOM     23  C   UNL     1      -1.117   1.736   1.324  0.00  0.00    +0.006 C 
BRANCH  23  24
ATOM     24  C   UNL     1      -2.438   1.016   1.230  0.00  0.00    +0.139 A 
ATOM     25  N   UNL     1      -3.303   0.838   2.198  0.00  0.00    -0.115 NA
ATOM     26  N   UNL     1      -4.303   0.180   1.721  0.00  0.00    -0.023 NA
ATOM     27  N   UNL     1      -4.095  -0.072   0.476  0.00  0.00    -0.044 NA
ATOM     28  N   UNL     1      -2.955   0.427   0.136  0.00  0.00    -0.226 N 
BRANCH  28  29
ATOM     29  C   UNL     1      -2.340   0.364  -1.192  0.00  0.00    +0.182 C 
BRANCH  29  30
ATOM     30  C   UNL     1      -1.490  -0.876  -1.294  0.00  0.00    -0.026 A 
ATOM     31  C   UNL     1      -0.155  -0.830  -0.937  0.00  0.00    +0.005 A 
ATOM     32  C   UNL     1       0.624  -1.969  -1.026  0.00  0.00    +0.000 A 
ATOM     33  C   UNL     1       0.070  -3.151  -1.480  0.00  0.00    +0.000 A 
ATOM     34  C   UNL     1      -1.263  -3.195  -1.842  0.00  0.00    +0.000 A 
ATOM     35  C   UNL     1      -2.043  -2.058  -1.748  0.00  0.00    +0.005 A 
ENDBRANCH  29  30
ENDBRANCH  28  29
ENDBRANCH  23  24
BRANCH  23  36
ATOM     36  C   UNL     1      -1.364   3.240   1.457  0.00  0.00    -0.024 C 
ATOM     37  C   UNL     1      -2.074   3.525   2.782  0.00  0.00    +0.006 C 
ATOM     38  C   UNL     1      -2.240   3.718   0.297  0.00  0.00    +0.006 C 
ENDBRANCH  23  36
ENDBRANCH   1  23
TORSDOF 8
