REMARK  Name = ZINC37424707
REMARK  4 active torsions:
REMARK  status: ('A' for Active; 'I' for Inactive)
REMARK    1  A    between atoms: C_1  and  C_2
REMARK    2  A    between atoms: N_5  and  C_8
REMARK    3  A    between atoms: C_6  and  N_7
REMARK    4  A    between atoms: C_8  and  C_9
REMARK                            x       y       z     vdW  Elec       q    Type
REMARK                         _______ _______ _______ _____ _____    ______ ____
ROOT
ATOM      1  C   UNL     1      -0.018   1.503   0.010  0.00  0.00    +0.049 C 
ATOM      2  C   UNL     1       0.002  -0.004   0.002  0.00  0.00    +0.008 A 
ATOM      3  C   UNL     1       0.009  -0.821  -1.132  0.00  0.00    +0.139 A 
ATOM      4  N   UNL     1       0.028  -2.069  -0.740  0.00  0.00    -0.177 NA
ATOM      5  N   UNL     1       0.034  -2.092   0.661  0.00  0.00    -0.246 N 
ATOM      6  C   UNL     1       0.024  -0.812   1.098  0.00  0.00    +0.118 A 
ENDROOT
BRANCH   6   7
ATOM      7  N   UNL     1       0.030  -0.396   2.426  0.00  0.00    -0.343 N 
ATOM      8  H   UNL     1       0.018   0.550   2.639  0.00  0.00    +0.144 HD
ATOM      9  H   UNL     1       0.046  -1.053   3.140  0.00  0.00    +0.144 HD
ENDBRANCH   6   7
BRANCH   5  10
ATOM     10  C   UNL     1       0.055  -3.290   1.504  0.00  0.00    +0.180 C 
BRANCH  10  11
ATOM     11  C   UNL     1       1.483  -3.681   1.787  0.00  0.00    -0.023 A 
ATOM     12  C   UNL     1       2.145  -4.544   0.934  0.00  0.00    +0.025 A 
ATOM     13  C   UNL     1       3.456  -4.903   1.194  0.00  0.00    +0.043 A 
ATOM     14  C   UNL     1       4.104  -4.398   2.307  0.00  0.00    +0.040 A 
ATOM     15  C   UNL     1       3.440  -3.534   3.159  0.00  0.00    +0.043 A 
ATOM     16  C   UNL     1       2.131  -3.171   2.896  0.00  0.00    +0.025 A 
ATOM     17 CL   UNL     1       4.252  -2.900   4.557  0.00  0.00    -0.083 Cl
ATOM     18 CL   UNL     1       4.287  -5.988   0.123  0.00  0.00    -0.083 Cl
ENDBRANCH  10  11
ENDBRANCH   5  10
TORSDOF 3
