REMARK  Name = ZINC12745233
REMARK  12 active torsions:
REMARK  status: ('A' for Active; 'I' for Inactive)
REMARK    1  A    between atoms: C_1  and  C_2
REMARK    2  A    between atoms: C_2  and  N_3
REMARK    3  A    between atoms: N_3  and  C_4
REMARK    4  A    between atoms: C_12  and  C_14
REMARK    5  A    between atoms: C_14  and  C_16
REMARK    6  A    between atoms: C_14  and  O_17
REMARK    7  A    between atoms: O_17  and  C_18
REMARK    8  A    between atoms: C_18  and  C_20
REMARK    9  A    between atoms: C_22  and  S_27
REMARK   10  A    between atoms: S_27  and  N_30
REMARK   11  A    between atoms: N_30  and  C_31
REMARK   12  A    between atoms: N_30  and  C_32
REMARK                            x       y       z     vdW  Elec       q    Type
REMARK                         _______ _______ _______ _____ _____    ______ ____
ROOT
ATOM      1  O   UNL     1       1.055   4.654   2.082  0.00  0.00    -0.449 OA
ENDROOT
BRANCH   1   2
ATOM      2  C   UNL     1       0.805   3.523   1.207  0.00  0.00    +0.259 C 
ATOM      3  C   UNL     1       2.079   2.685   1.079  0.00  0.00    +0.062 C 
BRANCH   2   5
ATOM      4  N   UNL     1      -0.896   1.736   1.025  0.00  0.00    -0.294 N 
ATOM      5  C   UNL     1      -0.298   2.675   1.786  0.00  0.00    +0.256 C 
ATOM      6  O   UNL     1      -0.648   2.837   2.935  0.00  0.00    -0.272 OA
BRANCH   4   7
ATOM      7  C   UNL     1      -2.034   0.980   1.554  0.00  0.00    +0.099 C 
ATOM      8  C   UNL     1      -3.164   1.947   1.942  0.00  0.00    +0.046 C 
ATOM      9  C   UNL     1      -4.227   1.204   2.788  0.00  0.00    +0.168 C 
ATOM     10  S   UNL     1      -3.243  -0.118   3.603  0.00  0.00    -0.029 S 
ATOM     11  O   UNL     1      -3.718  -1.384   3.166  0.00  0.00    -0.174 OA
ATOM     12  O   UNL     1      -3.161   0.156   4.995  0.00  0.00    -0.174 OA
ATOM     13  C   UNL     1      -1.601   0.204   2.831  0.00  0.00    +0.188 C 
ENDBRANCH   4   7
BRANCH   4  15
ATOM     14  C   UNL     1      -1.230   2.279  -1.336  0.00  0.00    +0.024 C 
ATOM     15  C   UNL     1      -0.407   1.471  -0.330  0.00  0.00    +0.105 C 
ENDBRANCH   4  15
ENDBRANCH   2   5
ENDBRANCH   1   2
BRANCH   1  16
ATOM     16  C   UNL     1       1.498   5.788   1.504  0.00  0.00    +0.341 C 
ATOM     17  O   UNL     1       1.670   5.830   0.302  0.00  0.00    -0.245 OA
BRANCH  16  18
ATOM     18  C   UNL     1       1.773   6.979   2.332  0.00  0.00    +0.079 A 
ATOM     19  C   UNL     1       1.576   6.934   3.714  0.00  0.00    +0.045 A 
ATOM     20  C   UNL     1       1.836   8.050   4.481  0.00  0.00    +0.106 A 
ATOM     21  C   UNL     1       2.291   9.214   3.885  0.00  0.00    +0.030 A 
ATOM     22  C   UNL     1       2.489   9.267   2.517  0.00  0.00    +0.023 A 
ATOM     23  C   UNL     1       2.238   8.155   1.737  0.00  0.00    +0.055 A 
ATOM     24 CL   UNL     1       2.493   8.221   0.021  0.00  0.00    -0.083 Cl
BRANCH  20  25
ATOM     25  S   UNL     1       1.587   7.995   6.224  0.00  0.00    +0.060 S 
ATOM     26  O   UNL     1       1.382   9.336   6.648  0.00  0.00    -0.153 OA
ATOM     27  O   UNL     1       0.638   6.966   6.467  0.00  0.00    -0.153 OA
BRANCH  25  28
ATOM     28  N   UNL     1       3.011   7.497   6.907  0.00  0.00    -0.183 NA
ATOM     29  C   UNL     1       4.020   8.483   7.300  0.00  0.00    +0.131 C 
ATOM     30  C   UNL     1       3.263   6.069   7.116  0.00  0.00    +0.131 C 
ENDBRANCH  25  28
ENDBRANCH  20  25
ENDBRANCH  16  18
ENDBRANCH   1  16
TORSDOF 8
