REMARK  Name = ZINC43123284
REMARK  9 active torsions:
REMARK  status: ('A' for Active; 'I' for Inactive)
REMARK    1  A    between atoms: C_1  and  C_2
REMARK    2  A    between atoms: C_5  and  C_11
REMARK    3  A    between atoms: C_6  and  C_10
REMARK    4  A    between atoms: C_7  and  O_8
REMARK    5  A    between atoms: O_8  and  C_9
REMARK    6  A    between atoms: C_11  and  N_12
REMARK    7  A    between atoms: C_24  and  C_26
REMARK    8  A    between atoms: C_26  and  C_27
REMARK    9  A    between atoms: C_27  and  O_28
REMARK                            x       y       z     vdW  Elec       q    Type
REMARK                         _______ _______ _______ _____ _____    ______ ____
ROOT
ATOM      1  N   UNL     1      -1.369  -4.698  -0.395  0.00  0.00    -0.296 N 
ATOM      2  C   UNL     1      -1.847  -5.068   0.855  0.00  0.00    +0.150 A 
ATOM      3  C   UNL     1      -3.219  -4.958   1.111  0.00  0.00    +0.111 A 
ATOM      4  C   UNL     1      -3.693  -5.333   2.356  0.00  0.00    +0.157 A 
ATOM      5  N   UNL     1      -2.828  -5.779   3.260  0.00  0.00    -0.201 NA
ATOM      6  C   UNL     1      -1.535  -5.868   2.987  0.00  0.00    +0.216 A 
ATOM      7  N   UNL     1      -1.043  -5.519   1.805  0.00  0.00    -0.198 NA
ATOM      8  N   UNL     1      -0.672  -6.337   3.963  0.00  0.00    -0.327 N 
ATOM      9 CL   UNL     1      -5.384  -5.222   2.729  0.00  0.00    -0.060 Cl
ATOM     10  N   UNL     1      -4.075  -4.470   0.115  0.00  0.00    -0.279 N 
ATOM     11  C   UNL     1      -3.650  -4.370  -1.160  0.00  0.00    +0.238 C 
ATOM     12  O   UNL     1      -4.384  -3.900  -2.003  0.00  0.00    -0.273 OA
ATOM     13  C   UNL     1      -2.273  -4.832  -1.548  0.00  0.00    +0.164 C 
ATOM     14  H   UNL     1      -1.016  -6.595   4.832  0.00  0.00    +0.145 HD
ATOM     15  H   UNL     1       0.278  -6.408   3.778  0.00  0.00    +0.145 HD
ATOM     16  H   UNL     1      -4.979  -4.202   0.344  0.00  0.00    +0.155 HD
ENDROOT
BRANCH   1  17
ATOM     17  C   UNL     1      -0.007  -4.184  -0.560  0.00  0.00    +0.160 C 
BRANCH  17  22
ATOM     18  C   UNL     1      -0.046   1.434   0.603  0.00  0.00    +0.049 C 
ATOM     19  C   UNL     1       0.003  -0.040   0.292  0.00  0.00    +0.007 A 
ATOM     20  C   UNL     1      -1.152  -0.795   0.297  0.00  0.00    +0.089 A 
ATOM     21  N   UNL     1      -1.117  -2.086   0.026  0.00  0.00    -0.362 N 
ATOM     22  C   UNL     1       0.012  -2.707  -0.259  0.00  0.00    +0.040 A 
ATOM     23  C   UNL     1       1.209  -2.022  -0.285  0.00  0.00    +0.012 A 
ATOM     24  C   UNL     1       1.214  -0.657  -0.010  0.00  0.00    +0.129 A 
ATOM     25  C   UNL     1       2.493  -2.740  -0.612  0.00  0.00    +0.049 C 
ATOM     26  H   UNL     1      -1.944  -2.592   0.037  0.00  0.00    +0.165 HD
BRANCH  24  27
ATOM     27  O   UNL     1       2.371   0.053  -0.031  0.00  0.00    -0.494 OA
ATOM     28  C   UNL     1       3.102   0.138   1.194  0.00  0.00    +0.277 C 
ENDBRANCH  24  27
ENDBRANCH  17  22
ENDBRANCH   1  17
BRANCH  13  29
ATOM     29  C   UNL     1      -2.333  -6.298  -1.981  0.00  0.00    +0.059 C 
BRANCH  29  30
ATOM     30  C   UNL     1      -0.959  -6.737  -2.491  0.00  0.00    +0.158 C 
BRANCH  30  31
ATOM     31  O   UNL     1      -1.016  -8.106  -2.896  0.00  0.00    -0.395 OA
ATOM     32  H   UNL     1      -0.178  -8.452  -3.232  0.00  0.00    +0.209 HD
ENDBRANCH  30  31
ENDBRANCH  29  30
ENDBRANCH  13  29
TORSDOF 6
