REMARK  Name = ZINC09061337
REMARK  5 active torsions:
REMARK  status: ('A' for Active; 'I' for Inactive)
REMARK    1  A    between atoms: C_1  and  C_2
REMARK    2  A    between atoms: C_2  and  C_3
REMARK    3  A    between atoms: C_2  and  C_4
REMARK    4  A    between atoms: C_2  and  C_5
REMARK    5  A    between atoms: C_5  and  C_7
REMARK                            x       y       z     vdW  Elec       q    Type
REMARK                         _______ _______ _______ _____ _____    ______ ____
ROOT
ATOM      1  C   UNL     1       0.642  -2.217  -1.478  0.00  0.00    +0.153 C 
ATOM      2  C   UNL     1       1.777  -2.873  -0.662  0.00  0.00    +0.119 C 
ATOM      3  C   UNL     1       2.985  -2.873  -1.646  0.00  0.00    +0.115 C 
ATOM      4  C   UNL     1       2.369  -2.763  -3.040  0.00  0.00    +0.110 C 
ATOM      5  N   UNL     1       0.918  -2.533  -2.875  0.00  0.00    -0.311 N 
ATOM      6  C   UNL     1       0.029  -2.693  -3.934  0.00  0.00    +0.038 A 
ATOM      7  C   UNL     1      -1.149  -1.990  -4.055  0.00  0.00    +0.025 A 
ATOM      8  C   UNL     1      -1.963  -2.205  -5.155  0.00  0.00    +0.017 A 
ATOM      9  C   UNL     1      -1.597  -3.119  -6.129  0.00  0.00    +0.019 A 
ATOM     10  C   UNL     1      -0.420  -3.835  -6.017  0.00  0.00    +0.025 A 
ATOM     11  C   UNL     1       0.403  -3.635  -4.914  0.00  0.00    -0.003 A 
ATOM     12  C   UNL     1       1.652  -4.397  -4.724  0.00  0.00    +0.007 C 
ATOM     13  C   UNL     1       2.581  -4.020  -3.841  0.00  0.00    -0.003 C 
ATOM     14 BR   UNL     1      -2.718  -3.391  -7.627  0.00  0.00    -0.050 Br
ATOM     15  C   UNL     1       3.697  -1.589  -1.273  0.00  0.00    +0.245 C 
ATOM     16  O   UNL     1       4.646  -0.986  -2.004  0.00  0.00    -0.273 OA
ATOM     17  N   UNL     1       3.241  -1.163  -0.130  0.00  0.00    -0.145 NA
ATOM     18  C   UNL     1       2.232  -1.895   0.407  0.00  0.00    +0.245 C 
ATOM     19  O   UNL     1       1.775  -1.802   1.528  0.00  0.00    -0.273 OA
ENDROOT
BRANCH   1  20
ATOM     20  C   UNL     1       0.650  -0.725  -1.271  0.00  0.00    +0.160 C 
ATOM     21  O   UNL     1       1.483  -0.043  -1.819  0.00  0.00    -0.295 OA
BRANCH  20  23
ATOM     22  C   UNL     1      -0.258   1.441  -0.474  0.00  0.00    +0.018 C 
ATOM     23  C   UNL     1      -0.382  -0.082  -0.381  0.00  0.00    +0.022 C 
ATOM     24  C   UNL     1      -0.154  -0.524   1.066  0.00  0.00    +0.018 C 
ATOM     25  C   UNL     1      -1.780  -0.508  -0.831  0.00  0.00    +0.018 C 
ENDBRANCH  20  23
ENDBRANCH   1  20
TORSDOF 2
