REMARK  Name = ZINC59793171
REMARK  6 active torsions:
REMARK  status: ('A' for Active; 'I' for Inactive)
REMARK    1  A    between atoms: C_3  and  N_29
REMARK    2  A    between atoms: C_6  and  C_7
REMARK    3  A    between atoms: C_10  and  S_13
REMARK    4  A    between atoms: S_13  and  C_14
REMARK    5  A    between atoms: C_14  and  C_15
REMARK    6  A    between atoms: C_15  and  C_16
REMARK                            x       y       z     vdW  Elec       q    Type
REMARK                         _______ _______ _______ _____ _____    ______ ____
ROOT
ATOM      1  S   UNL     1      -3.282  -4.088   0.013  0.00  0.00    -0.086 S 
ENDROOT
BRANCH   1   5
ATOM      2  C   UNL     1      -1.271  -0.766   0.011  0.00  0.00    +0.182 A 
ATOM      3  N   UNL     1      -1.380  -2.103   0.004  0.00  0.00    -0.201 NA
ATOM      4  H   UNL     1      -4.355  -1.246   0.039  0.00  0.00    +0.191 HD
ATOM      5  C   UNL     1      -2.650  -2.443   0.016  0.00  0.00    +0.185 A 
ATOM      6  N   UNL     1      -3.387  -1.309   0.029  0.00  0.00    -0.253 N 
ATOM      7  N   UNL     1      -2.475  -0.241   0.031  0.00  0.00    -0.152 NA
BRANCH   2  13
ATOM      8  C   UNL     1      -0.017   1.389   0.010  0.00  0.00    +0.014 A 
ATOM      9  C   UNL     1       1.170   2.093   0.002  0.00  0.00    +0.033 A 
ATOM     10  C   UNL     1       2.377   1.418  -0.013  0.00  0.00    +0.126 A 
ATOM     11  C   UNL     1       2.402   0.035  -0.021  0.00  0.00    +0.033 A 
ATOM     12  C   UNL     1       1.221  -0.679  -0.014  0.00  0.00    +0.014 A 
ATOM     13  C   UNL     1       0.002  -0.004   0.002  0.00  0.00    +0.021 A 
BRANCH  10  14
ATOM     14  N   UNL     1       3.648   2.178  -0.022  0.00  0.00    +0.056 N 
ATOM     15  O   UNL     1       3.629   3.387  -0.016  0.00  0.00    -0.126 OA
ATOM     16  O   UNL     1       4.704   1.590  -0.036  0.00  0.00    -0.126 OA
ENDBRANCH  10  14
ENDBRANCH   2  13
ENDBRANCH   1   5
BRANCH   1  17
ATOM     17  C   UNL     1      -1.796  -5.128  -0.008  0.00  0.00    +0.086 C 
BRANCH  17  18
ATOM     18  C   UNL     1      -2.205  -6.602  -0.012  0.00  0.00    +0.107 C 
BRANCH  18  19
ATOM     19  C   UNL     1      -0.971  -7.466  -0.029  0.00  0.00    +0.219 C 
ATOM     20  O   UNL     1       0.128  -6.954  -0.037  0.00  0.00    -0.275 OA
ATOM     21  N   UNL     1      -1.088  -8.809  -0.035  0.00  0.00    -0.265 N 
ATOM     22  C   UNL     1       0.047  -9.604  -0.051  0.00  0.00    +0.165 A 
ATOM     23  N   UNL     1       1.308  -9.238  -0.056  0.00  0.00    -0.225 NA
ATOM     24  C   UNL     1       2.322 -10.130  -0.072  0.00  0.00    +0.080 A 
ATOM     25  C   UNL     1       3.712  -9.871  -0.079  0.00  0.00    +0.030 A 
ATOM     26  C   UNL     1       4.616 -10.900  -0.097  0.00  0.00    +0.017 A 
ATOM     27  C   UNL     1       4.206 -12.226  -0.108  0.00  0.00    +0.019 A 
ATOM     28  C   UNL     1       2.853 -12.516  -0.101  0.00  0.00    +0.032 A 
ATOM     29  C   UNL     1       1.940 -11.491  -0.084  0.00  0.00    +0.042 A 
ATOM     30  S   UNL     1       0.167 -11.387  -0.062  0.00  0.00    -0.052 S 
ATOM     31 BR   UNL     1       5.482 -13.622  -0.134  0.00  0.00    -0.050 Br
ATOM     32  H   UNL     1      -1.967  -9.219  -0.029  0.00  0.00    +0.157 HD
ENDBRANCH  18  19
ENDBRANCH  17  18
ENDBRANCH   1  17
TORSDOF 6
