REMARK  Name = ZINC39575890
REMARK  8 active torsions:
REMARK  status: ('A' for Active; 'I' for Inactive)
REMARK    1  A    between atoms: C_1  and  C_2
REMARK    2  A    between atoms: C_5  and  N_8
REMARK    3  A    between atoms: C_9  and  C_30
REMARK    4  A    between atoms: C_13  and  S_14
REMARK    5  A    between atoms: S_14  and  C_15
REMARK    6  A    between atoms: C_15  and  C_16
REMARK    7  A    between atoms: N_18  and  N_19
REMARK    8  A    between atoms: C_20  and  C_21
REMARK                            x       y       z     vdW  Elec       q    Type
REMARK                         _______ _______ _______ _____ _____    ______ ____
ROOT
ATOM      1  N   UNL     1       0.039  -4.193  -0.037  0.00  0.00    -0.254 N 
ATOM      2  C   UNL     1       0.172  -5.053   1.150  0.00  0.00    +0.213 C 
ATOM      3  N   UNL     1       0.158  -6.420   0.601  0.00  0.00    -0.242 N 
ATOM      4  N   UNL     1       0.027  -6.281  -0.787  0.00  0.00    -0.162 NA
ATOM      5  C   UNL     1      -0.044  -5.040  -1.133  0.00  0.00    +0.180 C 
ATOM      6  H   UNL     1       0.227  -7.249   1.099  0.00  0.00    +0.170 HD
ENDROOT
BRANCH   1  11
ATOM      7  C   UNL     1      -0.122   1.476  -0.118  0.00  0.00    +0.044 C 
ATOM      8  C   UNL     1      -0.079  -0.031  -0.097  0.00  0.00    -0.050 A 
ATOM      9  C   UNL     1       1.080  -0.682   0.282  0.00  0.00    +0.005 A 
ATOM     10  C   UNL     1       1.123  -2.063   0.302  0.00  0.00    +0.024 A 
ATOM     11  C   UNL     1      -0.001  -2.796  -0.057  0.00  0.00    +0.038 A 
ATOM     12  C   UNL     1      -1.164  -2.138  -0.436  0.00  0.00    +0.024 A 
ATOM     13  C   UNL     1      -1.201  -0.758  -0.449  0.00  0.00    +0.005 A 
ENDBRANCH   1  11
BRANCH   2  14
ATOM     14  C   UNL     1      -0.991  -4.845   2.086  0.00  0.00    -0.008 A 
ATOM     15  C   UNL     1      -0.777  -4.329   3.350  0.00  0.00    +0.008 A 
ATOM     16  C   UNL     1      -1.843  -4.138   4.209  0.00  0.00    +0.020 A 
ATOM     17  C   UNL     1      -3.124  -4.463   3.803  0.00  0.00    +0.041 A 
ATOM     18  C   UNL     1      -3.339  -4.980   2.538  0.00  0.00    +0.020 A 
ATOM     19  C   UNL     1      -2.272  -5.166   1.678  0.00  0.00    +0.008 A 
ATOM     20 CL   UNL     1      -4.464  -4.224   4.882  0.00  0.00    -0.084 Cl
ENDBRANCH   2  14
BRANCH   5  21
ATOM     21  S   UNL     1      -0.220  -4.489  -2.797  0.00  0.00    -0.079 S 
BRANCH  21  22
ATOM     22  C   UNL     1      -0.272  -6.022  -3.765  0.00  0.00    +0.174 C 
BRANCH  22  23
ATOM     23  C   UNL     1      -0.423  -5.689  -5.227  0.00  0.00    +0.242 C 
ATOM     24  O   UNL     1      -0.488  -4.531  -5.581  0.00  0.00    -0.273 OA
ATOM     25  N   UNL     1      -0.484  -6.677  -6.141  0.00  0.00    -0.206 N 
ATOM     26  H   UNL     1      -0.432  -7.603  -5.857  0.00  0.00    +0.177 HD
BRANCH  25  27
ATOM     27  N   UNL     1      -0.624  -6.367  -7.500  0.00  0.00    -0.188 NA
ATOM     28  C   UNL     1      -0.684  -7.328  -8.387  0.00  0.00    +0.136 C 
BRANCH  28  29
ATOM     29  C   UNL     1      -0.824  -7.017  -9.748  0.00  0.00    +0.000 C 
ATOM     30  C   UNL     1      -0.909  -7.913 -10.811  0.00  0.00    +0.004 A 
ATOM     31  C   UNL     1      -0.884  -9.323 -10.876  0.00  0.00    +0.010 A 
ATOM     32  C   UNL     1      -0.987  -9.944 -12.078  0.00  0.00    +0.001 A 
ATOM     33  C   UNL     1      -1.120  -9.221 -13.267  0.00  0.00    +0.002 A 
ATOM     34  C   UNL     1      -1.151  -7.867 -13.281  0.00  0.00    +0.026 A 
ATOM     35  C   UNL     1      -1.048  -7.146 -12.062  0.00  0.00    +0.043 A 
ATOM     36  N   UNL     1      -1.052  -5.853 -11.811  0.00  0.00    -0.380 N 
ATOM     37  C   UNL     1      -0.922  -5.640 -10.366  0.00  0.00    +0.150 C 
ATOM     38  H   UNL     1      -1.132  -5.153 -12.477  0.00  0.00    +0.160 HD
ENDBRANCH  28  29
ENDBRANCH  25  27
ENDBRANCH  22  23
ENDBRANCH  21  22
ENDBRANCH   5  21
TORSDOF 7
