REMARK  Name = ZINC06881355
REMARK  8 active torsions:
REMARK  status: ('A' for Active; 'I' for Inactive)
REMARK    1  A    between atoms: C_1  and  C_2
REMARK    2  A    between atoms: C_2  and  C_3
REMARK    3  A    between atoms: C_2  and  C_4
REMARK    4  A    between atoms: C_4  and  N_5
REMARK    5  A    between atoms: N_5  and  C_6
REMARK    6  A    between atoms: C_14  and  C_16
REMARK    7  A    between atoms: C_16  and  N_56
REMARK    8  A    between atoms: N_19  and  C_22
REMARK                            x       y       z     vdW  Elec       q    Type
REMARK                         _______ _______ _______ _____ _____    ______ ____
ROOT
ATOM      1  C   UNL     1      -5.649   6.449  -1.158  0.00  0.00    +0.019 C 
ENDROOT
BRANCH   1   7
ATOM      2  C   UNL     1      -3.702   6.013  -2.530  0.00  0.00    -0.059 C 
ATOM      3  C   UNL     1      -2.434   5.162  -2.640  0.00  0.00    +0.088 C 
ATOM      4  N   UNL     1      -1.560   5.440  -1.491  0.00  0.00    -0.320 N 
ATOM      5  C   UNL     1      -2.244   5.135  -0.227  0.00  0.00    +0.088 C 
ATOM      6  C   UNL     1      -3.512   5.985  -0.118  0.00  0.00    -0.059 C 
ATOM      7  N   UNL     1      -4.391   5.680  -1.266  0.00  0.00    +0.387 N 
ATOM      8  H   UNL     1      -4.612   4.677  -1.260  0.00  0.00    -0.081 HD
BRANCH   4   9
ATOM      9  C   UNL     1      -0.365   4.738  -1.593  0.00  0.00    +0.099 A 
ATOM     10  C   UNL     1       0.596   4.865  -0.595  0.00  0.00    +0.042 A 
ATOM     11  C   UNL     1       1.783   4.164  -0.712  0.00  0.00    +0.005 A 
ATOM     12  C   UNL     1       1.965   3.349  -1.822  0.00  0.00    +0.018 A 
ATOM     13  C   UNL     1       0.967   3.267  -2.771  0.00  0.00    +0.084 A 
ATOM     14  N   UNL     1      -0.209   3.945  -2.692  0.00  0.00    -0.350 N 
ATOM     15  H   UNL     1      -0.935   3.864  -3.414  0.00  0.00    +0.166 HD
ENDBRANCH   4   9
ENDBRANCH   1   7
BRANCH   1  17
ATOM     16  N   UNL     1      -7.809   6.554  -2.360  0.00  0.00    -0.298 N 
ATOM     17  C   UNL     1      -6.619   5.943  -2.195  0.00  0.00    +0.199 C 
ATOM     18  O   UNL     1      -6.328   4.987  -2.881  0.00  0.00    -0.278 OA
BRANCH  16  19
ATOM     19  C   UNL     1      -8.752   6.062  -3.367  0.00  0.00    +0.098 C 
ATOM     20  C   UNL     1      -9.201   4.637  -3.006  0.00  0.00    +0.046 C 
ATOM     21  C   UNL     1      -9.932   3.994  -4.209  0.00  0.00    +0.168 C 
ATOM     22  S   UNL     1      -9.166   4.843  -5.649  0.00  0.00    -0.029 S 
ATOM     23  O   UNL     1     -10.166   5.586  -6.333  0.00  0.00    -0.174 OA
ATOM     24  O   UNL     1      -8.373   3.910  -6.369  0.00  0.00    -0.174 OA
ATOM     25  C   UNL     1      -8.056   6.013  -4.758  0.00  0.00    +0.188 C 
ENDBRANCH  16  19
BRANCH  16  26
ATOM     26  C   UNL     1      -8.160   7.710  -1.530  0.00  0.00    +0.111 C 
BRANCH  26  28
ATOM     27  C   UNL     1      -8.240   9.240  -3.504  0.00  0.00    +0.009 C 
ATOM     28  C   UNL     1      -7.574   8.980  -2.151  0.00  0.00    +0.000 C 
ATOM     29  C   UNL     1      -7.828  10.167  -1.220  0.00  0.00    +0.009 C 
ENDBRANCH  26  28
ENDBRANCH  16  26
ENDBRANCH   1  17
TORSDOF 6
