REMARK  Name = ZINC35255113
REMARK  5 active torsions:
REMARK  status: ('A' for Active; 'I' for Inactive)
REMARK    1  A    between atoms: C_5  and  C_6
REMARK    2  A    between atoms: C_6  and  N_7
REMARK    3  A    between atoms: N_7  and  C_8
REMARK    4  A    between atoms: N_11  and  C_14
REMARK    5  A    between atoms: C_14  and  C_15
REMARK                            x       y       z     vdW  Elec       q    Type
REMARK                         _______ _______ _______ _____ _____    ______ ____
ROOT
ATOM      1  C   UNL     1      -2.674  -2.215  -1.368  0.00  0.00    -0.069 C 
ATOM      2  C   UNL     1      -2.222  -3.553  -0.777  0.00  0.00    -0.000 C 
ATOM      3  C   UNL     1      -3.384  -4.548  -0.830  0.00  0.00    +0.083 C 
ATOM      4  N   UNL     1      -3.814  -4.727  -2.222  0.00  0.00    -0.294 NA
ATOM      5  C   UNL     1      -4.297  -3.465  -2.796  0.00  0.00    +0.083 C 
ATOM      6  C   UNL     1      -3.162  -2.438  -2.803  0.00  0.00    -0.000 C 
ENDROOT
BRANCH   1   7
ATOM      7  N   UNL     1      -1.546  -1.275  -1.375  0.00  0.00    +0.384 N 
ATOM      8  H   UNL     1      -1.819  -0.424  -1.843  0.00  0.00    -0.085 HD
ATOM      9  H   UNL     1      -0.764  -1.690  -1.860  0.00  0.00    -0.085 HD
BRANCH   7  10
ATOM     10  C   UNL     1      -1.156  -0.969   0.008  0.00  0.00    -0.039 C 
BRANCH  10  15
ATOM     11  C   UNL     1      -0.016   1.351   0.009  0.00  0.00    +0.024 A 
ATOM     12  C   UNL     1       1.184   2.038   0.002  0.00  0.00    +0.025 A 
ATOM     13  C   UNL     1       2.343   1.335  -0.013  0.00  0.00    +0.060 A 
ATOM     14  S   UNL     1       1.753  -0.350  -0.017  0.00  0.00    -0.102 S 
ATOM     15  C   UNL     1       0.002  -0.004   0.002  0.00  0.00    -0.026 A 
ATOM     16 BR   UNL     1       1.208   3.929   0.011  0.00  0.00    -0.050 Br
ENDBRANCH  10  15
ENDBRANCH   7  10
ENDBRANCH   1   7
BRANCH   4  17
ATOM     17  C   UNL     1      -4.835  -5.778  -2.326  0.00  0.00    +0.180 C 
BRANCH  17  18
ATOM     18  C   UNL     1      -5.073  -6.105  -3.778  0.00  0.00    +0.225 C 
ATOM     19  O   UNL     1      -4.452  -5.521  -4.641  0.00  0.00    -0.275 OA
ATOM     20  N   UNL     1      -5.975  -7.048  -4.118  0.00  0.00    -0.328 N 
ATOM     21  H   UNL     1      -6.471  -7.515  -3.428  0.00  0.00    +0.145 HD
ATOM     22  H   UNL     1      -6.128  -7.258  -5.052  0.00  0.00    +0.145 HD
ENDBRANCH  17  18
ENDBRANCH   4  17
TORSDOF 5
