REMARK  Name = ZINC39957530
REMARK  3 active torsions:
REMARK  status: ('A' for Active; 'I' for Inactive)
REMARK    1  A    between atoms: C_4  and  N_7
REMARK    2  A    between atoms: C_9  and  C_17
REMARK    3  A    between atoms: C_10  and  C_12
REMARK                            x       y       z     vdW  Elec       q    Type
REMARK                         _______ _______ _______ _____ _____    ______ ____
ROOT
ATOM      1  C   UNL     1       5.922  -3.618  -0.578  0.00  0.00    +0.092 C 
ATOM      2  C   UNL     1       5.665  -4.563   0.560  0.00  0.00    +0.067 A 
ATOM      3  C   UNL     1       4.729  -5.547   0.454  0.00  0.00    +0.113 A 
ATOM      4  N   UNL     1       4.511  -6.393   1.514  0.00  0.00    -0.295 N 
ATOM      5  C   UNL     1       5.219  -6.255   2.651  0.00  0.00    +0.328 A 
ATOM      6  O   UNL     1       5.014  -7.011   3.580  0.00  0.00    -0.247 OA
ATOM      7  N   UNL     1       6.151  -5.292   2.773  0.00  0.00    -0.275 N 
ATOM      8  C   UNL     1       6.394  -4.441   1.757  0.00  0.00    +0.260 A 
ATOM      9  O   UNL     1       7.241  -3.571   1.873  0.00  0.00    -0.267 OA
ATOM     10  N   UNL     1       4.010  -5.693  -0.706  0.00  0.00    -0.303 N 
ATOM     11  C   UNL     1       4.460  -5.152  -1.880  0.00  0.00    +0.017 C 
ATOM     12  C   UNL     1       5.378  -4.163  -1.873  0.00  0.00    +0.024 C 
ATOM     13  C   UNL     1       5.856  -3.613  -3.075  0.00  0.00    +0.162 C 
ATOM     14  O   UNL     1       6.678  -2.719  -3.036  0.00  0.00    -0.292 OA
ATOM     15  C   UNL     1       5.368  -4.108  -4.409  0.00  0.00    +0.080 C 
ATOM     16  C   UNL     1       4.955  -5.578  -4.275  0.00  0.00    +0.014 C 
ATOM     17  C   UNL     1       3.901  -5.685  -3.176  0.00  0.00    +0.051 C 
ATOM     18  H   UNL     1       6.651  -5.209   3.599  0.00  0.00    +0.173 HD
ATOM     19  H   UNL     1       3.174  -6.185  -0.694  0.00  0.00    +0.153 HD
ATOM     20  H   UNL     1       3.844  -7.093   1.444  0.00  0.00    +0.172 HD
ENDROOT
BRANCH   1  23
ATOM     21  N   UNL     1       3.673  -0.628   0.251  0.00  0.00    -0.249 N 
ATOM     22  C   UNL     1       3.801  -2.081   0.051  0.00  0.00    +0.161 C 
ATOM     23  C   UNL     1       5.261  -2.297  -0.281  0.00  0.00    -0.015 C 
ATOM     24  C   UNL     1       5.854  -1.102  -0.262  0.00  0.00    +0.060 C 
ATOM     25  N   UNL     1       4.951  -0.092   0.041  0.00  0.00    -0.263 N 
ATOM     26  H   UNL     1       5.173   0.850   0.102  0.00  0.00    +0.170 HD
BRANCH  21  30
ATOM     27  C   UNL     1       0.210   1.468   1.226  0.00  0.00    +0.000 A 
ATOM     28  C   UNL     1       1.401   2.147   1.052  0.00  0.00    +0.002 A 
ATOM     29  C   UNL     1       2.552   1.455   0.729  0.00  0.00    +0.025 A 
ATOM     30  C   UNL     1       2.511   0.075   0.578  0.00  0.00    +0.048 A 
ATOM     31  C   UNL     1       1.313  -0.605   0.754  0.00  0.00    +0.025 A 
ATOM     32  C   UNL     1       0.166   0.093   1.077  0.00  0.00    +0.002 A 
ENDBRANCH  21  30
BRANCH  24  33
ATOM     33  C   UNL     1       7.286  -0.882  -0.536  0.00  0.00    +0.034 A 
ATOM     34  C   UNL     1       7.877   0.056  -1.342  0.00  0.00    +0.017 A 
ATOM     35  C   UNL     1       9.250   0.071  -1.443  0.00  0.00    +0.008 A 
ATOM     36  C   UNL     1       9.976  -0.840  -0.744  0.00  0.00    +0.046 A 
ATOM     37  S   UNL     1       8.703  -1.761   0.103  0.00  0.00    -0.095 S 
ENDBRANCH  24  33
ENDBRANCH   1  23
TORSDOF 3
