REMARK  Name = ZINC63221888
REMARK  10 active torsions:
REMARK  status: ('A' for Active; 'I' for Inactive)
REMARK    1  A    between atoms: C_1  and  N_2
REMARK    2  A    between atoms: N_2  and  C_3
REMARK    3  A    between atoms: N_2  and  C_4
REMARK    4  A    between atoms: C_7  and  C_10
REMARK    5  A    between atoms: C_10  and  C_12
REMARK    6  A    between atoms: C_10  and  C_29
REMARK    7  A    between atoms: C_12  and  N_13
REMARK    8  A    between atoms: N_13  and  C_14
REMARK    9  A    between atoms: N_17  and  C_22
REMARK   10  A    between atoms: C_22  and  C_23
REMARK                            x       y       z     vdW  Elec       q    Type
REMARK                         _______ _______ _______ _____ _____    ______ ____
ROOT
ATOM      1  C   UNL     1      -4.870  -2.906   0.033  0.00  0.00    +0.064 C 
ENDROOT
BRANCH   1   2
ATOM      2  C   UNL     1      -5.656  -2.555   1.269  0.00  0.00    -0.033 C 
ATOM      3  C   UNL     1      -6.051  -3.399   2.250  0.00  0.00    -0.000 A 
ATOM      4  C   UNL     1      -5.873  -4.842   2.450  0.00  0.00    +0.010 A 
ATOM      5  C   UNL     1      -6.395  -5.420   3.555  0.00  0.00    +0.001 A 
ATOM      6  C   UNL     1      -7.100  -4.678   4.512  0.00  0.00    +0.002 A 
ATOM      7  C   UNL     1      -7.304  -3.348   4.398  0.00  0.00    +0.026 A 
ATOM      8  C   UNL     1      -6.799  -2.637   3.275  0.00  0.00    +0.043 A 
ATOM      9  N   UNL     1      -6.864  -1.371   2.942  0.00  0.00    -0.380 N 
ATOM     10  C   UNL     1      -6.159  -1.185   1.669  0.00  0.00    +0.145 C 
ATOM     11  H   UNL     1      -7.302  -0.673   3.454  0.00  0.00    +0.160 HD
ENDBRANCH   1   2
BRANCH   1  15
ATOM     12  C   UNL     1      -1.198  -0.719   0.010  0.00  0.00    +0.029 A 
ATOM     13  C   UNL     1      -1.181  -2.108   0.008  0.00  0.00    +0.023 A 
ATOM     14  C   UNL     1      -2.369  -2.812   0.016  0.00  0.00    +0.006 A 
ATOM     15  C   UNL     1      -3.575  -2.135   0.025  0.00  0.00    -0.039 A 
ATOM     16  C   UNL     1      -3.596  -0.752   0.027  0.00  0.00    +0.006 A 
ATOM     17  C   UNL     1      -2.411  -0.042   0.025  0.00  0.00    +0.023 A 
BRANCH  12  19
ATOM     18  C   UNL     1      -0.018   1.461   0.010  0.00  0.00    +0.129 C 
ATOM     19  N   UNL     1       0.002  -0.004   0.002  0.00  0.00    -0.336 N 
ATOM     20  C   UNL     1       1.281  -0.719  -0.014  0.00  0.00    +0.129 C 
ENDBRANCH  12  19
ENDBRANCH   1  15
BRANCH   1  21
ATOM     21  C   UNL     1      -5.686  -2.545  -1.210  0.00  0.00    +0.114 C 
BRANCH  21  22
ATOM     22  N   UNL     1      -6.888  -3.381  -1.265  0.00  0.00    -0.340 N 
ATOM     23  H   UNL     1      -7.054  -4.037  -0.570  0.00  0.00    +0.146 HD
BRANCH  22  24
ATOM     24  C   UNL     1      -7.786  -3.235  -2.308  0.00  0.00    +0.071 A 
ATOM     25  C   UNL     1      -7.547  -2.286  -3.325  0.00  0.00    +0.157 A 
ATOM     26  N   UNL     1      -8.392  -2.146  -4.309  0.00  0.00    -0.174 NA
ATOM     27  N   UNL     1      -9.549  -2.927  -4.381  0.00  0.00    -0.224 N 
ATOM     28  C   UNL     1      -9.817  -3.845  -3.432  0.00  0.00    +0.288 A 
ATOM     29  O   UNL     1     -10.830  -4.525  -3.502  0.00  0.00    -0.265 OA
ATOM     30  C   UNL     1      -8.923  -4.021  -2.366  0.00  0.00    +0.129 A 
ATOM     31 CL   UNL     1      -9.241  -5.201  -1.134  0.00  0.00    -0.076 Cl
BRANCH  27  32
ATOM     32  C   UNL     1     -10.479  -2.746  -5.499  0.00  0.00    +0.182 C 
BRANCH  32  33
ATOM     33  C   UNL     1     -11.505  -1.704  -5.135  0.00  0.00    -0.026 A 
ATOM     34  C   UNL     1     -12.681  -2.081  -4.513  0.00  0.00    +0.005 A 
ATOM     35  C   UNL     1     -13.623  -1.126  -4.179  0.00  0.00    +0.000 A 
ATOM     36  C   UNL     1     -13.389   0.206  -4.466  0.00  0.00    +0.000 A 
ATOM     37  C   UNL     1     -12.212   0.583  -5.087  0.00  0.00    +0.000 A 
ATOM     38  C   UNL     1     -11.269  -0.372  -5.417  0.00  0.00    +0.005 A 
ENDBRANCH  32  33
ENDBRANCH  27  32
ENDBRANCH  22  24
ENDBRANCH  21  22
ENDBRANCH   1  21
TORSDOF 8
