REMARK  Name = ZINC30944663
REMARK  6 active torsions:
REMARK  status: ('A' for Active; 'I' for Inactive)
REMARK    1  A    between atoms: C_4  and  C_7
REMARK    2  A    between atoms: C_8  and  C_9
REMARK    3  A    between atoms: C_9  and  N_10
REMARK    4  A    between atoms: C_16  and  C_18
REMARK    5  A    between atoms: N_23  and  C_25
REMARK    6  A    between atoms: C_25  and  C_26
REMARK                            x       y       z     vdW  Elec       q    Type
REMARK                         _______ _______ _______ _____ _____    ______ ____
ROOT
ATOM      1  N   UNL     1       3.250   1.466  -1.151  0.00  0.00    -0.296 NA
ATOM      2  C   UNL     1       2.617   1.092  -2.423  0.00  0.00    +0.103 C 
ATOM      3  C   UNL     1       3.379   1.747  -3.580  0.00  0.00    +0.123 C 
ATOM      4  N   UNL     1       4.802   1.391  -3.464  0.00  0.00    -0.299 N 
ATOM      5  C   UNL     1       5.471   1.609  -2.172  0.00  0.00    +0.123 C 
ATOM      6  C   UNL     1       4.626   0.960  -1.071  0.00  0.00    +0.103 C 
ATOM      7  C   UNL     1       5.474   0.877  -4.513  0.00  0.00    +0.217 C 
ATOM      8  O   UNL     1       6.666   0.669  -4.427  0.00  0.00    -0.275 OA
ENDROOT
BRANCH   7   9
ATOM      9  C   UNL     1       4.745   0.560  -5.793  0.00  0.00    +0.059 C 
ATOM     10  C   UNL     1       4.119  -0.834  -5.694  0.00  0.00    +0.009 C 
ATOM     11  C   UNL     1       3.432  -1.172  -7.020  0.00  0.00    -0.018 C 
ATOM     12  C   UNL     1       4.456  -1.092  -8.155  0.00  0.00    -0.078 C 
ATOM     13  N   UNL     1       5.025   0.261  -8.208  0.00  0.00    +0.383 N 
ATOM     14  C   UNL     1       5.731   0.590  -6.963  0.00  0.00    -0.066 C 
ATOM     15  H   UNL     1       4.192   0.970  -8.319  0.00  0.00    -0.081 HD
BRANCH  13  16
ATOM     16  C   UNL     1       5.909   0.414  -9.371  0.00  0.00    -0.040 C 
BRANCH  16  17
ATOM     17  C   UNL     1       5.096   0.316 -10.637  0.00  0.00    -0.027 A 
ATOM     18  C   UNL     1       4.904  -0.912 -11.243  0.00  0.00    +0.044 A 
ATOM     19  C   UNL     1       4.154  -1.002 -12.402  0.00  0.00    +0.020 A 
ATOM     20  C   UNL     1       3.605   0.137 -12.960  0.00  0.00    +0.003 A 
ATOM     21  C   UNL     1       3.801   1.366 -12.358  0.00  0.00    +0.020 A 
ATOM     22  C   UNL     1       4.546   1.456 -11.196  0.00  0.00    +0.044 A 
ATOM     23 CL   UNL     1       4.792   2.999 -10.440  0.00  0.00    -0.083 Cl
ATOM     24 CL   UNL     1       5.600  -2.342 -10.546  0.00  0.00    -0.083 Cl
ENDBRANCH  16  17
ENDBRANCH  13  16
ENDBRANCH   7   9
BRANCH   1  25
ATOM     25  C   UNL     1       2.450   1.001  -0.009  0.00  0.00    +0.111 C 
BRANCH  25  27
ATOM     26  C   UNL     1      -0.004   1.044   0.020  0.00  0.00    +0.005 C 
ATOM     27  C   UNL     1       1.131   1.729   0.010  0.00  0.00    -0.011 C 
BRANCH  26  31
ATOM     28  C   UNL     1      -3.723   3.095   0.056  0.00  0.00    +0.000 A 
ATOM     29  C   UNL     1      -3.699   1.712   0.049  0.00  0.00    +0.001 A 
ATOM     30  C   UNL     1      -2.494   1.040   0.037  0.00  0.00    +0.008 A 
ATOM     31  C   UNL     1      -1.298   1.758   0.033  0.00  0.00    -0.025 A 
ATOM     32  C   UNL     1      -1.329   3.153   0.046  0.00  0.00    +0.008 A 
ATOM     33  C   UNL     1      -2.540   3.813   0.051  0.00  0.00    +0.001 A 
ENDBRANCH  26  31
ENDBRANCH  25  27
ENDBRANCH   1  25
TORSDOF 6
