REMARK  Name = ZINC20735269
REMARK  5 active torsions:
REMARK  status: ('A' for Active; 'I' for Inactive)
REMARK    1  A    between atoms: C_1  and  C_2
REMARK    2  A    between atoms: C_2  and  C_3
REMARK    3  A    between atoms: C_2  and  C_4
REMARK    4  A    between atoms: C_12  and  O_26
REMARK    5  A    between atoms: N_18  and  C_19
REMARK                            x       y       z     vdW  Elec       q    Type
REMARK                         _______ _______ _______ _____ _____    ______ ____
ROOT
ATOM      1  C   UNL     1      -1.412  -0.526   0.013  0.00  0.00    -0.044 A 
ATOM      2  C   UNL     1      -2.245  -0.196   1.062  0.00  0.00    +0.006 A 
ATOM      3  C   UNL     1      -3.555  -0.645   1.127  0.00  0.00    +0.024 A 
ATOM      4  C   UNL     1      -4.007  -1.452   0.082  0.00  0.00    +0.038 A 
ATOM      5  C   UNL     1      -3.150  -1.780  -0.977  0.00  0.00    -0.006 A 
ATOM      6  C   UNL     1      -1.851  -1.325  -1.038  0.00  0.00    +0.010 A 
ATOM      7  C   UNL     1      -3.945  -2.641  -1.904  0.00  0.00    +0.112 C 
ATOM      8  C   UNL     1      -3.318  -4.027  -2.051  0.00  0.00    +0.121 C 
ATOM      9  C   UNL     1      -2.201  -4.020  -3.056  0.00  0.00    +0.191 C 
ATOM     10  N   UNL     1      -2.177  -3.247  -4.099  0.00  0.00    -0.197 NA
ATOM     11  C   UNL     1      -3.184  -2.348  -4.291  0.00  0.00    +0.164 A 
ATOM     12  C   UNL     1      -4.065  -2.018  -3.267  0.00  0.00    +0.036 A 
ATOM     13  C   UNL     1      -4.962  -1.090  -3.762  0.00  0.00    +0.142 A 
ATOM     14  N   UNL     1      -4.657  -0.843  -5.015  0.00  0.00    -0.173 NA
ATOM     15  N   UNL     1      -3.538  -1.613  -5.370  0.00  0.00    -0.214 N 
ATOM     16  C   UNL     1      -5.305  -2.748  -1.250  0.00  0.00    +0.233 C 
ATOM     17  O   UNL     1      -6.263  -3.361  -1.672  0.00  0.00    -0.274 OA
ATOM     18  N   UNL     1      -5.249  -2.031  -0.107  0.00  0.00    -0.284 N 
ATOM     19  H   UNL     1      -5.992  -1.934   0.508  0.00  0.00    +0.155 HD
ENDROOT
BRANCH  15  20
ATOM     20  C   UNL     1      -2.901  -1.620  -6.619  0.00  0.00    +0.068 A 
ATOM     21  C   UNL     1      -1.524  -1.786  -6.696  0.00  0.00    +0.029 A 
ATOM     22  C   UNL     1      -0.899  -1.791  -7.928  0.00  0.00    +0.017 A 
ATOM     23  C   UNL     1      -1.644  -1.632  -9.083  0.00  0.00    +0.018 A 
ATOM     24  C   UNL     1      -3.015  -1.466  -9.009  0.00  0.00    +0.017 A 
ATOM     25  C   UNL     1      -3.646  -1.466  -7.780  0.00  0.00    +0.029 A 
ATOM     26 BR   UNL     1      -0.784  -1.640 -10.768  0.00  0.00    -0.050 Br
ENDBRANCH  15  20
BRANCH   1  28
ATOM     27  C   UNL     1      -0.019   1.526   0.010  0.00  0.00    +0.012 C 
ATOM     28  C   UNL     1       0.002  -0.004   0.002  0.00  0.00    +0.013 C 
ATOM     29  C   UNL     1       0.742  -0.511   1.242  0.00  0.00    +0.012 C 
ENDBRANCH   1  28
BRANCH   9  30
ATOM     30  O   UNL     1      -1.166  -4.864  -2.863  0.00  0.00    -0.495 OA
ATOM     31  H   UNL     1      -0.482  -4.809  -3.545  0.00  0.00    +0.293 HD
ENDBRANCH   9  30
TORSDOF 3
