REMARK  Name = ZINC13051419
REMARK  10 active torsions:
REMARK  status: ('A' for Active; 'I' for Inactive)
REMARK    1  A    between atoms: C_1  and  C_2
REMARK    2  A    between atoms: C_2  and  C_4
REMARK    3  A    between atoms: C_2  and  O_33
REMARK    4  A    between atoms: C_4  and  N_5
REMARK    5  A    between atoms: C_11  and  C_31
REMARK    6  A    between atoms: C_15  and  S_16
REMARK    7  A    between atoms: S_16  and  C_17
REMARK    8  A    between atoms: C_17  and  C_19
REMARK    9  A    between atoms: C_17  and  C_20
REMARK   10  A    between atoms: N_22  and  C_23
REMARK                            x       y       z     vdW  Elec       q    Type
REMARK                         _______ _______ _______ _____ _____    ______ ____
ROOT
ATOM      1  N   UNL     1       1.327   1.537   2.448  0.00  0.00    -0.285 N 
ATOM      2  C   UNL     1       0.404   0.715   2.998  0.00  0.00    +0.262 A 
ATOM      3  O   UNL     1       0.161  -0.375   2.514  0.00  0.00    -0.267 OA
ATOM      4  C   UNL     1      -0.297   1.188   4.203  0.00  0.00    +0.065 A 
ATOM      5  C   UNL     1      -1.264   0.411   4.840  0.00  0.00    +0.016 A 
ATOM      6  C   UNL     1      -1.891   0.885   5.956  0.00  0.00    +0.016 A 
ATOM      7  C   UNL     1      -1.572   2.148   6.471  0.00  0.00    +0.065 A 
ATOM      8  C   UNL     1      -0.612   2.939   5.852  0.00  0.00    +0.043 A 
ATOM      9  C   UNL     1       0.036   2.465   4.709  0.00  0.00    +0.080 A 
ATOM     10  N   UNL     1       0.979   3.201   4.074  0.00  0.00    -0.223 NA
ATOM     11  C   UNL     1       1.592   2.755   3.005  0.00  0.00    +0.173 A 
ENDROOT
BRANCH   7  12
ATOM     12  C   UNL     1      -2.263   2.644   7.681  0.00  0.00    +0.387 C 
ATOM     13  O   UNL     1      -1.991   3.738   8.131  0.00  0.00    -0.241 OA
ATOM     14  O   UNL     1      -3.195   1.881   8.285  0.00  0.00    -0.241 OA
ENDBRANCH   7  12
BRANCH   1  15
ATOM     15  C   UNL     1       2.053   1.114   1.248  0.00  0.00    +0.158 C 
BRANCH  15  17
ATOM     16  C   UNL     1       2.042   1.118  -1.251  0.00  0.00    +0.039 C 
ATOM     17  C   UNL     1       1.284   1.560   0.002  0.00  0.00    +0.131 C 
BRANCH  17  18
ATOM     18  O   UNL     1      -0.016   0.967   0.007  0.00  0.00    -0.390 OA
ATOM     19  H   UNL     1      -0.007  -0.000   0.005  0.00  0.00    +0.210 HD
ENDBRANCH  17  18
ENDBRANCH  15  17
ENDBRANCH   1  15
BRANCH  11  20
ATOM     20  S   UNL     1       2.810   3.778   2.248  0.00  0.00    -0.075 S 
BRANCH  20  21
ATOM     21  C   UNL     1       2.752   5.209   3.355  0.00  0.00    +0.137 C 
ATOM     22  C   UNL     1       1.382   5.880   3.250  0.00  0.00    +0.029 C 
BRANCH  21  23
ATOM     23  C   UNL     1       3.825   6.191   2.963  0.00  0.00    +0.230 C 
ATOM     24  O   UNL     1       4.244   6.210   1.825  0.00  0.00    -0.274 OA
ATOM     25  N   UNL     1       4.319   7.050   3.877  0.00  0.00    -0.285 N 
ATOM     26  H   UNL     1       3.938   7.081   4.769  0.00  0.00    +0.155 HD
BRANCH  25  27
ATOM     27  C   UNL     1       5.382   7.896   3.540  0.00  0.00    +0.036 A 
ATOM     28  C   UNL     1       6.341   8.219   4.490  0.00  0.00    +0.043 A 
ATOM     29  C   UNL     1       7.393   9.051   4.153  0.00  0.00    +0.044 A 
ATOM     30  C   UNL     1       7.484   9.569   2.873  0.00  0.00    +0.040 A 
ATOM     31  C   UNL     1       6.526   9.253   1.926  0.00  0.00    +0.044 A 
ATOM     32  C   UNL     1       5.475   8.417   2.257  0.00  0.00    +0.043 A 
ATOM     33 CL   UNL     1       6.643   9.905   0.322  0.00  0.00    -0.083 Cl
ATOM     34 CL   UNL     1       8.597   9.451   5.338  0.00  0.00    -0.083 Cl
ENDBRANCH  25  27
ENDBRANCH  21  23
ENDBRANCH  20  21
ENDBRANCH  11  20
TORSDOF 8
