REMARK  Name = ZINC64006406
REMARK  6 active torsions:
REMARK  status: ('A' for Active; 'I' for Inactive)
REMARK    1  A    between atoms: C_4  and  C_7
REMARK    2  A    between atoms: C_7  and  C_8
REMARK    3  A    between atoms: C_8  and  C_9
REMARK    4  A    between atoms: C_9  and  C_10
REMARK    5  A    between atoms: C_10  and  C_11
REMARK    6  A    between atoms: C_26  and  C_28
REMARK                            x       y       z     vdW  Elec       q    Type
REMARK                         _______ _______ _______ _____ _____    ______ ____
ROOT
ATOM      1  C   UNL     1       7.235  -2.583   3.016  0.00  0.00    +0.216 C 
ATOM      2  O   UNL     1       7.621  -2.887   1.907  0.00  0.00    -0.276 OA
ATOM      3  N   UNL     1       7.935  -2.967   4.102  0.00  0.00    -0.290 N 
ATOM      4  C   UNL     1       7.458  -2.601   5.440  0.00  0.00    +0.113 C 
ATOM      5  C   UNL     1       8.550  -1.800   6.172  0.00  0.00    +0.052 C 
ATOM      6  C   UNL     1       9.849  -2.536   5.948  0.00  0.00    -0.035 C 
ATOM      7  C   UNL     1      10.774  -2.962   6.799  0.00  0.00    -0.001 A 
ATOM      8  C   UNL     1      10.928  -2.781   8.251  0.00  0.00    +0.010 A 
ATOM      9  C   UNL     1      12.006  -3.383   8.819  0.00  0.00    +0.001 A 
ATOM     10  C   UNL     1      12.934  -4.139   8.097  0.00  0.00    +0.002 A 
ATOM     11  C   UNL     1      12.876  -4.351   6.758  0.00  0.00    +0.026 A 
ATOM     12  C   UNL     1      11.790  -3.761   6.048  0.00  0.00    +0.043 A 
ATOM     13  N   UNL     1      11.505  -3.781   4.779  0.00  0.00    -0.375 N 
ATOM     14  C   UNL     1      10.318  -2.954   4.560  0.00  0.00    +0.133 C 
ATOM     15  C   UNL     1       9.166  -3.755   3.933  0.00  0.00    +0.151 C 
ATOM     16  H   UNL     1      11.996  -4.262   4.095  0.00  0.00    +0.160 HD
ENDROOT
BRANCH  15  17
ATOM     17  C   UNL     1       9.023  -5.082   4.633  0.00  0.00    +0.064 A 
ATOM     18  C   UNL     1       9.102  -6.252   3.902  0.00  0.00    +0.025 A 
ATOM     19  C   UNL     1       8.969  -7.467   4.556  0.00  0.00    +0.003 A 
ATOM     20  C   UNL     1       8.761  -7.460   5.927  0.00  0.00    +0.020 A 
ATOM     21  C   UNL     1       8.694  -6.250   6.591  0.00  0.00    +0.111 A 
ATOM     22  N   UNL     1       8.830  -5.113   5.937  0.00  0.00    -0.258 NA
ENDBRANCH  15  17
BRANCH   1  23
ATOM     23  C   UNL     1       5.973  -1.776   3.180  0.00  0.00    +0.096 C 
BRANCH  23  24
ATOM     24  C   UNL     1       5.379  -1.474   1.803  0.00  0.00    +0.009 C 
BRANCH  24  25
ATOM     25  C   UNL     1       4.097  -0.654   1.969  0.00  0.00    +0.005 C 
BRANCH  25  26
ATOM     26  C   UNL     1       3.503  -0.352   0.592  0.00  0.00    +0.035 C 
BRANCH  26  30
ATOM     27  C   UNL     1      -0.075   1.935   1.054  0.00  0.00    +0.000 A 
ATOM     28  C   UNL     1       1.143   2.576   0.926  0.00  0.00    +0.000 A 
ATOM     29  C   UNL     1       2.301   1.836   0.777  0.00  0.00    +0.003 A 
ATOM     30  C   UNL     1       2.241   0.455   0.756  0.00  0.00    -0.047 A 
ATOM     31  C   UNL     1       1.022  -0.186   0.885  0.00  0.00    +0.003 A 
ATOM     32  C   UNL     1      -0.135   0.555   1.033  0.00  0.00    +0.000 A 
ENDBRANCH  26  30
ENDBRANCH  25  26
ENDBRANCH  24  25
ENDBRANCH  23  24
ENDBRANCH   1  23
TORSDOF 6
