REMARK  Name = ZINC21226012
REMARK  5 active torsions:
REMARK  status: ('A' for Active; 'I' for Inactive)
REMARK    1  A    between atoms: C_1  and  O_2
REMARK    2  A    between atoms: O_2  and  C_3
REMARK    3  A    between atoms: C_5  and  C_10
REMARK    4  A    between atoms: C_8  and  O_9
REMARK    5  A    between atoms: C_15  and  C_20
REMARK                            x       y       z     vdW  Elec       q    Type
REMARK                         _______ _______ _______ _____ _____    ______ ____
ROOT
ATOM      1  C   UNL     1      -3.871  -4.295   0.088  0.00  0.00    +0.136 C 
ATOM      2  C   UNL     1      -2.674  -3.376   0.132  0.00  0.00    +0.036 C 
ATOM      3  C   UNL     1      -2.086  -2.796  -0.928  0.00  0.00    +0.017 C 
ATOM      4  C   UNL     1      -0.881  -1.889  -0.741  0.00  0.00    +0.060 C 
ATOM      5  C   UNL     1      -0.978  -1.162   0.599  0.00  0.00    +0.039 C 
ATOM      6  C   UNL     1      -1.024  -2.225   1.704  0.00  0.00    +0.088 C 
ATOM      7  C   UNL     1      -2.181  -3.140   1.437  0.00  0.00    +0.163 C 
ATOM      8  O   UNL     1      -2.715  -3.699   2.375  0.00  0.00    -0.292 OA
ATOM      9  N   UNL     1      -2.481  -2.959  -2.217  0.00  0.00    -0.316 N 
ATOM     10  C   UNL     1      -3.795  -2.883  -2.662  0.00  0.00    +0.052 A 
ATOM     11  C   UNL     1      -4.213  -1.931  -3.575  0.00  0.00    +0.025 A 
ATOM     12  C   UNL     1      -5.507  -1.982  -4.065  0.00  0.00    +0.002 A 
ATOM     13  C   UNL     1      -6.373  -2.974  -3.644  0.00  0.00    +0.002 A 
ATOM     14  C   UNL     1      -5.964  -3.914  -2.714  0.00  0.00    +0.025 A 
ATOM     15  C   UNL     1      -4.675  -3.855  -2.209  0.00  0.00    +0.049 A 
ATOM     16  N   UNL     1      -4.231  -4.751  -1.238  0.00  0.00    -0.331 N 
ATOM     17  H   UNL     1      -1.735  -3.168  -2.998  0.00  0.00    +0.152 HD
ATOM     18  H   UNL     1      -4.156  -5.818  -1.492  0.00  0.00    +0.147 HD
ENDROOT
BRANCH   1  21
ATOM     19  C   UNL     1      -6.727  -3.376   2.384  0.00  0.00    +0.162 A 
ATOM     20  C   UNL     1      -5.642  -4.042   1.838  0.00  0.00    +0.055 A 
ATOM     21  C   UNL     1      -5.052  -3.570   0.681  0.00  0.00    -0.019 A 
ATOM     22  C   UNL     1      -5.539  -2.430   0.068  0.00  0.00    +0.009 A 
ATOM     23  C   UNL     1      -6.625  -1.764   0.605  0.00  0.00    +0.049 A 
ATOM     24  C   UNL     1      -7.221  -2.232   1.765  0.00  0.00    +0.158 A 
BRANCH  19  26
ATOM     25  C   UNL     1      -6.748  -5.019   4.104  0.00  0.00    +0.277 C 
ATOM     26  O   UNL     1      -7.308  -3.839   3.523  0.00  0.00    -0.491 OA
ENDBRANCH  19  26
BRANCH  24  27
ATOM     27  O   UNL     1      -8.286  -1.575   2.297  0.00  0.00    -0.503 OA
ATOM     28  H   UNL     1      -8.676  -0.671   1.806  0.00  0.00    +0.292 HD
ENDBRANCH  24  27
ENDBRANCH   1  21
BRANCH   5  29
ATOM     29  C   UNL     1       0.228  -0.279   0.789  0.00  0.00    -0.006 A 
ATOM     30  C   UNL     1       0.284   1.064   0.959  0.00  0.00    +0.011 A 
ATOM     31  C   UNL     1       1.517   1.669   1.118  0.00  0.00    +0.008 A 
ATOM     32  C   UNL     1       2.633   0.901   1.099  0.00  0.00    +0.045 A 
ATOM     33  S   UNL     1       1.954  -0.731   0.851  0.00  0.00    -0.101 S 
ENDBRANCH   5  29
TORSDOF 4
