REMARK  Name = ZINC56490837
REMARK  6 active torsions:
REMARK  status: ('A' for Active; 'I' for Inactive)
REMARK    1  A    between atoms: C_3  and  C_8
REMARK    2  A    between atoms: C_8  and  C_9
REMARK    3  A    between atoms: C_9  and  N_10
REMARK    4  A    between atoms: N_13  and  C_14
REMARK    5  A    between atoms: C_14  and  C_16
REMARK    6  A    between atoms: C_14  and  C_26
REMARK                            x       y       z     vdW  Elec       q    Type
REMARK                         _______ _______ _______ _____ _____    ______ ____
ROOT
ATOM      1  N   UNL     1       5.380   3.191   1.411  0.00  0.00    -0.299 N 
ATOM      2  C   UNL     1       5.970   3.531   2.574  0.00  0.00    +0.300 C 
ATOM      3  O   UNL     1       5.458   3.213   3.630  0.00  0.00    -0.253 OA
ATOM      4  N   UNL     1       7.127   4.222   2.567  0.00  0.00    -0.292 N 
ATOM      5  H   UNL     1       5.789   3.445   0.568  0.00  0.00    +0.150 HD
ATOM      6  H   UNL     1       7.535   4.476   1.724  0.00  0.00    +0.151 HD
ENDROOT
BRANCH   1   7
ATOM      7  C   UNL     1       4.123   2.440   1.418  0.00  0.00    +0.110 C 
BRANCH   7   8
ATOM      8  C   UNL     1       3.672   2.186  -0.021  0.00  0.00    +0.054 C 
BRANCH   8  11
ATOM      9  C   UNL     1      -0.017   1.377   0.010  0.00  0.00    +0.003 A 
ATOM     10  C   UNL     1       1.171   2.086   0.002  0.00  0.00    +0.004 A 
ATOM     11  C   UNL     1       2.378   1.413  -0.013  0.00  0.00    -0.043 A 
ATOM     12  C   UNL     1       2.399   0.030  -0.021  0.00  0.00    +0.042 A 
ATOM     13  C   UNL     1       1.211  -0.679  -0.013  0.00  0.00    +0.124 A 
ATOM     14  C   UNL     1       0.002  -0.004   0.002  0.00  0.00    +0.038 A 
ATOM     15  F   UNL     1       1.230  -2.030  -0.022  0.00  0.00    -0.205 F 
ENDBRANCH   8  11
ENDBRANCH   7   8
ENDBRANCH   1   7
BRANCH   4  16
ATOM     16  C   UNL     1       7.768   4.591   3.831  0.00  0.00    +0.108 C 
BRANCH  16  17
ATOM     17  C   UNL     1       9.246   4.778   3.609  0.00  0.00    -0.023 A 
ATOM     18  C   UNL     1       9.698   5.408   2.465  0.00  0.00    +0.009 A 
ATOM     19  C   UNL     1      11.054   5.580   2.257  0.00  0.00    +0.050 A 
ATOM     20  C   UNL     1      11.964   5.121   3.197  0.00  0.00    +0.162 A 
ATOM     21  C   UNL     1      11.510   4.490   4.349  0.00  0.00    +0.162 A 
ATOM     22  C   UNL     1      10.148   4.324   4.553  0.00  0.00    +0.055 A 
ATOM     23  O   UNL     1      12.386   4.039   5.288  0.00  0.00    -0.485 OA
ATOM     24  C   UNL     1      13.751   3.894   4.878  0.00  0.00    +0.270 C 
ATOM     25  C   UNL     1      14.159   5.160   4.111  0.00  0.00    +0.270 C 
ATOM     26  O   UNL     1      13.296   5.294   2.977  0.00  0.00    -0.485 OA
ENDBRANCH  16  17
BRANCH  16  27
ATOM     27  C   UNL     1       7.161   5.897   4.349  0.00  0.00    +0.014 C 
ATOM     28  C   UNL     1       6.660   5.919   5.794  0.00  0.00    +0.006 C 
ATOM     29  C   UNL     1       5.658   5.912   4.637  0.00  0.00    +0.006 C 
ENDBRANCH  16  27
ENDBRANCH   4  16
TORSDOF 6
