REMARK  Name = ZINC03112701
REMARK  12 active torsions:
REMARK  status: ('A' for Active; 'I' for Inactive)
REMARK    1  A    between atoms: C_1  and  C_2
REMARK    2  A    between atoms: C_5  and  S_8
REMARK    3  A    between atoms: S_8  and  N_11
REMARK    4  A    between atoms: N_11  and  C_12
REMARK    5  A    between atoms: C_12  and  C_14
REMARK    6  A    between atoms: C_12  and  C_21
REMARK    7  A    between atoms: C_14  and  C_15
REMARK    8  A    between atoms: N_23  and  N_24
REMARK    9  A    between atoms: C_25  and  C_26
REMARK   10  A    between atoms: C_29  and  O_32
REMARK   11  A    between atoms: O_32  and  C_33
REMARK   12  A    between atoms: C_33  and  C_34
REMARK                            x       y       z     vdW  Elec       q    Type
REMARK                         _______ _______ _______ _____ _____    ______ ____
ROOT
ATOM      1  C   UNL     1      -3.011   4.124  -1.392  0.00  0.00    +0.168 C 
ENDROOT
BRANCH   1   2
ATOM      2  C   UNL     1      -4.382   4.749  -1.378  0.00  0.00    +0.251 C 
ATOM      3  O   UNL     1      -4.555   5.845  -1.870  0.00  0.00    -0.272 OA
ATOM      4  N   UNL     1      -5.417   4.092  -0.818  0.00  0.00    -0.206 N 
ATOM      5  H   UNL     1      -5.279   3.216  -0.424  0.00  0.00    +0.177 HD
BRANCH   4   6
ATOM      6  N   UNL     1      -6.692   4.673  -0.805  0.00  0.00    -0.188 NA
ATOM      7  C   UNL     1      -7.688   4.040  -0.267  0.00  0.00    +0.138 C 
BRANCH   7   8
ATOM      8  C   UNL     1      -9.030   4.651  -0.253  0.00  0.00    -0.005 A 
ATOM      9  C   UNL     1      -9.229   5.915  -0.815  0.00  0.00    +0.013 A 
ATOM     10  C   UNL     1     -10.486   6.481  -0.804  0.00  0.00    +0.046 A 
ATOM     11  C   UNL     1     -11.551   5.801  -0.227  0.00  0.00    +0.121 A 
ATOM     12  C   UNL     1     -11.356   4.547   0.337  0.00  0.00    +0.046 A 
ATOM     13  C   UNL     1     -10.104   3.971   0.327  0.00  0.00    +0.013 A 
BRANCH  11  14
ATOM     14  O   UNL     1     -12.787   6.365  -0.214  0.00  0.00    -0.487 OA
BRANCH  14  15
ATOM     15  C   UNL     1     -12.917   7.657  -0.811  0.00  0.00    +0.264 C 
BRANCH  15  16
ATOM     16  C   UNL     1     -14.347   8.118  -0.703  0.00  0.00    -0.010 A 
ATOM     17  C   UNL     1     -15.247   7.823  -1.710  0.00  0.00    +0.007 A 
ATOM     18  C   UNL     1     -16.561   8.242  -1.608  0.00  0.00    +0.000 A 
ATOM     19  C   UNL     1     -16.972   8.965  -0.504  0.00  0.00    +0.000 A 
ATOM     20  C   UNL     1     -16.071   9.266   0.500  0.00  0.00    +0.000 A 
ATOM     21  C   UNL     1     -14.758   8.842   0.401  0.00  0.00    +0.007 A 
ENDBRANCH  15  16
ENDBRANCH  14  15
ENDBRANCH  11  14
ENDBRANCH   7   8
ENDBRANCH   4   6
ENDBRANCH   1   2
BRANCH   1  22
ATOM     22  N   UNL     1      -2.068   5.031  -2.051  0.00  0.00    -0.178 NA
ATOM     23  H   UNL     1      -2.165   5.990  -1.948  0.00  0.00    +0.149 HD
BRANCH  22  24
ATOM     24  S   UNL     1      -0.836   4.417  -2.972  0.00  0.00    +0.059 S 
ATOM     25  O   UNL     1      -0.122   5.531  -3.490  0.00  0.00    -0.153 OA
ATOM     26  O   UNL     1      -0.210   3.407  -2.193  0.00  0.00    -0.153 OA
BRANCH  24  31
ATOM     27  C   UNL     1      -3.357   1.636  -7.697  0.00  0.00    +0.044 C 
ATOM     28  C   UNL     1      -2.727   2.331  -6.517  0.00  0.00    -0.050 A 
ATOM     29  C   UNL     1      -2.397   3.670  -6.599  0.00  0.00    +0.005 A 
ATOM     30  C   UNL     1      -1.819   4.308  -5.517  0.00  0.00    +0.029 A 
ATOM     31  C   UNL     1      -1.572   3.605  -4.352  0.00  0.00    +0.105 A 
ATOM     32  C   UNL     1      -1.898   2.264  -4.271  0.00  0.00    +0.029 A 
ATOM     33  C   UNL     1      -2.480   1.628  -5.352  0.00  0.00    +0.005 A 
ENDBRANCH  24  31
ENDBRANCH  22  24
ENDBRANCH   1  22
BRANCH   1  34
ATOM     34  C   UNL     1      -2.553   3.869   0.045  0.00  0.00    +0.065 C 
BRANCH  34  35
ATOM     35  C   UNL     1      -1.238   3.133   0.030  0.00  0.00    -0.045 A 
ATOM     36  C   UNL     1      -1.219   1.751   0.017  0.00  0.00    +0.004 A 
ATOM     37  C   UNL     1      -0.013   1.076   0.008  0.00  0.00    +0.000 A 
ATOM     38  C   UNL     1       1.175   1.783   0.000  0.00  0.00    +0.000 A 
ATOM     39  C   UNL     1       1.156   3.165   0.008  0.00  0.00    +0.000 A 
ATOM     40  C   UNL     1      -0.050   3.840   0.022  0.00  0.00    +0.004 A 
ENDBRANCH  34  35
ENDBRANCH   1  34
TORSDOF 11
