REMARK  Name = ZINC19837937
REMARK  12 active torsions:
REMARK  status: ('A' for Active; 'I' for Inactive)
REMARK    1  A    between atoms: C_1  and  C_2
REMARK    2  A    between atoms: C_3  and  C_7
REMARK    3  A    between atoms: C_7  and  N_8
REMARK    4  A    between atoms: N_8  and  C_9
REMARK    5  A    between atoms: C_10  and  C_12
REMARK    6  A    between atoms: C_13  and  O_35
REMARK    7  A    between atoms: N_21  and  C_24
REMARK    8  A    between atoms: C_24  and  C_25
REMARK    9  A    between atoms: C_30  and  O_31
REMARK   10  A    between atoms: O_31  and  C_32
REMARK   11  A    between atoms: C_32  and  C_33
REMARK   12  A    between atoms: O_35  and  C_36
REMARK                            x       y       z     vdW  Elec       q    Type
REMARK                         _______ _______ _______ _____ _____    ______ ____
ROOT
ATOM      1  C   UNL     1      -0.932  -2.159  -0.485  0.00  0.00    +0.098 A 
ATOM      2  C   UNL     1       0.185  -2.796   0.214  0.00  0.00    +0.139 A 
ATOM      3  C   UNL     1       0.225  -4.176   0.240  0.00  0.00    +0.116 A 
ATOM      4  C   UNL     1      -0.798  -4.894  -0.380  0.00  0.00    +0.255 A 
ATOM      5  O   UNL     1      -0.756  -6.114  -0.364  0.00  0.00    -0.268 OA
ATOM      6  N   UNL     1      -1.836  -4.283  -0.998  0.00  0.00    -0.310 N 
ATOM      7  C   UNL     1      -1.907  -2.949  -1.078  0.00  0.00    +0.039 A 
ATOM      8  C   UNL     1      -2.997  -2.226  -1.830  0.00  0.00    +0.070 C 
ATOM      9  C   UNL     1      -4.299  -3.025  -1.824  0.00  0.00    +0.091 C 
ATOM     10  N   UNL     1      -4.319  -3.885  -3.015  0.00  0.00    -0.296 NA
ATOM     11  C   UNL     1      -3.180  -4.810  -3.004  0.00  0.00    +0.106 C 
ATOM     12  C   UNL     1      -2.874  -5.162  -1.547  0.00  0.00    +0.140 C 
ENDROOT
BRANCH   1  15
ATOM     13  N   UNL     1      -1.800  -0.023   0.323  0.00  0.00    -0.294 N 
ATOM     14  C   UNL     1      -2.631  -0.761   1.276  0.00  0.00    +0.132 C 
ATOM     15  C   UNL     1      -1.024  -0.691  -0.554  0.00  0.00    +0.252 C 
ATOM     16  O   UNL     1      -0.400  -0.081  -1.401  0.00  0.00    -0.270 OA
BRANCH  13  17
ATOM     17  C   UNL     1      -1.812   1.442   0.322  0.00  0.00    +0.168 C 
BRANCH  17  20
ATOM     18  C   UNL     1      -4.803   2.025   1.120  0.00  0.00    +0.071 C 
ATOM     19  C   UNL     1      -4.221   2.196  -0.259  0.00  0.00    +0.106 A 
ATOM     20  C   UNL     1      -2.883   1.935  -0.616  0.00  0.00    +0.124 A 
ATOM     21  N   UNL     1      -2.715   2.192  -1.879  0.00  0.00    -0.052 NA
ATOM     22  O   UNL     1      -3.964   2.627  -2.393  0.00  0.00    -0.242 OA
ATOM     23  N   UNL     1      -4.874   2.607  -1.305  0.00  0.00    -0.054 NA
ENDBRANCH  17  20
ENDBRANCH  13  17
ENDBRANCH   1  15
BRANCH   2  24
ATOM     24  O   UNL     1       1.146  -2.057   0.814  0.00  0.00    -0.494 OA
ATOM     25  C   UNL     1       2.132  -2.765   1.569  0.00  0.00    +0.277 C 
ENDBRANCH   2  24
BRANCH  10  26
ATOM     26  C   UNL     1      -4.334  -3.082  -4.245  0.00  0.00    +0.123 C 
BRANCH  26  27
ATOM     27  C   UNL     1      -4.589  -3.980  -5.428  0.00  0.00    +0.008 A 
ATOM     28  C   UNL     1      -3.536  -4.395  -6.221  0.00  0.00    +0.008 A 
ATOM     29  C   UNL     1      -3.769  -5.218  -7.307  0.00  0.00    +0.001 A 
ATOM     30  C   UNL     1      -5.056  -5.629  -7.602  0.00  0.00    +0.004 A 
ATOM     31  C   UNL     1      -6.112  -5.217  -6.812  0.00  0.00    +0.046 A 
ATOM     32  C   UNL     1      -5.880  -4.394  -5.719  0.00  0.00    +0.125 A 
BRANCH  32  33
ATOM     33  O   UNL     1      -6.917  -3.992  -4.938  0.00  0.00    -0.488 OA
BRANCH  33  34
ATOM     34  C   UNL     1      -8.219  -4.458  -5.297  0.00  0.00    +0.256 C 
BRANCH  34  35
ATOM     35  C   UNL     1      -9.233  -3.914  -4.324  0.00  0.00    +0.006 C 
ATOM     36  C   UNL     1     -10.360  -3.413  -4.765  0.00  0.00    +0.007 C 
ENDBRANCH  34  35
ENDBRANCH  33  34
ENDBRANCH  32  33
ENDBRANCH  26  27
ENDBRANCH  10  26
TORSDOF 9
