REMARK  Name = ZINC18265381
REMARK  9 active torsions:
REMARK  status: ('A' for Active; 'I' for Inactive)
REMARK    1  A    between atoms: C_1  and  C_2
REMARK    2  A    between atoms: C_2  and  C_4
REMARK    3  A    between atoms: C_2  and  N_27
REMARK    4  A    between atoms: C_7  and  C_10
REMARK    5  A    between atoms: C_10  and  C_12
REMARK    6  A    between atoms: C_12  and  N_13
REMARK    7  A    between atoms: N_19  and  C_26
REMARK    8  A    between atoms: N_22  and  C_25
REMARK    9  A    between atoms: C_28  and  C_30
REMARK                            x       y       z     vdW  Elec       q    Type
REMARK                         _______ _______ _______ _____ _____    ______ ____
ROOT
ATOM      1  C   UNL     1      -2.515   3.870   0.044  0.00  0.00    +0.183 C 
ATOM      2  O   UNL     1      -2.526   5.082   0.050  0.00  0.00    -0.290 OA
ENDROOT
BRANCH   1   6
ATOM      3  C   UNL     1       1.178   1.782   0.000  0.00  0.00    -0.027 A 
ATOM      4  C   UNL     1      -0.013   1.076   0.008  0.00  0.00    +0.006 A 
ATOM      5  C   UNL     1      -1.217   1.747   0.017  0.00  0.00    +0.012 A 
ATOM      6  C   UNL     1      -1.234   3.146   0.029  0.00  0.00    +0.019 A 
ATOM      7  C   UNL     1      -0.027   3.852   0.022  0.00  0.00    +0.012 A 
ATOM      8  C   UNL     1       1.169   3.166   0.008  0.00  0.00    +0.006 A 
BRANCH   3  10
ATOM      9  C   UNL     1       3.043   1.015  -1.442  0.00  0.00    +0.033 C 
ATOM     10  C   UNL     1       2.489   1.041  -0.016  0.00  0.00    +0.100 C 
BRANCH  10  11
ATOM     11  N   UNL     1       3.443   1.717   0.867  0.00  0.00    -0.309 N 
ATOM     12  C   UNL     1       4.463   1.025   1.413  0.00  0.00    +0.210 C 
ATOM     13  O   UNL     1       4.590  -0.157   1.175  0.00  0.00    -0.276 OA
ATOM     14  C   UNL     1       5.444   1.721   2.321  0.00  0.00    +0.109 C 
ATOM     15  H   UNL     1       3.341   2.663   1.058  0.00  0.00    +0.149 HD
ENDBRANCH  10  11
ENDBRANCH   3  10
ENDBRANCH   1   6
BRANCH   1  16
ATOM     16  C   UNL     1      -3.813   3.104   0.052  0.00  0.00    +0.204 C 
BRANCH  16  17
ATOM     17  N   UNL     1      -4.935   4.046   0.066  0.00  0.00    -0.301 N 
ATOM     18  C   UNL     1      -5.559   4.566   1.185  0.00  0.00    +0.153 A 
ATOM     19  C   UNL     1      -6.558   5.410   0.717  0.00  0.00    +0.169 A 
ATOM     20  N   UNL     1      -6.516   5.372  -0.618  0.00  0.00    -0.199 NA
ATOM     21  C   UNL     1      -5.559   4.567  -1.010  0.00  0.00    +0.206 A 
ATOM     22 CL   UNL     1      -5.157   4.224  -2.663  0.00  0.00    -0.043 Cl
ATOM     23  N   UNL     1      -7.351   6.080   1.633  0.00  0.00    -0.280 N 
ATOM     24  C   UNL     1      -7.156   5.901   2.954  0.00  0.00    +0.333 A 
ATOM     25  O   UNL     1      -7.865   6.494   3.744  0.00  0.00    -0.246 OA
ATOM     26  N   UNL     1      -6.192   5.088   3.420  0.00  0.00    -0.262 N 
ATOM     27  C   UNL     1      -5.384   4.413   2.576  0.00  0.00    +0.282 A 
ATOM     28  O   UNL     1      -4.513   3.680   3.011  0.00  0.00    -0.265 OA
ATOM     29  C   UNL     1      -6.015   4.934   4.866  0.00  0.00    +0.157 C 
ATOM     30  C   UNL     1      -8.415   6.972   1.166  0.00  0.00    +0.155 C 
ENDBRANCH  16  17
ENDBRANCH   1  16
TORSDOF 5
