REMARK  Name = ZINC20294015
REMARK  3 active torsions:
REMARK  status: ('A' for Active; 'I' for Inactive)
REMARK    1  A    between atoms: C_4  and  N_18
REMARK    2  A    between atoms: C_6  and  C_7
REMARK    3  A    between atoms: C_13  and  C_15
REMARK                            x       y       z     vdW  Elec       q    Type
REMARK                         _______ _______ _______ _____ _____    ______ ____
ROOT
ATOM      1  C   UNL     1       1.512   4.120   0.837  0.00  0.00    +0.247 C 
ATOM      2  O   UNL     1       2.365   4.986   0.850  0.00  0.00    -0.270 OA
ATOM      3  N   UNL     1       0.269   4.406   0.400  0.00  0.00    -0.286 N 
ATOM      4  C   UNL     1      -0.881   3.491   0.429  0.00  0.00    +0.109 C 
ATOM      5  C   UNL     1      -2.078   4.239  -0.194  0.00  0.00    +0.021 C 
ATOM      6  C   UNL     1      -1.394   5.334  -1.055  0.00  0.00    +0.033 C 
ATOM      7  C   UNL     1      -0.164   5.691  -0.180  0.00  0.00    +0.162 C 
ENDROOT
BRANCH   1  13
ATOM      8  C   UNL     1       0.933   2.054   2.100  0.00  0.00    +0.014 A 
ATOM      9  C   UNL     1       1.238   0.779   2.531  0.00  0.00    +0.022 A 
ATOM     10  C   UNL     1       2.438   0.191   2.171  0.00  0.00    +0.062 A 
ATOM     11  C   UNL     1       3.345   0.882   1.374  0.00  0.00    +0.044 A 
ATOM     12  C   UNL     1       3.047   2.163   0.937  0.00  0.00    +0.037 A 
ATOM     13  C   UNL     1       1.837   2.755   1.299  0.00  0.00    +0.039 A 
ATOM     14 CL   UNL     1       2.813  -1.414   2.718  0.00  0.00    -0.082 Cl
BRANCH  11  15
ATOM     15  N   UNL     1       4.556   0.285   1.014  0.00  0.00    -0.357 N 
ATOM     16  H   UNL     1       5.273   0.831   0.384  0.00  0.00    +0.142 HD
ATOM     17  H   UNL     1       4.793  -0.732   1.361  0.00  0.00    +0.142 HD
ENDBRANCH  11  15
ENDBRANCH   1  13
BRANCH   7  18
ATOM     18  C   UNL     1       0.933   6.277  -1.032  0.00  0.00    +0.231 C 
ATOM     19  O   UNL     1       1.723   5.547  -1.591  0.00  0.00    -0.274 OA
ATOM     20  N   UNL     1       1.035   7.614  -1.171  0.00  0.00    -0.328 N 
ATOM     21  H   UNL     1       1.835   8.042  -1.793  0.00  0.00    +0.145 HD
ATOM     22  H   UNL     1       0.318   8.277  -0.664  0.00  0.00    +0.145 HD
ENDBRANCH   7  18
TORSDOF 3
