REMARK  Name = ZINC08734753
REMARK  7 active torsions:
REMARK  status: ('A' for Active; 'I' for Inactive)
REMARK    1  A    between atoms: C_1  and  C_2
REMARK    2  A    between atoms: C_15  and  C_17
REMARK    3  A    between atoms: C_17  and  N_57
REMARK    4  A    between atoms: C_18  and  C_20
REMARK    5  A    between atoms: C_18  and  C_21
REMARK    6  A    between atoms: C_18  and  N_57
REMARK    7  A    between atoms: C_24  and  C_27
REMARK                            x       y       z     vdW  Elec       q    Type
REMARK                         _______ _______ _______ _____ _____    ______ ____
ROOT
ATOM      1  C   UNL     1       2.004  -4.027   1.347  0.00  0.00    +0.016 C 
ENDROOT
BRANCH   1  15
ATOM      2  C   UNL     1       3.728  -6.053   5.140  0.00  0.00    +0.029 C 
ATOM      3  C   UNL     1       4.158  -6.175   3.677  0.00  0.00    +0.087 C 
ATOM      4  C   UNL     1       4.485  -7.632   3.368  0.00  0.00    +0.118 C 
ATOM      5  C   UNL     1       4.529  -7.845   1.878  0.00  0.00    +0.219 C 
ATOM      6  O   UNL     1       5.599  -7.958   1.318  0.00  0.00    -0.275 OA
ATOM      7  N   UNL     1       3.386  -7.912   1.162  0.00  0.00    -0.284 N 
ATOM      8  C   UNL     1       2.149  -7.688   1.777  0.00  0.00    +0.055 A 
ATOM      9  C   UNL     1       1.087  -8.552   1.570  0.00  0.00    +0.025 A 
ATOM     10  C   UNL     1      -0.142  -8.282   2.144  0.00  0.00    +0.002 A 
ATOM     11  C   UNL     1      -0.313  -7.152   2.924  0.00  0.00    +0.002 A 
ATOM     12  C   UNL     1       0.746  -6.290   3.144  0.00  0.00    +0.025 A 
ATOM     13  C   UNL     1       1.982  -6.559   2.580  0.00  0.00    +0.058 A 
ATOM     14  N   UNL     1       3.073  -5.710   2.810  0.00  0.00    -0.268 N 
ATOM     15  C   UNL     1       3.125  -4.489   2.241  0.00  0.00    +0.203 C 
ATOM     16  O   UNL     1       4.074  -3.763   2.448  0.00  0.00    -0.277 OA
ATOM     17  H   UNL     1       3.423  -8.115   0.214  0.00  0.00    +0.155 HD
ENDBRANCH   1  15
BRANCH   1  18
ATOM     18  N   UNL     1       2.305  -2.668   0.857  0.00  0.00    +0.389 N 
ATOM     19  H   UNL     1       3.186  -2.685   0.331  0.00  0.00    -0.084 HD
ATOM     20  H   UNL     1       2.397  -2.032   1.658  0.00  0.00    -0.084 HD
BRANCH  18  21
ATOM     21  C   UNL     1       1.222  -2.189  -0.022  0.00  0.00    -0.043 C 
ATOM     22  C   UNL     1       1.463  -2.688  -1.448  0.00  0.00    -0.009 C 
BRANCH  21  23
ATOM     23  C   UNL     1       1.208  -0.682  -0.014  0.00  0.00    -0.062 A 
ATOM     24  C   UNL     1       0.002  -0.004   0.002  0.00  0.00    +0.002 A 
ATOM     25  C   UNL     1      -0.017   1.376   0.010  0.00  0.00    +0.009 A 
ATOM     26  C   UNL     1       1.182   2.086   0.002  0.00  0.00    -0.018 A 
ATOM     27  C   UNL     1       2.394   1.399  -0.012  0.00  0.00    +0.009 A 
ATOM     28  C   UNL     1       2.401   0.018  -0.021  0.00  0.00    +0.002 A 
BRANCH  26  29
ATOM     29  C   UNL     1       1.168   3.570   0.010  0.00  0.00    -0.018 A 
ATOM     30  C   UNL     1      -0.044   4.258   0.019  0.00  0.00    +0.008 A 
ATOM     31  C   UNL     1      -0.051   5.638   0.031  0.00  0.00    +0.001 A 
ATOM     32  C   UNL     1       1.142   6.339   0.024  0.00  0.00    +0.000 A 
ATOM     33  C   UNL     1       2.348   5.661   0.009  0.00  0.00    +0.001 A 
ATOM     34  C   UNL     1       2.367   4.281   0.002  0.00  0.00    +0.008 A 
ENDBRANCH  26  29
ENDBRANCH  21  23
ENDBRANCH  18  21
ENDBRANCH   1  18
TORSDOF 5
