REMARK  Name = ZINC06933973
REMARK  9 active torsions:
REMARK  status: ('A' for Active; 'I' for Inactive)
REMARK    1  A    between atoms: C_1  and  C_2
REMARK    2  A    between atoms: C_2  and  C_3
REMARK    3  A    between atoms: C_3  and  C_5
REMARK    4  A    between atoms: C_3  and  C_6
REMARK    5  A    between atoms: C_6  and  C_32
REMARK    6  A    between atoms: C_11  and  C_13
REMARK    7  A    between atoms: C_15  and  C_20
REMARK    8  A    between atoms: C_18  and  C_19
REMARK    9  A    between atoms: N_23  and  C_26
REMARK                            x       y       z     vdW  Elec       q    Type
REMARK                         _______ _______ _______ _____ _____    ______ ____
ROOT
ATOM      1  C   UNL     1      -2.164   1.050   1.278  0.00  0.00    +0.051 C 
ATOM      2  C   UNL     1      -2.909   1.532   0.102  0.00  0.00    +0.086 C 
ATOM      3  C   UNL     1      -4.404   1.300   0.545  0.00  0.00    +0.077 C 
ATOM      4  C   UNL     1      -4.328   1.921   1.930  0.00  0.00    -0.026 C 
ATOM      5  C   UNL     1      -5.043   2.017  -0.602  0.00  0.00    +0.225 C 
ATOM      6  O   UNL     1      -6.070   2.661  -0.579  0.00  0.00    -0.275 OA
ATOM      7  N   UNL     1      -4.231   1.799  -1.679  0.00  0.00    -0.239 N 
ATOM      8  C   UNL     1      -2.992   1.328  -1.323  0.00  0.00    +0.225 C 
ATOM      9  O   UNL     1      -2.149   0.846  -2.049  0.00  0.00    -0.275 OA
ATOM     10  N   UNL     1      -2.948   1.640   2.408  0.00  0.00    +0.396 N 
ATOM     11  H   UNL     1      -2.505   2.512   2.718  0.00  0.00    -0.083 HD
ATOM     12  H   UNL     1      -2.981   0.976   3.190  0.00  0.00    -0.083 HD
ENDROOT
BRANCH   4  13
ATOM     13  C   UNL     1      -4.562   3.407   1.848  0.00  0.00    -0.057 A 
ATOM     14  C   UNL     1      -3.489   4.270   1.726  0.00  0.00    +0.005 A 
ATOM     15  C   UNL     1      -3.704   5.633   1.645  0.00  0.00    -0.050 A 
ATOM     16  C   UNL     1      -4.991   6.135   1.697  0.00  0.00    +0.003 A 
ATOM     17  C   UNL     1      -6.064   5.272   1.825  0.00  0.00    +0.004 A 
ATOM     18  C   UNL     1      -5.849   3.908   1.900  0.00  0.00    -0.049 A 
ATOM     19  C   UNL     1      -7.018   2.968   2.040  0.00  0.00    +0.044 C 
ATOM     20  C   UNL     1      -2.534   6.574   1.506  0.00  0.00    +0.044 C 
ENDBRANCH   4  13
BRANCH   7  21
ATOM     21  C   UNL     1      -4.639   2.041  -3.065  0.00  0.00    +0.084 C 
ATOM     22  C   UNL     1      -5.008   3.516  -3.238  0.00  0.00    +0.023 C 
ATOM     23  C   UNL     1      -5.434   3.769  -4.686  0.00  0.00    +0.002 C 
ATOM     24  C   UNL     1      -6.647   2.898  -5.020  0.00  0.00    +0.000 C 
ATOM     25  C   UNL     1      -6.278   1.423  -4.847  0.00  0.00    +0.002 C 
ATOM     26  C   UNL     1      -5.852   1.170  -3.400  0.00  0.00    +0.023 C 
ENDBRANCH   7  21
BRANCH   1  27
ATOM     27  C   UNL     1      -2.177  -0.456   1.345  0.00  0.00    +0.347 C 
ATOM     28  O   UNL     1      -2.277  -1.105   0.330  0.00  0.00    -0.248 OA
ATOM     29  O   UNL     1      -2.077  -1.076   2.531  0.00  0.00    -0.248 OA
ENDBRANCH   1  27
BRANCH   1  30
ATOM     30  C   UNL     1      -0.729   1.579   1.267  0.00  0.00    -0.014 C 
ATOM     31  C   UNL     1      -0.013   1.086   0.008  0.00  0.00    +0.006 C 
BRANCH  30  33
ATOM     32  C   UNL     1       1.405   1.701   2.561  0.00  0.00    +0.004 C 
ATOM     33  C   UNL     1       0.011   1.072   2.506  0.00  0.00    -0.001 C 
ENDBRANCH  30  33
ENDBRANCH   1  30
TORSDOF 5
