REMARK  Name = ZINC63823369
REMARK  4 active torsions:
REMARK  status: ('A' for Active; 'I' for Inactive)
REMARK    1  A    between atoms: C_1  and  C_2
REMARK    2  A    between atoms: C_4  and  C_21
REMARK    3  A    between atoms: N_12  and  C_14
REMARK    4  A    between atoms: C_24  and  C_27
REMARK                            x       y       z     vdW  Elec       q    Type
REMARK                         _______ _______ _______ _____ _____    ______ ____
ROOT
ATOM      1  C   UNL     1      -0.075   1.443  -0.635  0.00  0.00    +0.062 C 
ATOM      2  C   UNL     1      -0.083  -0.064  -0.606  0.00  0.00    +0.022 C 
ATOM      3  C   UNL     1      -1.104  -0.786  -0.241  0.00  0.00    -0.004 C 
ATOM      4  C   UNL     1      -2.525  -0.387   0.080  0.00  0.00    +0.059 C 
ATOM      5  C   UNL     1      -3.415  -1.103  -0.947  0.00  0.00    +0.108 C 
ATOM      6  C   UNL     1      -2.920  -2.480  -1.247  0.00  0.00    +0.216 C 
ATOM      7  O   UNL     1      -3.726  -3.247  -1.730  0.00  0.00    -0.276 OA
ATOM      8  N   UNL     1      -1.694  -2.964  -1.044  0.00  0.00    -0.292 N 
ATOM      9  C   UNL     1      -0.681  -2.245  -0.282  0.00  0.00    +0.210 C 
ATOM     10  N   UNL     1       0.626  -2.214  -0.941  0.00  0.00    -0.210 N 
ATOM     11  N   UNL     1       0.995  -0.857  -0.970  0.00  0.00    -0.265 N 
ATOM     12  H   UNL     1      -1.467  -3.829  -1.419  0.00  0.00    +0.151 HD
ATOM     13  H   UNL     1       1.875  -0.525  -1.208  0.00  0.00    +0.170 HD
ENDROOT
BRANCH  10  14
ATOM     14  C   UNL     1       1.348  -3.297  -1.437  0.00  0.00    +0.162 A 
ATOM     15  C   UNL     1       2.589  -3.092  -2.041  0.00  0.00    +0.052 A 
ATOM     16  C   UNL     1       3.269  -4.200  -2.519  0.00  0.00    +0.077 A 
ATOM     17  C   UNL     1       2.671  -5.450  -2.367  0.00  0.00    +0.289 A 
ATOM     18  O   UNL     1       3.301  -6.564  -2.820  0.00  0.00    -0.264 OA
ATOM     19  N   UNL     1       1.491  -5.548  -1.781  0.00  0.00    -0.105 NA
ATOM     20  N   UNL     1       0.862  -4.524  -1.332  0.00  0.00    -0.129 NA
ENDBRANCH  10  14
BRANCH   4  21
ATOM     21  C   UNL     1      -2.684   1.106  -0.045  0.00  0.00    -0.040 A 
ATOM     22  C   UNL     1      -2.636   1.900   1.087  0.00  0.00    +0.005 A 
ATOM     23  C   UNL     1      -2.782   3.268   0.981  0.00  0.00    +0.015 A 
ATOM     24  C   UNL     1      -2.978   3.851  -0.273  0.00  0.00    +0.063 A 
ATOM     25  C   UNL     1      -3.025   3.042  -1.412  0.00  0.00    +0.015 A 
ATOM     26  C   UNL     1      -2.872   1.677  -1.291  0.00  0.00    +0.005 A 
BRANCH  24  27
ATOM     27  C   UNL     1      -3.135   5.313  -0.395  0.00  0.00    +0.387 C 
ATOM     28  O   UNL     1      -3.093   6.017   0.604  0.00  0.00    -0.241 OA
ATOM     29  O   UNL     1      -3.306   5.820  -1.494  0.00  0.00    -0.241 OA
ENDBRANCH  24  27
ENDBRANCH   4  21
TORSDOF 3
