REMARK  Name = ZINC35715495
REMARK  9 active torsions:
REMARK  status: ('A' for Active; 'I' for Inactive)
REMARK    1  A    between atoms: C_1  and  C_2
REMARK    2  A    between atoms: C_2  and  N_3
REMARK    3  A    between atoms: N_3  and  C_4
REMARK    4  A    between atoms: C_5  and  C_7
REMARK    5  A    between atoms: N_10  and  C_22
REMARK    6  A    between atoms: N_13  and  C_15
REMARK    7  A    between atoms: C_18  and  C_21
REMARK    8  A    between atoms: C_22  and  C_23
REMARK    9  A    between atoms: C_26  and  C_29
REMARK                            x       y       z     vdW  Elec       q    Type
REMARK                         _______ _______ _______ _____ _____    ______ ____
ROOT
ATOM      1  C   UNL     1       0.259  -1.644  -3.003  0.00  0.00    +0.210 A 
ATOM      2  C   UNL     1      -0.662  -1.844  -4.137  0.00  0.00    +0.288 A 
ATOM      3  O   UNL     1      -1.824  -1.487  -4.075  0.00  0.00    -0.265 OA
ATOM      4  N   UNL     1      -0.171  -2.439  -5.250  0.00  0.00    -0.253 N 
ATOM      5  C   UNL     1       1.124  -2.814  -5.264  0.00  0.00    +0.353 A 
ATOM      6  O   UNL     1       1.579  -3.349  -6.256  0.00  0.00    -0.244 OA
ATOM      7  N   UNL     1       1.920  -2.608  -4.203  0.00  0.00    -0.181 N 
ATOM      8  N   UNL     1       1.507  -2.044  -3.126  0.00  0.00    -0.152 NA
ENDROOT
BRANCH   7   9
ATOM      9  C   UNL     1       3.256  -3.019  -4.276  0.00  0.00    +0.071 A 
ATOM     10  C   UNL     1       4.034  -2.665  -5.371  0.00  0.00    +0.028 A 
ATOM     11  C   UNL     1       5.352  -3.072  -5.439  0.00  0.00    +0.005 A 
ATOM     12  C   UNL     1       5.897  -3.831  -4.420  0.00  0.00    -0.050 A 
ATOM     13  C   UNL     1       5.125  -4.184  -3.328  0.00  0.00    +0.005 A 
ATOM     14  C   UNL     1       3.808  -3.776  -3.251  0.00  0.00    +0.028 A 
ATOM     15  C   UNL     1       7.335  -4.273  -4.498  0.00  0.00    +0.044 C 
ENDBRANCH   7   9
BRANCH   1  18
ATOM     16  N   UNL     1       0.676  -0.697  -0.788  0.00  0.00    -0.299 N 
ATOM     17  C   UNL     1       2.110  -0.894  -1.012  0.00  0.00    +0.132 C 
ATOM     18  C   UNL     1      -0.206  -1.003  -1.760  0.00  0.00    +0.272 C 
ATOM     19  O   UNL     1      -1.387  -0.751  -1.611  0.00  0.00    -0.268 OA
BRANCH  16  21
ATOM     20  C   UNL     1       0.139   1.360   0.421  0.00  0.00    +0.024 C 
ATOM     21  C   UNL     1       0.201  -0.167   0.493  0.00  0.00    +0.104 C 
ENDBRANCH  16  21
ENDBRANCH   1  18
BRANCH   4  22
ATOM     22  C   UNL     1      -1.029  -2.671  -6.414  0.00  0.00    +0.165 C 
BRANCH  22  23
ATOM     23  C   UNL     1      -0.961  -1.479  -7.333  0.00  0.00    -0.027 A 
ATOM     24  C   UNL     1      -1.847  -0.430  -7.172  0.00  0.00    +0.005 A 
ATOM     25  C   UNL     1      -1.784   0.664  -8.015  0.00  0.00    +0.004 A 
ATOM     26  C   UNL     1      -0.835   0.709  -9.019  0.00  0.00    -0.050 A 
ATOM     27  C   UNL     1       0.051  -0.339  -9.180  0.00  0.00    +0.004 A 
ATOM     28  C   UNL     1      -0.008  -1.431  -8.334  0.00  0.00    +0.005 A 
ATOM     29  C   UNL     1      -0.768   1.901  -9.939  0.00  0.00    +0.044 C 
ENDBRANCH  22  23
ENDBRANCH   4  22
TORSDOF 5
