REMARK  Name = ZINC40916691
REMARK  10 active torsions:
REMARK  status: ('A' for Active; 'I' for Inactive)
REMARK    1  A    between atoms: C_1  and  C_2
REMARK    2  A    between atoms: C_5  and  C_8
REMARK    3  A    between atoms: C_8  and  O_9
REMARK    4  A    between atoms: O_9  and  C_10
REMARK    5  A    between atoms: C_15  and  C_16
REMARK    6  A    between atoms: C_18  and  C_27
REMARK    7  A    between atoms: C_19  and  C_26
REMARK    8  A    between atoms: N_29  and  C_30
REMARK    9  A    between atoms: C_33  and  C_37
REMARK   10  A    between atoms: C_35  and  C_36
REMARK                            x       y       z     vdW  Elec       q    Type
REMARK                         _______ _______ _______ _____ _____    ______ ____
ROOT
ATOM      1  C   UNL     1       3.525  -5.341  -0.127  0.00  0.00    +0.181 C 
ATOM      2  C   UNL     1       4.605  -5.574  -1.150  0.00  0.00    +0.060 C 
ATOM      3  C   UNL     1       5.775  -6.160  -0.859  0.00  0.00    +0.018 C 
ATOM      4  N   UNL     1       6.085  -6.585   0.410  0.00  0.00    -0.287 N 
ATOM      5  C   UNL     1       5.264  -6.159   1.445  0.00  0.00    +0.218 A 
ATOM      6  N   UNL     1       4.065  -5.570   1.211  0.00  0.00    -0.221 N 
ATOM      7  N   UNL     1       3.520  -5.268   2.458  0.00  0.00    -0.156 NA
ATOM      8  C   UNL     1       4.382  -5.677   3.355  0.00  0.00    +0.247 A 
ATOM      9  N   UNL     1       5.438  -6.218   2.737  0.00  0.00    -0.201 NA
ATOM     10  C   UNL     1       6.784  -6.358  -1.960  0.00  0.00    +0.061 C 
ATOM     11  H   UNL     1       6.848  -7.160   0.577  0.00  0.00    +0.155 HD
ENDROOT
BRANCH   1  17
ATOM     12  C   UNL     1       1.105  -5.797  -0.601  0.00  0.00    +0.127 A 
ATOM     13  C   UNL     1       0.056  -6.674  -0.837  0.00  0.00    +0.046 A 
ATOM     14  C   UNL     1       0.285  -8.036  -0.842  0.00  0.00    +0.004 A 
ATOM     15  C   UNL     1       1.557  -8.526  -0.613  0.00  0.00    +0.001 A 
ATOM     16  C   UNL     1       2.604  -7.655  -0.378  0.00  0.00    +0.009 A 
ATOM     17  C   UNL     1       2.382  -6.291  -0.377  0.00  0.00    +0.023 A 
BRANCH  12  18
ATOM     18  O   UNL     1       0.884  -4.456  -0.596  0.00  0.00    -0.487 OA
BRANCH  18  19
ATOM     19  C   UNL     1      -0.472  -4.022  -0.724  0.00  0.00    +0.264 C 
BRANCH  19  24
ATOM     20  C   UNL     1      -0.649   1.753  -0.815  0.00  0.00    +0.044 C 
ATOM     21  C   UNL     1      -0.603   0.247  -0.791  0.00  0.00    -0.050 A 
ATOM     22  C   UNL     1      -0.373  -0.456  -1.960  0.00  0.00    +0.004 A 
ATOM     23  C   UNL     1      -0.331  -1.838  -1.938  0.00  0.00    +0.007 A 
ATOM     24  C   UNL     1      -0.517  -2.516  -0.748  0.00  0.00    -0.010 A 
ATOM     25  C   UNL     1      -0.745  -1.813   0.420  0.00  0.00    +0.007 A 
ATOM     26  C   UNL     1      -0.784  -0.432   0.399  0.00  0.00    +0.004 A 
ENDBRANCH  19  24
ENDBRANCH  18  19
ENDBRANCH  12  18
ENDBRANCH   1  17
BRANCH   2  27
ATOM     27  C   UNL     1       4.373  -5.156  -2.481  0.00  0.00    +0.248 C 
ATOM     28  O   UNL     1       4.460  -3.977  -2.773  0.00  0.00    -0.270 OA
ATOM     29  N   UNL     1       4.056  -6.062  -3.427  0.00  0.00    -0.281 N 
ATOM     30  H   UNL     1       3.918  -6.991  -3.182  0.00  0.00    +0.155 HD
BRANCH  29  31
ATOM     31  C   UNL     1       3.927  -5.665  -4.761  0.00  0.00    +0.037 A 
ATOM     32  C   UNL     1       4.489  -4.468  -5.189  0.00  0.00    +0.024 A 
ATOM     33  C   UNL     1       4.359  -4.079  -6.507  0.00  0.00    +0.005 A 
ATOM     34  C   UNL     1       3.670  -4.878  -7.402  0.00  0.00    -0.050 A 
ATOM     35  C   UNL     1       3.109  -6.069  -6.979  0.00  0.00    +0.008 A 
ATOM     36  C   UNL     1       3.241  -6.468  -5.663  0.00  0.00    -0.029 A 
ATOM     37  C   UNL     1       2.635  -7.769  -5.205  0.00  0.00    +0.045 C 
ATOM     38  C   UNL     1       3.530  -4.449  -8.839  0.00  0.00    +0.044 C 
ENDBRANCH  29  31
ENDBRANCH   2  27
TORSDOF 6
