REMARK  Name = ZINC27529475
REMARK  6 active torsions:
REMARK  status: ('A' for Active; 'I' for Inactive)
REMARK    1  A    between atoms: C_1  and  C_2
REMARK    2  A    between atoms: C_2  and  O_3
REMARK    3  A    between atoms: O_3  and  C_4
REMARK    4  A    between atoms: C_4  and  C_6
REMARK    5  A    between atoms: C_10  and  N_11
REMARK    6  A    between atoms: N_25  and  C_28
REMARK                            x       y       z     vdW  Elec       q    Type
REMARK                         _______ _______ _______ _____ _____    ______ ____
ROOT
ATOM      1  C   UNL     1      -2.794  -2.557   0.018  0.00  0.00    +0.091 A 
ATOM      2  C   UNL     1      -3.511  -2.819  -1.213  0.00  0.00    -0.025 A 
ATOM      3  C   UNL     1      -4.803  -3.179  -1.038  0.00  0.00    -0.021 A 
ATOM      4  S   UNL     1      -5.037  -3.167   0.713  0.00  0.00    -0.079 S 
ATOM      5  C   UNL     1      -3.497  -2.709   1.204  0.00  0.00    +0.096 A 
ATOM      6  C   UNL     1      -5.783  -3.504  -2.121  0.00  0.00    -0.036 C 
ATOM      7  N   UNL     1      -5.242  -3.007  -3.400  0.00  0.00    +0.381 N 
ATOM      8  C   UNL     1      -3.861  -3.477  -3.567  0.00  0.00    -0.074 C 
ATOM      9  C   UNL     1      -2.927  -2.722  -2.615  0.00  0.00    +0.018 C 
ATOM     10  C   UNL     1      -6.067  -3.509  -4.507  0.00  0.00    -0.096 C 
ATOM     11  H   UNL     1      -5.257  -1.998  -3.401  0.00  0.00    -0.082 HD
ENDROOT
BRANCH   5  12
ATOM     12  N   UNL     1      -3.034  -2.523   2.502  0.00  0.00    -0.203 N 
ATOM     13  C   UNL     1      -3.153  -1.347   3.176  0.00  0.00    +0.230 C 
ATOM     14  O   UNL     1      -3.460  -0.269   2.714  0.00  0.00    -0.274 OA
ATOM     15  C   UNL     1      -2.829  -1.655   4.603  0.00  0.00    +0.088 C 
ATOM     16  C   UNL     1      -2.145  -0.614   5.457  0.00  0.00    +0.013 C 
ATOM     17  C   UNL     1      -1.907  -1.260   6.835  0.00  0.00    +0.001 C 
ATOM     18  C   UNL     1      -1.104  -2.552   6.732  0.00  0.00    +0.001 C 
ATOM     19  C   UNL     1      -1.731  -3.540   5.729  0.00  0.00    +0.013 C 
ATOM     20  C   UNL     1      -1.809  -2.816   4.406  0.00  0.00    +0.088 C 
ATOM     21  C   UNL     1      -2.423  -3.501   3.224  0.00  0.00    +0.230 C 
ATOM     22  O   UNL     1      -2.383  -4.684   2.963  0.00  0.00    -0.274 OA
ENDBRANCH   5  12
BRANCH   1  23
ATOM     23  C   UNL     1      -1.385  -2.154   0.012  0.00  0.00    +0.342 C 
ATOM     24  O   UNL     1      -0.510  -2.998   0.051  0.00  0.00    -0.245 OA
BRANCH  23  25
ATOM     25  O   UNL     1      -1.057  -0.846  -0.038  0.00  0.00    -0.461 OA
BRANCH  25  27
ATOM     26  C   UNL     1       0.509   0.993  -0.101  0.00  0.00    +0.048 C 
ATOM     27  C   UNL     1       0.335  -0.526  -0.042  0.00  0.00    +0.229 C 
ENDBRANCH  25  27
ENDBRANCH  23  25
ENDBRANCH   1  23
TORSDOF 4
