REMARK  Name = ZINC30577712
REMARK  9 active torsions:
REMARK  status: ('A' for Active; 'I' for Inactive)
REMARK    1  A    between atoms: C_1  and  C_2
REMARK    2  A    between atoms: C_5  and  N_32
REMARK    3  A    between atoms: C_7  and  S_8
REMARK    4  A    between atoms: S_8  and  N_11
REMARK    5  A    between atoms: N_14  and  C_17
REMARK    6  A    between atoms: C_17  and  C_18
REMARK    7  A    between atoms: N_23  and  C_24
REMARK    8  A    between atoms: C_24  and  C_25
REMARK    9  A    between atoms: C_25  and  C_26
REMARK                            x       y       z     vdW  Elec       q    Type
REMARK                         _______ _______ _______ _____ _____    ______ ____
ROOT
ATOM      1  N   UNL     1       3.370   3.300   1.903  0.00  0.00    -0.180 NA
ATOM      2  C   UNL     1       3.000   4.047   3.115  0.00  0.00    +0.091 C 
ATOM      3  C   UNL     1       2.467   3.047   4.154  0.00  0.00    -0.061 C 
ATOM      4  N   UNL     1       3.461   1.986   4.359  0.00  0.00    +0.387 N 
ATOM      5  C   UNL     1       3.680   1.215   3.128  0.00  0.00    -0.061 C 
ATOM      6  C   UNL     1       4.257   2.136   2.048  0.00  0.00    +0.091 C 
ATOM      7  H   UNL     1       4.414   2.467   4.626  0.00  0.00    -0.081 HD
ENDROOT
BRANCH   1   8
ATOM      8  S   UNL     1       2.809   3.762   0.415  0.00  0.00    +0.061 S 
ATOM      9  O   UNL     1       3.789   3.358  -0.531  0.00  0.00    -0.153 OA
ATOM     10  O   UNL     1       2.384   5.112   0.543  0.00  0.00    -0.153 OA
BRANCH   8  17
ATOM     11  C   UNL     1       0.211   4.024   1.942  0.00  0.00    +0.046 C 
ATOM     12  C   UNL     1       0.223   2.999   0.837  0.00  0.00    -0.024 A 
ATOM     13  C   UNL     1      -0.910   2.250   0.577  0.00  0.00    +0.007 A 
ATOM     14  C   UNL     1      -0.897   1.306  -0.433  0.00  0.00    +0.033 A 
ATOM     15  C   UNL     1       0.244   1.119  -1.190  0.00  0.00    +0.128 A 
ATOM     16  C   UNL     1       1.376   1.868  -0.930  0.00  0.00    +0.061 A 
ATOM     17  C   UNL     1       1.366   2.808   0.084  0.00  0.00    +0.111 A 
BRANCH  15  18
ATOM     18  N   UNL     1       0.256   0.112  -2.275  0.00  0.00    +0.056 N 
ATOM     19  O   UNL     1       1.263  -0.057  -2.938  0.00  0.00    -0.126 OA
ATOM     20  O   UNL     1      -0.742  -0.548  -2.503  0.00  0.00    -0.126 OA
ENDBRANCH  15  18
ENDBRANCH   8  17
ENDBRANCH   1   8
BRANCH   4  21
ATOM     21  C   UNL     1       3.071   1.106   5.469  0.00  0.00    +0.019 C 
BRANCH  21  22
ATOM     22  C   UNL     1       3.095   1.884   6.759  0.00  0.00    +0.204 C 
ATOM     23  O   UNL     1       3.406   3.056   6.755  0.00  0.00    -0.277 OA
ATOM     24  N   UNL     1       2.769   1.278   7.918  0.00  0.00    -0.242 N 
ATOM     25  C   UNL     1       2.791   1.974   9.072  0.00  0.00    +0.306 C 
ATOM     26  O   UNL     1       3.103   3.148   9.067  0.00  0.00    -0.252 OA
ATOM     27  N   UNL     1       2.466   1.367  10.231  0.00  0.00    -0.299 N 
ATOM     28  H   UNL     1       2.487   0.214   7.922  0.00  0.00    +0.159 HD
ATOM     29  H   UNL     1       2.183   0.304  10.235  0.00  0.00    +0.150 HD
BRANCH  27  30
ATOM     30  C   UNL     1       2.489   2.123  11.485  0.00  0.00    +0.110 C 
BRANCH  30  31
ATOM     31  C   UNL     1       2.082   1.207  12.641  0.00  0.00    +0.049 C 
BRANCH  31  32
ATOM     32  C   UNL     1       2.106   1.985  13.931  0.00  0.00    -0.072 C 
ATOM     33  C   UNL     1       0.996   2.507  14.346  0.00  0.00    -0.028 C 
ATOM     34  C   UNL     1       0.865   3.314  15.604  0.00  0.00    +0.027 C 
ATOM     35  C   UNL     1       2.075   3.077  16.511  0.00  0.00    +0.004 C 
ATOM     36  C   UNL     1       3.349   3.247  15.674  0.00  0.00    +0.005 C 
ATOM     37  C   UNL     1       3.413   2.102  14.658  0.00  0.00    +0.030 C 
ENDBRANCH  31  32
ENDBRANCH  30  31
ENDBRANCH  27  30
ENDBRANCH  21  22
ENDBRANCH   4  21
TORSDOF 8
