REMARK  Name = ZINC20207500
REMARK  10 active torsions:
REMARK  status: ('A' for Active; 'I' for Inactive)
REMARK    1  A    between atoms: C_1  and  C_2
REMARK    2  A    between atoms: C_5  and  O_9
REMARK    3  A    between atoms: C_7  and  C_8
REMARK    4  A    between atoms: O_9  and  C_10
REMARK    5  A    between atoms: C_10  and  C_11
REMARK    6  A    between atoms: C_11  and  O_12
REMARK    7  A    between atoms: O_12  and  C_13
REMARK    8  A    between atoms: C_16  and  C_19
REMARK    9  A    between atoms: C_29  and  S_31
REMARK   10  A    between atoms: S_31  and  C_34
REMARK                            x       y       z     vdW  Elec       q    Type
REMARK                         _______ _______ _______ _____ _____    ______ ____
ROOT
ATOM      1  C   UNL     1      -1.499  -8.124  -0.168  0.00  0.00    +0.121 A 
ATOM      2  C   UNL     1      -0.599  -9.012  -0.749  0.00  0.00    +0.046 A 
ATOM      3  C   UNL     1      -0.669 -10.345  -0.462  0.00  0.00    +0.011 A 
ATOM      4  C   UNL     1      -1.651 -10.819   0.420  0.00  0.00    -0.024 A 
ATOM      5  C   UNL     1      -2.555  -9.919   1.003  0.00  0.00    +0.011 A 
ATOM      6  C   UNL     1      -2.472  -8.587   0.712  0.00  0.00    +0.046 A 
ENDROOT
BRANCH   4   7
ATOM      7  C   UNL     1      -1.732 -12.248   0.732  0.00  0.00    +0.024 C 
ATOM      8  C   UNL     1      -0.586 -13.010   0.771  0.00  0.00    +0.081 C 
ATOM      9  C   UNL     1       0.769 -12.395   0.686  0.00  0.00    +0.153 C 
ATOM     10  N   UNL     1       1.054 -11.217   1.173  0.00  0.00    -0.283 NA
ATOM     11  N   UNL     1       1.714 -13.211   0.027  0.00  0.00    -0.150 N 
ATOM     12  C   UNL     1       1.471 -14.568  -0.004  0.00  0.00    +0.182 C 
ATOM     13  N   UNL     1       0.408 -15.199   0.428  0.00  0.00    -0.152 NA
ATOM     14  C   UNL     1      -0.633 -14.487   0.907  0.00  0.00    +0.273 C 
ATOM     15  O   UNL     1      -1.587 -15.040   1.432  0.00  0.00    -0.268 OA
ATOM     16  S   UNL     1       2.938 -15.189  -0.784  0.00  0.00    -0.015 S 
ATOM     17  C   UNL     1       3.718 -13.613  -1.104  0.00  0.00    +0.235 C 
ATOM     18  N   UNL     1       2.870 -12.774  -0.583  0.00  0.00    -0.145 NA
ATOM     19  H   UNL     1       1.954 -10.864   1.092  0.00  0.00    +0.188 HD
BRANCH  17  20
ATOM     20  S   UNL     1       5.246 -13.280  -1.917  0.00  0.00    +0.019 S 
ATOM     21  O   UNL     1       5.383 -14.324  -2.872  0.00  0.00    -0.168 OA
ATOM     22  O   UNL     1       5.147 -11.925  -2.334  0.00  0.00    -0.168 OA
ATOM     23  C   UNL     1       6.508 -13.447  -0.625  0.00  0.00    +0.202 C 
ENDBRANCH  17  20
ENDBRANCH   4   7
BRANCH   1  24
ATOM     24  O   UNL     1      -1.425  -6.800  -0.457  0.00  0.00    -0.489 OA
BRANCH  24  25
ATOM     25  C   UNL     1      -0.403  -6.392  -1.369  0.00  0.00    +0.270 C 
BRANCH  25  26
ATOM     26  C   UNL     1      -0.475  -4.877  -1.570  0.00  0.00    +0.270 C 
BRANCH  26  27
ATOM     27  O   UNL     1      -0.169  -4.218  -0.340  0.00  0.00    -0.489 OA
BRANCH  27  32
ATOM     28  C   UNL     1      -0.255   1.414  -0.365  0.00  0.00    +0.044 C 
ATOM     29  C   UNL     1      -0.231  -0.093  -0.359  0.00  0.00    -0.047 A 
ATOM     30  C   UNL     1      -0.517  -0.793  -1.517  0.00  0.00    +0.007 A 
ATOM     31  C   UNL     1      -0.497  -2.174  -1.513  0.00  0.00    +0.046 A 
ATOM     32  C   UNL     1      -0.189  -2.859  -0.346  0.00  0.00    +0.121 A 
ATOM     33  C   UNL     1       0.097  -2.155   0.814  0.00  0.00    +0.049 A 
ATOM     34  C   UNL     1       0.081  -0.773   0.804  0.00  0.00    -0.044 A 
ATOM     35  C   UNL     1       0.398  -0.007   2.062  0.00  0.00    +0.044 C 
ENDBRANCH  27  32
ENDBRANCH  26  27
ENDBRANCH  25  26
ENDBRANCH  24  25
ENDBRANCH   1  24
TORSDOF 7
