REMARK  Name = ZINC32808964
REMARK  9 active torsions:
REMARK  status: ('A' for Active; 'I' for Inactive)
REMARK    1  A    between atoms: C_1  and  C_2
REMARK    2  A    between atoms: C_3  and  C_29
REMARK    3  A    between atoms: C_4  and  C_28
REMARK    4  A    between atoms: C_7  and  C_8
REMARK    5  A    between atoms: C_8  and  C_10
REMARK    6  A    between atoms: C_10  and  C_12
REMARK    7  A    between atoms: C_10  and  N_13
REMARK    8  A    between atoms: N_13  and  C_14
REMARK    9  A    between atoms: C_29  and  C_31
REMARK                            x       y       z     vdW  Elec       q    Type
REMARK                         _______ _______ _______ _____ _____    ______ ____
ROOT
ATOM      1  N   UNL     1      -8.210   3.945   1.694  0.00  0.00    -0.334 N 
ATOM      2  H   UNL     1      -8.795   3.026   1.540  0.00  0.00    +0.147 HD
ENDROOT
BRANCH   1   3
ATOM      3  C   UNL     1      -6.952   4.080   1.096  0.00  0.00    +0.031 A 
ATOM      4  C   UNL     1      -6.212   5.239   1.290  0.00  0.00    +0.027 A 
ATOM      5  C   UNL     1      -4.969   5.375   0.701  0.00  0.00    +0.051 A 
ATOM      6  C   UNL     1      -4.458   4.355  -0.085  0.00  0.00    +0.167 A 
ATOM      7  C   UNL     1      -5.197   3.192  -0.282  0.00  0.00    +0.169 A 
ATOM      8  C   UNL     1      -6.442   3.057   0.309  0.00  0.00    +0.072 A 
ATOM      9  O   UNL     1      -4.484   2.350  -1.087  0.00  0.00    -0.447 OA
ATOM     10  C   UNL     1      -3.138   2.848  -1.065  0.00  0.00    +0.254 C 
ATOM     11  O   UNL     1      -3.278   4.245  -0.768  0.00  0.00    -0.448 OA
ATOM     12  C   UNL     1      -2.482   2.659  -2.429  0.00  0.00    +0.093 C 
ATOM     13  C   UNL     1      -1.058   3.219  -2.395  0.00  0.00    +0.008 C 
ATOM     14  C   UNL     1      -0.250   2.493  -1.317  0.00  0.00    +0.000 C 
ATOM     15  C   UNL     1      -0.907   2.712   0.048  0.00  0.00    +0.008 C 
ATOM     16  C   UNL     1      -2.331   2.151   0.024  0.00  0.00    +0.093 C 
ENDBRANCH   1   3
BRANCH   1  17
ATOM     17  C   UNL     1      -8.746   5.026   2.525  0.00  0.00    +0.140 C 
ATOM     18  C   UNL     1      -9.444   6.055   1.633  0.00  0.00    +0.036 C 
BRANCH  17  19
ATOM     19  C   UNL     1      -9.738   4.459   3.507  0.00  0.00    +0.199 C 
ATOM     20  O   UNL     1     -10.180   3.339   3.347  0.00  0.00    -0.289 OA
BRANCH  19  27
ATOM     21  C   UNL     1     -11.765   3.513   5.664  0.00  0.00    +0.047 C 
ATOM     22  C   UNL     1     -11.051   4.837   5.587  0.00  0.00    -0.012 A 
ATOM     23  C   UNL     1     -11.171   5.914   6.495  0.00  0.00    +0.041 A 
ATOM     24  C   UNL     1     -10.338   6.926   6.040  0.00  0.00    +0.024 A 
ATOM     25  N   UNL     1      -9.730   6.510   4.921  0.00  0.00    -0.355 N 
ATOM     26  H   UNL     1      -9.018   7.170   4.404  0.00  0.00    +0.166 HD
ATOM     27  C   UNL     1     -10.155   5.232   4.618  0.00  0.00    +0.088 A 
ATOM     28  C   UNL     1     -10.145   8.268   6.699  0.00  0.00    +0.064 C 
BRANCH  23  29
ATOM     29  C   UNL     1     -12.015   5.953   7.693  0.00  0.00    +0.162 C 
ATOM     30  O   UNL     1     -13.174   6.301   7.607  0.00  0.00    -0.292 OA
ATOM     31  C   UNL     1     -11.444   5.560   9.031  0.00  0.00    +0.091 C 
ENDBRANCH  23  29
ENDBRANCH  19  27
ENDBRANCH  17  19
ENDBRANCH   1  17
TORSDOF 5
