REMARK  Name = ZINC09682137
REMARK  5 active torsions:
REMARK  status: ('A' for Active; 'I' for Inactive)
REMARK    1  A    between atoms: C_1  and  C_2
REMARK    2  A    between atoms: C_5  and  N_8
REMARK    3  A    between atoms: N_19  and  C_20
REMARK    4  A    between atoms: C_21  and  C_23
REMARK    5  A    between atoms: N_25  and  C_26
REMARK                            x       y       z     vdW  Elec       q    Type
REMARK                         _______ _______ _______ _____ _____    ______ ____
ROOT
ATOM      1  N   UNL     1      -5.345   1.110   0.065  0.00  0.00    -0.194 N 
ATOM      2  C   UNL     1      -4.796   2.300   0.370  0.00  0.00    +0.296 A 
ATOM      3  O   UNL     1      -5.507   3.244   0.670  0.00  0.00    -0.264 OA
ATOM      4  C   UNL     1      -3.389   2.451   0.341  0.00  0.00    +0.119 A 
ATOM      5  C   UNL     1      -2.632   1.332  -0.010  0.00  0.00    +0.045 A 
ATOM      6  C   UNL     1      -1.228   1.743   0.033  0.00  0.00    +0.010 A 
ATOM      7  C   UNL     1      -0.019   1.088  -0.211  0.00  0.00    +0.011 A 
ATOM      8  C   UNL     1       1.161   1.765  -0.086  0.00  0.00    +0.001 A 
ATOM      9  C   UNL     1       1.169   3.102   0.287  0.00  0.00    +0.002 A 
ATOM     10  C   UNL     1      -0.011   3.767   0.538  0.00  0.00    +0.026 A 
ATOM     11  C   UNL     1      -1.225   3.097   0.417  0.00  0.00    +0.050 A 
ATOM     12  N   UNL     1      -2.533   3.496   0.600  0.00  0.00    -0.339 N 
ATOM     13  C   UNL     1      -2.950   4.842   1.000  0.00  0.00    +0.149 C 
ATOM     14  C   UNL     1      -3.343   0.091  -0.321  0.00  0.00    +0.156 A 
ATOM     15  N   UNL     1      -4.658   0.078  -0.258  0.00  0.00    -0.158 NA
ENDROOT
BRANCH   1  20
ATOM     16  C   UNL     1     -10.995   0.636   0.221  0.00  0.00    +0.044 C 
ATOM     17  C   UNL     1      -9.494   0.763   0.179  0.00  0.00    -0.050 A 
ATOM     18  C   UNL     1      -8.795   0.314  -0.926  0.00  0.00    +0.005 A 
ATOM     19  C   UNL     1      -7.419   0.427  -0.967  0.00  0.00    +0.028 A 
ATOM     20  C   UNL     1      -6.738   0.994   0.103  0.00  0.00    +0.069 A 
ATOM     21  C   UNL     1      -7.444   1.439   1.214  0.00  0.00    +0.028 A 
ATOM     22  C   UNL     1      -8.820   1.327   1.246  0.00  0.00    +0.005 A 
ENDBRANCH   1  20
BRANCH  14  23
ATOM     23  C   UNL     1      -2.597  -1.127  -0.700  0.00  0.00    +0.265 C 
ATOM     24  O   UNL     1      -1.383  -1.136  -0.650  0.00  0.00    -0.268 OA
ATOM     25  N   UNL     1      -3.264  -2.228  -1.101  0.00  0.00    -0.303 N 
ATOM     26  H   UNL     1      -4.233  -2.220  -1.141  0.00  0.00    +0.150 HD
BRANCH  25  27
ATOM     27  C   UNL     1      -2.525  -3.436  -1.476  0.00  0.00    +0.104 C 
ATOM     28  C   UNL     1      -3.372  -4.266  -2.438  0.00  0.00    +0.027 C 
ATOM     29  C   UNL     1      -2.680  -5.618  -2.648  0.00  0.00    +0.007 C 
ATOM     30  C   UNL     1      -2.786  -6.420  -1.352  0.00  0.00    +0.035 C 
ATOM     31  C   UNL     1      -2.319  -5.598  -0.180  0.00  0.00    -0.042 A 
ATOM     32  C   UNL     1      -2.202  -4.227  -0.236  0.00  0.00    -0.024 A 
ATOM     33  C   UNL     1      -1.772  -3.527   0.884  0.00  0.00    +0.006 A 
ATOM     34  C   UNL     1      -1.457  -4.194   2.050  0.00  0.00    +0.000 A 
ATOM     35  C   UNL     1      -1.570  -5.571   2.104  0.00  0.00    +0.000 A 
ATOM     36  C   UNL     1      -1.999  -6.268   0.993  0.00  0.00    +0.004 A 
ENDBRANCH  25  27
ENDBRANCH  14  23
TORSDOF 3
