REMARK  Name = ZINC09410276
REMARK  12 active torsions:
REMARK  status: ('A' for Active; 'I' for Inactive)
REMARK    1  A    between atoms: C_1  and  C_2
REMARK    2  A    between atoms: C_2  and  O_3
REMARK    3  A    between atoms: O_3  and  C_4
REMARK    4  A    between atoms: C_9  and  O_10
REMARK    5  A    between atoms: O_10  and  C_11
REMARK    6  A    between atoms: C_16  and  C_17
REMARK    7  A    between atoms: C_20  and  O_24
REMARK    8  A    between atoms: C_22  and  O_23
REMARK    9  A    between atoms: O_24  and  C_25
REMARK   10  A    between atoms: C_25  and  C_26
REMARK   11  A    between atoms: C_28  and  C_33
REMARK   12  A    between atoms: C_31  and  C_32
REMARK                            x       y       z     vdW  Elec       q    Type
REMARK                         _______ _______ _______ _____ _____    ______ ____
ROOT
ATOM      1  C   UNL     1      -2.348  -0.326  -0.745  0.00  0.00    +0.173 A 
ATOM      2  C   UNL     1      -3.541  -1.020  -0.601  0.00  0.00    +0.162 A 
ATOM      3  N   UNL     1      -3.569  -2.108   0.153  0.00  0.00    -0.219 NA
ATOM      4  C   UNL     1      -2.478  -2.543   0.766  0.00  0.00    +0.213 A 
ATOM      5  N   UNL     1      -1.318  -1.917   0.654  0.00  0.00    -0.211 NA
ATOM      6  C   UNL     1      -1.209  -0.816  -0.088  0.00  0.00    +0.122 A 
ATOM      7  N   UNL     1      -2.554  -3.686   1.547  0.00  0.00    -0.327 N 
ATOM      8  H   UNL     1      -1.763  -4.016   2.001  0.00  0.00    +0.145 HD
ATOM      9  H   UNL     1      -3.397  -4.156   1.638  0.00  0.00    +0.145 HD
ENDROOT
BRANCH   6  10
ATOM     10  C   UNL     1       0.090  -0.117  -0.212  0.00  0.00    +0.046 A 
ATOM     11  C   UNL     1       0.161   1.265  -0.034  0.00  0.00    +0.017 A 
ATOM     12  C   UNL     1       1.371   1.913  -0.150  0.00  0.00    +0.046 A 
ATOM     13  C   UNL     1       2.523   1.194  -0.446  0.00  0.00    +0.124 A 
ATOM     14  C   UNL     1       2.462  -0.180  -0.625  0.00  0.00    +0.091 A 
ATOM     15  C   UNL     1       1.250  -0.840  -0.510  0.00  0.00    +0.130 A 
BRANCH  15  16
ATOM     16  O   UNL     1       1.189  -2.185  -0.685  0.00  0.00    -0.506 OA
ATOM     17  H   UNL     1       1.024  -2.456  -1.599  0.00  0.00    +0.292 HD
ENDBRANCH  15  16
BRANCH  13  18
ATOM     18  O   UNL     1       3.713   1.839  -0.560  0.00  0.00    -0.487 OA
BRANCH  18  19
ATOM     19  C   UNL     1       3.705   3.254  -0.363  0.00  0.00    +0.264 C 
BRANCH  19  20
ATOM     20  C   UNL     1       5.104   3.792  -0.527  0.00  0.00    -0.007 A 
ATOM     21  C   UNL     1       6.145   2.932  -0.824  0.00  0.00    +0.010 A 
ATOM     22  C   UNL     1       7.427   3.425  -0.975  0.00  0.00    -0.050 A 
ATOM     23  C   UNL     1       7.668   4.779  -0.830  0.00  0.00    +0.003 A 
ATOM     24  C   UNL     1       6.628   5.638  -0.533  0.00  0.00    +0.004 A 
ATOM     25  C   UNL     1       5.344   5.146  -0.387  0.00  0.00    -0.044 A 
ATOM     26  C   UNL     1       4.208   6.084  -0.070  0.00  0.00    +0.044 C 
ATOM     27  C   UNL     1       8.562   2.488  -1.299  0.00  0.00    +0.044 C 
ENDBRANCH  19  20
ENDBRANCH  18  19
ENDBRANCH  13  18
ENDBRANCH   6  10
BRANCH   1  28
ATOM     28  O   UNL     1      -2.283   0.798  -1.508  0.00  0.00    -0.449 OA
BRANCH  28  34
ATOM     29  C   UNL     1      -1.656   1.808  -3.574  0.00  0.00    +0.163 A 
ATOM     30  C   UNL     1      -1.219   1.677  -4.882  0.00  0.00    +0.049 A 
ATOM     31  C   UNL     1      -0.980   0.420  -5.408  0.00  0.00    +0.004 A 
ATOM     32  C   UNL     1      -1.177  -0.707  -4.631  0.00  0.00    +0.004 A 
ATOM     33  C   UNL     1      -1.609  -0.582  -3.324  0.00  0.00    +0.050 A 
ATOM     34  C   UNL     1      -1.855   0.674  -2.792  0.00  0.00    +0.170 A 
BRANCH  29  35
ATOM     35  O   UNL     1      -1.890   3.043  -3.054  0.00  0.00    -0.489 OA
BRANCH  35  37
ATOM     36  C   UNL     1      -1.980   5.456  -3.161  0.00  0.00    +0.048 C 
ATOM     37  C   UNL     1      -1.665   4.162  -3.914  0.00  0.00    +0.226 C 
ENDBRANCH  35  37
ENDBRANCH  29  35
ENDBRANCH  28  34
ENDBRANCH   1  28
TORSDOF 9
