REMARK  Name = ZINC04729454
REMARK  8 active torsions:
REMARK  status: ('A' for Active; 'I' for Inactive)
REMARK    1  A    between atoms: C_1  and  C_2
REMARK    2  A    between atoms: C_2  and  C_3
REMARK    3  A    between atoms: C_6  and  C_9
REMARK    4  A    between atoms: C_11  and  C_24
REMARK    5  A    between atoms: C_13  and  C_16
REMARK    6  A    between atoms: C_21  and  O_22
REMARK    7  A    between atoms: C_27  and  O_30
REMARK    8  A    between atoms: O_30  and  C_31
REMARK                            x       y       z     vdW  Elec       q    Type
REMARK                         _______ _______ _______ _____ _____    ______ ____
ROOT
ATOM      1  C   UNL     1       1.173   3.563   0.009  0.00  0.00    +0.040 C 
ATOM      2  N   UNL     1       0.043   4.163   0.018  0.00  0.00    -0.299 NA
ATOM      3  C   UNL     1      -0.114   5.612   0.021  0.00  0.00    +0.081 C 
ATOM      4  C   UNL     1       2.260   5.756  -0.381  0.00  0.00    -0.028 C 
ATOM      5  C   UNL     1       2.489   4.290   0.001  0.00  0.00    +0.044 C 
ATOM      6  N   UNL     1       1.136   6.273   0.424  0.00  0.00    +0.401 N 
ATOM      7  H   UNL     1       1.315   6.086   1.418  0.00  0.00    -0.081 HD
ATOM      8  H   UNL     1       1.049   7.285   0.277  0.00  0.00    -0.081 HD
ENDROOT
BRANCH   4   9
ATOM      9  C   UNL     1       3.502   6.557  -0.088  0.00  0.00    -0.018 A 
ATOM     10  C   UNL     1       3.619   7.239   1.108  0.00  0.00    +0.025 A 
ATOM     11  C   UNL     1       4.761   7.971   1.379  0.00  0.00    +0.041 A 
ATOM     12  C   UNL     1       5.784   8.030   0.449  0.00  0.00    +0.023 A 
ATOM     13  C   UNL     1       5.668   7.354  -0.750  0.00  0.00    +0.047 A 
ATOM     14  C   UNL     1       4.526   6.616  -1.022  0.00  0.00    +0.119 A 
ATOM     15 CL   UNL     1       4.909   8.822   2.885  0.00  0.00    -0.084 Cl
BRANCH  14  16
ATOM     16  O   UNL     1       4.410   5.950  -2.201  0.00  0.00    -0.507 OA
ATOM     17  H   UNL     1       4.003   6.470  -2.908  0.00  0.00    +0.292 HD
ENDBRANCH  14  16
ENDBRANCH   4   9
BRANCH   1  21
ATOM     18  C   UNL     1       1.208  -0.683  -0.013  0.00  0.00    -0.048 A 
ATOM     19  C   UNL     1       0.002  -0.004   0.002  0.00  0.00    +0.004 A 
ATOM     20  C   UNL     1      -0.017   1.375   0.010  0.00  0.00    +0.010 A 
ATOM     21  C   UNL     1       1.185   2.087   0.002  0.00  0.00    -0.004 A 
ATOM     22  C   UNL     1       2.398   1.395  -0.013  0.00  0.00    +0.010 A 
ATOM     23  C   UNL     1       2.402   0.016  -0.021  0.00  0.00    +0.004 A 
BRANCH  18  25
ATOM     24  C   UNL     1       1.210  -2.692  -1.466  0.00  0.00    +0.009 C 
ATOM     25  C   UNL     1       1.220  -2.190  -0.021  0.00  0.00    +0.032 C 
ENDBRANCH  18  25
ENDBRANCH   1  21
BRANCH   3  26
ATOM     26  C   UNL     1      -0.493   6.068  -1.365  0.00  0.00    -0.040 A 
ATOM     27  C   UNL     1      -0.141   7.334  -1.795  0.00  0.00    +0.007 A 
ATOM     28  C   UNL     1      -0.483   7.753  -3.066  0.00  0.00    +0.046 A 
ATOM     29  C   UNL     1      -1.190   6.906  -3.907  0.00  0.00    +0.120 A 
ATOM     30  C   UNL     1      -1.548   5.638  -3.471  0.00  0.00    +0.046 A 
ATOM     31  C   UNL     1      -1.198   5.222  -2.201  0.00  0.00    +0.007 A 
BRANCH  29  32
ATOM     32  O   UNL     1      -1.533   7.318  -5.156  0.00  0.00    -0.495 OA
ATOM     33  C   UNL     1      -1.132   8.635  -5.538  0.00  0.00    +0.277 C 
ENDBRANCH  29  32
ENDBRANCH   3  26
TORSDOF 6
