REMARK  Name = ZINC40750247
REMARK  3 active torsions:
REMARK  status: ('A' for Active; 'I' for Inactive)
REMARK    1  A    between atoms: C_8  and  C_12
REMARK    2  A    between atoms: C_12  and  N_13
REMARK    3  A    between atoms: C_21  and  N_23
REMARK                            x       y       z     vdW  Elec       q    Type
REMARK                         _______ _______ _______ _____ _____    ______ ____
ROOT
ATOM      1  C   UNL     1       2.384  -4.189  -0.041  0.00  0.00    +0.138 C 
ENDROOT
BRANCH   1   9
ATOM      2  C   UNL     1      -0.016   1.359   0.009  0.00  0.00    +0.005 A 
ATOM      3  C   UNL     1       1.194   2.067   0.002  0.00  0.00    +0.018 A 
ATOM      4  C   UNL     1       2.370   1.401  -0.013  0.00  0.00    +0.096 A 
ATOM      5  N   UNL     1       2.400   0.039  -0.021  0.00  0.00    -0.270 N 
ATOM      6  C   UNL     1       1.236  -0.679  -0.013  0.00  0.00    +0.118 A 
ATOM      7  C   UNL     1       0.002  -0.004   0.002  0.00  0.00    +0.045 A 
ATOM      8  N   UNL     1       1.256  -2.011  -0.020  0.00  0.00    -0.343 N 
ATOM      9  C   UNL     1       2.397  -2.682  -0.034  0.00  0.00    +0.037 A 
ATOM     10  C   UNL     1       3.600  -2.003  -0.042  0.00  0.00    +0.093 A 
ATOM     11  C   UNL     1       3.587  -0.603  -0.035  0.00  0.00    +0.258 A 
ATOM     12  O   UNL     1       4.633   0.026  -0.043  0.00  0.00    -0.267 OA
ATOM     13  H   UNL     1       0.418  -2.498  -0.014  0.00  0.00    +0.167 HD
ENDBRANCH   1   9
BRANCH   1  14
ATOM     14  N   UNL     1       1.806  -4.679   1.218  0.00  0.00    -0.291 NA
ATOM     15  C   UNL     1       2.775  -4.544   2.337  0.00  0.00    +0.056 C 
ATOM     16  C   UNL     1       3.756  -5.721   2.135  0.00  0.00    +0.020 C 
ATOM     17  C   UNL     1       2.950  -6.778   1.353  0.00  0.00    +0.020 C 
ATOM     18  C   UNL     1       1.554  -6.144   1.154  0.00  0.00    +0.056 C 
ATOM     19  C   UNL     1       0.692  -6.511   2.372  0.00  0.00    +0.003 C 
ATOM     20  C   UNL     1       1.495  -6.240   3.647  0.00  0.00    -0.072 C 
ATOM     21  C   UNL     1       1.999  -4.780   3.643  0.00  0.00    +0.003 C 
BRANCH  20  22
ATOM     22  N   UNL     1       0.636  -6.453   4.820  0.00  0.00    +0.380 N 
ATOM     23  H   UNL     1       0.306  -7.406   4.827  0.00  0.00    -0.090 HD
ATOM     24  H   UNL     1       1.165  -6.274   5.661  0.00  0.00    -0.090 HD
ATOM     25  H   UNL     1      -0.151  -5.824   4.778  0.00  0.00    -0.090 HD
ENDBRANCH  20  22
ENDBRANCH   1  14
TORSDOF 3
