REMARK  Name = ZINC36302211
REMARK  16 active torsions:
REMARK  status: ('A' for Active; 'I' for Inactive)
REMARK    1  A    between atoms: C_1  and  C_2
REMARK    2  A    between atoms: C_2  and  C_3
REMARK    3  A    between atoms: C_3  and  C_4
REMARK    4  A    between atoms: C_4  and  C_6
REMARK    5  A    between atoms: C_4  and  O_38
REMARK    6  A    between atoms: C_6  and  N_7
REMARK    7  A    between atoms: N_7  and  C_8
REMARK    8  A    between atoms: N_7  and  C_16
REMARK    9  A    between atoms: C_8  and  C_9
REMARK   10  A    between atoms: C_16  and  C_17
REMARK   11  A    between atoms: C_18  and  C_37
REMARK   12  A    between atoms: N_20  and  C_31
REMARK   13  A    between atoms: C_21  and  O_22
REMARK   14  A    between atoms: O_22  and  C_23
REMARK   15  A    between atoms: C_28  and  O_29
REMARK   16  A    between atoms: O_29  and  C_30
REMARK                            x       y       z     vdW  Elec       q    Type
REMARK                         _______ _______ _______ _____ _____    ______ ____
ROOT
ATOM      1  C   UNL     1       1.796  -4.024   4.729  0.00  0.00    +0.021 A 
ATOM      2  C   UNL     1       1.370  -2.870   5.395  0.00  0.00    +0.065 A 
ATOM      3  N   UNL     1       0.237  -3.132   5.994  0.00  0.00    -0.168 NA
ATOM      4  N   UNL     1      -0.104  -4.465   5.731  0.00  0.00    -0.200 N 
ATOM      5  C   UNL     1       0.869  -4.995   4.943  0.00  0.00    +0.225 A 
ATOM      6  C   UNL     1       2.095  -1.549   5.420  0.00  0.00    +0.068 C 
ENDROOT
BRANCH   4   7
ATOM      7  C   UNL     1      -1.248  -5.132   6.193  0.00  0.00    +0.069 A 
ATOM      8  C   UNL     1      -1.934  -5.999   5.354  0.00  0.00    +0.028 A 
ATOM      9  C   UNL     1      -3.060  -6.654   5.812  0.00  0.00    +0.002 A 
ATOM     10  C   UNL     1      -3.505  -6.447   7.105  0.00  0.00    +0.000 A 
ATOM     11  C   UNL     1      -2.824  -5.584   7.943  0.00  0.00    +0.002 A 
ATOM     12  C   UNL     1      -1.693  -4.931   7.493  0.00  0.00    +0.028 A 
ENDBRANCH   4   7
BRANCH   1  13
ATOM     13  C   UNL     1       3.054  -4.163   3.912  0.00  0.00    -0.035 C 
BRANCH  13  14
ATOM     14  N   UNL     1       2.775  -3.801   2.516  0.00  0.00    +0.387 N 
ATOM     15  H   UNL     1       2.007  -4.358   2.171  0.00  0.00    -0.081 HD
BRANCH  14  16
ATOM     16  C   UNL     1       2.418  -2.378   2.441  0.00  0.00    -0.046 C 
BRANCH  16  17
ATOM     17  C   UNL     1       1.987  -2.034   1.014  0.00  0.00    +0.098 C 
BRANCH  17  18
ATOM     18  O   UNL     1       0.853  -2.826   0.654  0.00  0.00    -0.394 OA
ATOM     19  H   UNL     1       0.084  -2.692   1.225  0.00  0.00    +0.210 HD
ENDBRANCH  17  18
BRANCH  17  20
ATOM     20  C   UNL     1       1.619  -0.551   0.934  0.00  0.00    +0.029 C 
BRANCH  20  22
ATOM     21  C   UNL     1       0.941   1.304  -0.596  0.00  0.00    +0.004 C 
ATOM     22  C   UNL     1       1.309  -0.179  -0.517  0.00  0.00    -0.001 C 
ENDBRANCH  20  22
ENDBRANCH  17  20
ENDBRANCH  16  17
ENDBRANCH  14  16
BRANCH  14  23
ATOM     23  C   UNL     1       3.968  -4.050   1.697  0.00  0.00    -0.042 C 
BRANCH  23  24
ATOM     24  C   UNL     1       4.251  -5.530   1.658  0.00  0.00    -0.064 A 
ATOM     25  C   UNL     1       5.157  -6.084   2.543  0.00  0.00    +0.004 A 
ATOM     26  C   UNL     1       5.417  -7.441   2.508  0.00  0.00    +0.038 A 
ATOM     27  C   UNL     1       4.768  -8.246   1.587  0.00  0.00    +0.123 A 
ATOM     28  C   UNL     1       3.860  -7.690   0.702  0.00  0.00    +0.038 A 
ATOM     29  C   UNL     1       3.598  -6.334   0.742  0.00  0.00    +0.004 A 
ATOM     30  F   UNL     1       5.021  -9.572   1.553  0.00  0.00    -0.205 F 
ENDBRANCH  23  24
ENDBRANCH  14  23
ENDBRANCH  13  14
ENDBRANCH   1  13
BRANCH   5  31
ATOM     31  O   UNL     1       0.910  -6.264   4.462  0.00  0.00    -0.434 OA
BRANCH  31  32
ATOM     32  C   UNL     1       1.464  -7.227   5.245  0.00  0.00    +0.172 A 
ATOM     33  C   UNL     1       1.871  -6.923   6.535  0.00  0.00    +0.050 A 
ATOM     34  C   UNL     1       2.434  -7.903   7.331  0.00  0.00    +0.004 A 
ATOM     35  C   UNL     1       2.592  -9.188   6.843  0.00  0.00    +0.004 A 
ATOM     36  C   UNL     1       2.189  -9.497   5.558  0.00  0.00    +0.049 A 
ATOM     37  C   UNL     1       1.619  -8.521   4.757  0.00  0.00    +0.162 A 
BRANCH  37  38
ATOM     38  O   UNL     1       1.216  -8.825   3.494  0.00  0.00    -0.491 OA
ATOM     39  C   UNL     1       1.405 -10.173   3.059  0.00  0.00    +0.277 C 
ENDBRANCH  37  38
ENDBRANCH  31  32
ENDBRANCH   5  31
TORSDOF 13
