REMARK  Name = ZINC23178220
REMARK  12 active torsions:
REMARK  status: ('A' for Active; 'I' for Inactive)
REMARK    1  A    between atoms: C_1  and  O_2
REMARK    2  A    between atoms: O_2  and  C_3
REMARK    3  A    between atoms: C_6  and  C_9
REMARK    4  A    between atoms: C_9  and  C_11
REMARK    5  A    between atoms: C_9  and  N_30
REMARK    6  A    between atoms: C_11  and  N_12
REMARK    7  A    between atoms: C_13  and  C_15
REMARK    8  A    between atoms: C_15  and  C_16
REMARK    9  A    between atoms: C_16  and  C_17
REMARK   10  A    between atoms: C_20  and  S_23
REMARK   11  A    between atoms: S_23  and  N_26
REMARK   12  A    between atoms: N_26  and  C_27
REMARK                            x       y       z     vdW  Elec       q    Type
REMARK                         _______ _______ _______ _____ _____    ______ ____
ROOT
ATOM      1  N   UNL     1      -0.326   2.198  -3.814  0.00  0.00    -0.317 N 
ATOM      2  C   UNL     1       0.333   2.445  -2.664  0.00  0.00    +0.213 C 
ATOM      3  O   UNL     1       1.521   2.214  -2.584  0.00  0.00    -0.276 OA
ATOM      4  H   UNL     1      -1.403   2.407  -3.887  0.00  0.00    +0.149 HD
ENDROOT
BRANCH   1   5
ATOM      5  C   UNL     1       0.394   1.651  -4.967  0.00  0.00    +0.093 C 
BRANCH   5   6
ATOM      6  C   UNL     1      -0.578   1.467  -6.134  0.00  0.00    -0.020 C 
BRANCH   6   7
ATOM      7  N   UNL     1      -1.710   0.636  -5.702  0.00  0.00    +0.385 N 
ATOM      8  C   UNL     1      -1.256  -0.702  -5.299  0.00  0.00    -0.078 C 
ATOM      9  C   UNL     1      -2.435  -1.488  -4.721  0.00  0.00    -0.019 C 
ATOM     10  C   UNL     1      -3.537  -1.599  -5.778  0.00  0.00    -0.004 C 
ATOM     11  C   UNL     1      -3.957  -0.193  -6.215  0.00  0.00    -0.019 C 
ATOM     12  C   UNL     1      -2.734   0.556  -6.751  0.00  0.00    -0.078 C 
ATOM     13  H   UNL     1      -2.166   1.114  -4.823  0.00  0.00    -0.081 HD
ENDBRANCH   6   7
BRANCH   6  17
ATOM     14  C   UNL     1       1.439  -0.447  -9.379  0.00  0.00    +0.120 A 
ATOM     15  C   UNL     1       0.714   0.714  -9.600  0.00  0.00    +0.046 A 
ATOM     16  C   UNL     1       0.062   1.331  -8.550  0.00  0.00    +0.005 A 
ATOM     17  C   UNL     1       0.133   0.792  -7.278  0.00  0.00    -0.059 A 
ATOM     18  C   UNL     1       0.860  -0.363  -7.054  0.00  0.00    +0.005 A 
ATOM     19  C   UNL     1       1.509  -0.986  -8.102  0.00  0.00    +0.046 A 
BRANCH  14  21
ATOM     20  C   UNL     1       2.809  -2.248 -10.109  0.00  0.00    +0.277 C 
ATOM     21  O   UNL     1       2.082  -1.056 -10.411  0.00  0.00    -0.495 OA
ENDBRANCH  14  21
ENDBRANCH   6  17
ENDBRANCH   5   6
ENDBRANCH   1   5
BRANCH   2  22
ATOM     22  C   UNL     1      -0.408   3.007  -1.478  0.00  0.00    +0.100 C 
BRANCH  22  23
ATOM     23  C   UNL     1       0.564   3.191  -0.311  0.00  0.00    +0.044 C 
BRANCH  23  24
ATOM     24  C   UNL     1      -0.176   3.753   0.875  0.00  0.00    -0.047 A 
ATOM     25  C   UNL     1      -0.270   5.122   1.046  0.00  0.00    +0.005 A 
ATOM     26  C   UNL     1      -0.953   5.638   2.132  0.00  0.00    +0.029 A 
ATOM     27  C   UNL     1      -1.533   4.785   3.052  0.00  0.00    +0.105 A 
ATOM     28  C   UNL     1      -1.435   3.416   2.884  0.00  0.00    +0.029 A 
ATOM     29  C   UNL     1      -0.756   2.900   1.796  0.00  0.00    +0.005 A 
BRANCH  27  30
ATOM     30  S   UNL     1      -2.399   5.442   4.439  0.00  0.00    +0.059 S 
ATOM     31  O   UNL     1      -2.814   6.751   4.075  0.00  0.00    -0.153 OA
ATOM     32  O   UNL     1      -3.316   4.440   4.857  0.00  0.00    -0.153 OA
BRANCH  30  33
ATOM     33  N   UNL     1      -1.299   5.617   5.665  0.00  0.00    -0.187 NA
ATOM     34  H   UNL     1      -1.308   4.903   6.502  0.00  0.00    +0.148 HD
BRANCH  33  35
ATOM     35  C   UNL     1      -0.194   6.570   5.527  0.00  0.00    +0.077 C 
ATOM     36  C   UNL     1       1.139   6.205   6.182  0.00  0.00    +0.022 C 
ATOM     37  C   UNL     1       0.266   7.305   6.787  0.00  0.00    +0.022 C 
ENDBRANCH  33  35
ENDBRANCH  30  33
ENDBRANCH  27  30
ENDBRANCH  23  24
ENDBRANCH  22  23
ENDBRANCH   2  22
TORSDOF 11
