REMARK  Name = ZINC02910946
REMARK  10 active torsions:
REMARK  status: ('A' for Active; 'I' for Inactive)
REMARK    1  A    between atoms: C_1  and  C_2
REMARK    2  A    between atoms: C_2  and  C_3
REMARK    3  A    between atoms: C_3  and  N_4
REMARK    4  A    between atoms: C_11  and  C_28
REMARK    5  A    between atoms: C_12  and  C_14
REMARK    6  A    between atoms: C_19  and  C_27
REMARK    7  A    between atoms: C_20  and  C_22
REMARK    8  A    between atoms: C_22  and  O_24
REMARK    9  A    between atoms: O_24  and  C_25
REMARK   10  A    between atoms: C_25  and  C_26
REMARK                            x       y       z     vdW  Elec       q    Type
REMARK                         _______ _______ _______ _____ _____    ______ ____
ROOT
ATOM      1  C   UNL     1      -5.089   2.026   0.061  0.00  0.00    +0.257 C 
ATOM      2  O   UNL     1      -5.466   0.869   0.060  0.00  0.00    -0.269 OA
ATOM      3  N   UNL     1      -5.990   3.028   0.074  0.00  0.00    -0.260 N 
ATOM      4  C   UNL     1      -7.342   2.742   0.086  0.00  0.00    +0.166 A 
ATOM      5  N   UNL     1      -8.367   3.581   0.105  0.00  0.00    -0.229 NA
ATOM      6  C   UNL     1      -9.602   3.154   0.109  0.00  0.00    +0.062 A 
ATOM      7  C   UNL     1      -9.812   1.782   0.105  0.00  0.00    +0.120 A 
ATOM      8  S   UNL     1      -8.125   1.192   0.087  0.00  0.00    -0.045 S 
ATOM      9  C   UNL     1     -10.759   4.119   0.124  0.00  0.00    +0.067 C 
ATOM     10  H   UNL     1      -5.649   4.074   0.076  0.00  0.00    +0.157 HD
ENDROOT
BRANCH   1  19
ATOM     11  N   UNL     1       1.133   1.921   0.002  0.00  0.00    -0.299 N 
ATOM     12  C   UNL     1       1.126   3.276   0.008  0.00  0.00    +0.203 A 
ATOM     13  N   UNL     1       0.015   3.961   0.021  0.00  0.00    -0.230 NA
ATOM     14  C   UNL     1      -1.170   3.364   0.030  0.00  0.00    +0.116 A 
ATOM     15  C   UNL     1      -1.296   1.956   0.019  0.00  0.00    +0.076 A 
ATOM     16  C   UNL     1      -0.014   1.214   0.009  0.00  0.00    +0.262 A 
ATOM     17  O   UNL     1       0.002  -0.004   0.002  0.00  0.00    -0.267 OA
ATOM     18  C   UNL     1      -2.602   1.462   0.035  0.00  0.00    -0.017 A 
ATOM     19  C   UNL     1      -3.656   2.329   0.049  0.00  0.00    +0.080 A 
ATOM     20  S   UNL     1      -2.854   3.924   0.049  0.00  0.00    -0.064 S 
ATOM     21  C   UNL     1      -2.847  -0.025   0.032  0.00  0.00    +0.046 C 
BRANCH  11  22
ATOM     22  C   UNL     1       2.413   1.210  -0.014  0.00  0.00    +0.126 C 
BRANCH  22  24
ATOM     23  C   UNL     1       4.183   0.227  -1.478  0.00  0.00    +0.005 C 
ATOM     24  C   UNL     1       2.846   0.969  -1.462  0.00  0.00    +0.018 C 
ENDBRANCH  22  24
ENDBRANCH  11  22
ENDBRANCH   1  19
BRANCH   7  25
ATOM     25  C   UNL     1     -11.064   1.028   0.113  0.00  0.00    +0.348 C 
ATOM     26  O   UNL     1     -12.128   1.618   0.126  0.00  0.00    -0.244 OA
BRANCH  25  27
ATOM     27  O   UNL     1     -11.040  -0.321   0.107  0.00  0.00    -0.461 OA
BRANCH  27  28
ATOM     28  C   UNL     1     -12.301  -0.992   0.116  0.00  0.00    +0.229 C 
ATOM     29  C   UNL     1     -12.074  -2.505   0.107  0.00  0.00    +0.048 C 
ENDBRANCH  27  28
ENDBRANCH  25  27
ENDBRANCH   7  25
TORSDOF 6
