REMARK  Name = ZINC01785262
REMARK  12 active torsions:
REMARK  status: ('A' for Active; 'I' for Inactive)
REMARK    1  A    between atoms: C_1  and  C_2
REMARK    2  A    between atoms: C_2  and  O_3
REMARK    3  A    between atoms: O_3  and  C_4
REMARK    4  A    between atoms: C_7  and  N_10
REMARK    5  A    between atoms: C_11  and  C_13
REMARK    6  A    between atoms: C_13  and  C_15
REMARK    7  A    between atoms: C_13  and  O_16
REMARK    8  A    between atoms: O_16  and  C_17
REMARK    9  A    between atoms: C_20  and  C_23
REMARK   10  A    between atoms: N_25  and  C_26
REMARK   11  A    between atoms: C_27  and  C_37
REMARK   12  A    between atoms: C_32  and  C_36
REMARK                            x       y       z     vdW  Elec       q    Type
REMARK                         _______ _______ _______ _____ _____    ______ ____
ROOT
ATOM      1  C   UNL     1       3.481   1.385   0.735  0.00  0.00    +0.122 A 
ATOM      2  C   UNL     1       3.498   2.506   1.556  0.00  0.00    +0.046 A 
ATOM      3  C   UNL     1       4.694   3.004   2.021  0.00  0.00    +0.016 A 
ATOM      4  C   UNL     1       5.894   2.388   1.656  0.00  0.00    +0.037 A 
ATOM      5  C   UNL     1       5.874   1.263   0.826  0.00  0.00    +0.016 A 
ATOM      6  C   UNL     1       4.672   0.768   0.371  0.00  0.00    +0.046 A 
ENDROOT
BRANCH   4   7
ATOM      7  C   UNL     1       7.179   2.921   2.147  0.00  0.00    +0.249 C 
ATOM      8  O   UNL     1       8.222   2.383   1.830  0.00  0.00    -0.270 OA
ATOM      9  N   UNL     1       7.197   4.005   2.948  0.00  0.00    -0.275 N 
ATOM     10  H   UNL     1       6.365   4.435   3.201  0.00  0.00    +0.156 HD
BRANCH   9  11
ATOM     11  C   UNL     1       8.403   4.506   3.409  0.00  0.00    +0.085 A 
ATOM     12  C   UNL     1       8.625   5.605   4.228  0.00  0.00    +0.068 A 
ATOM     13  C   UNL     1      10.001   5.920   4.572  0.00  0.00    -0.023 A 
ATOM     14  C   UNL     1      10.930   5.098   4.037  0.00  0.00    -0.004 A 
ATOM     15  S   UNL     1      10.003   3.919   3.096  0.00  0.00    -0.077 S 
ATOM     16  C   UNL     1      12.415   5.180   4.210  0.00  0.00    +0.046 C 
ATOM     17  C   UNL     1      12.713   6.113   5.393  0.00  0.00    -0.009 C 
ATOM     18  C   UNL     1      11.887   7.392   5.232  0.00  0.00    +0.008 C 
ATOM     19  C   UNL     1      10.406   7.087   5.463  0.00  0.00    +0.037 C 
ATOM     20  C   UNL     1      14.203   6.460   5.409  0.00  0.00    +0.008 C 
BRANCH  12  21
ATOM     21  C   UNL     1       7.511   6.415   4.731  0.00  0.00    +0.244 C 
ATOM     22  O   UNL     1       6.982   6.131   5.790  0.00  0.00    -0.270 OA
ATOM     23  N   UNL     1       7.073   7.473   4.022  0.00  0.00    -0.325 N 
ATOM     24  H   UNL     1       7.495   7.700   3.178  0.00  0.00    +0.145 HD
ATOM     25  H   UNL     1       6.336   8.009   4.354  0.00  0.00    +0.145 HD
ENDBRANCH  12  21
ENDBRANCH   9  11
ENDBRANCH   4   7
BRANCH   1  26
ATOM     26  O   UNL     1       2.299   0.894   0.283  0.00  0.00    -0.480 OA
BRANCH  26  27
ATOM     27  C   UNL     1       2.360  -0.186  -0.650  0.00  0.00    +0.256 C 
ATOM     28  C   UNL     1       2.490  -1.508   0.109  0.00  0.00    +0.062 C 
BRANCH  27  30
ATOM     29  N   UNL     1       0.933  -1.148  -2.427  0.00  0.00    -0.282 N 
ATOM     30  C   UNL     1       1.101  -0.205  -1.479  0.00  0.00    +0.258 C 
ATOM     31  O   UNL     1       0.238   0.625  -1.290  0.00  0.00    -0.271 OA
ATOM     32  H   UNL     1       1.650  -1.771  -2.624  0.00  0.00    +0.155 HD
BRANCH  29  36
ATOM     33  C   UNL     1      -2.669  -1.389  -4.513  0.00  0.00    +0.121 A 
ATOM     34  C   UNL     1      -2.165  -0.151  -4.140  0.00  0.00    +0.047 A 
ATOM     35  C   UNL     1      -0.973  -0.071  -3.449  0.00  0.00    +0.027 A 
ATOM     36  C   UNL     1      -0.277  -1.229  -3.128  0.00  0.00    +0.034 A 
ATOM     37  C   UNL     1      -0.779  -2.467  -3.506  0.00  0.00    +0.027 A 
ATOM     38  C   UNL     1      -1.975  -2.546  -4.192  0.00  0.00    +0.047 A 
BRANCH  33  39
ATOM     39  O   UNL     1      -3.843  -1.467  -5.194  0.00  0.00    -0.492 OA
BRANCH  39  41
ATOM     40  C   UNL     1      -5.629  -2.662  -6.302  0.00  0.00    +0.048 C 
ATOM     41  C   UNL     1      -4.303  -2.774  -5.547  0.00  0.00    +0.225 C 
ENDBRANCH  39  41
ENDBRANCH  33  39
ENDBRANCH  29  36
ENDBRANCH  27  30
ENDBRANCH  26  27
ENDBRANCH   1  26
TORSDOF 9
