REMARK  Name = ZINC28956780
REMARK  8 active torsions:
REMARK  status: ('A' for Active; 'I' for Inactive)
REMARK    1  A    between atoms: C_1  and  N_2
REMARK    2  A    between atoms: C_6  and  C_7
REMARK    3  A    between atoms: C_11  and  C_32
REMARK    4  A    between atoms: C_16  and  C_18
REMARK    5  A    between atoms: C_18  and  C_19
REMARK    6  A    between atoms: C_19  and  C_21
REMARK    7  A    between atoms: C_19  and  N_31
REMARK    8  A    between atoms: C_21  and  C_22
REMARK                            x       y       z     vdW  Elec       q    Type
REMARK                         _______ _______ _______ _____ _____    ______ ____
ROOT
ATOM      1  C   UNL     1       3.397   0.279  -0.637  0.00  0.00    +0.150 C 
ATOM      2  N   UNL     1       1.940   0.382  -0.516  0.00  0.00    -0.327 N 
ATOM      3  C   UNL     1       1.226   1.515  -0.270  0.00  0.00    +0.045 A 
ATOM      4  C   UNL     1      -0.077   1.161  -0.244  0.00  0.00    +0.084 A 
ATOM      5  N   UNL     1      -0.155  -0.153  -0.463  0.00  0.00    -0.227 NA
ATOM      6  C   UNL     1       1.051  -0.632  -0.628  0.00  0.00    +0.215 A 
ATOM      7  C   UNL     1      -1.206   2.136  -0.007  0.00  0.00    +0.130 C 
ATOM      8  N   UNL     1      -0.603   3.402   0.448  0.00  0.00    -0.292 N 
ATOM      9  C   UNL     1       0.587   3.903  -0.257  0.00  0.00    +0.114 C 
ATOM     10  C   UNL     1       1.742   2.914  -0.057  0.00  0.00    +0.074 C 
ATOM     11  C   UNL     1      -1.129   4.084   1.484  0.00  0.00    +0.215 C 
ATOM     12  O   UNL     1      -2.169   3.715   1.988  0.00  0.00    -0.276 OA
ENDROOT
BRANCH   6  13
ATOM     13  C   UNL     1       1.393  -2.074  -0.900  0.00  0.00    +0.451 C 
ATOM     14  F   UNL     1       0.238  -2.763  -1.285  0.00  0.00    -0.163 F 
ATOM     15  F   UNL     1       2.341  -2.143  -1.926  0.00  0.00    -0.163 F 
ATOM     16  F   UNL     1       1.918  -2.655   0.260  0.00  0.00    -0.163 F 
ENDBRANCH   6  13
BRANCH   7  17
ATOM     17  C   UNL     1      -2.147   1.592   1.069  0.00  0.00    +0.016 C 
ATOM     18  C   UNL     1      -1.577   0.572   2.056  0.00  0.00    +0.006 C 
ATOM     19  C   UNL     1      -2.557   0.121   0.970  0.00  0.00    +0.006 C 
ENDBRANCH   7  17
BRANCH  11  20
ATOM     20  C   UNL     1      -0.425   5.305   2.018  0.00  0.00    +0.080 C 
BRANCH  20  21
ATOM     21  C   UNL     1      -1.226   5.886   3.185  0.00  0.00    -0.062 C 
BRANCH  21  22
ATOM     22  N   UNL     1      -2.524   6.369   2.695  0.00  0.00    +0.381 N 
ATOM     23  H   UNL     1      -3.100   6.787   3.534  0.00  0.00    -0.090 HD
ATOM     24  H   UNL     1      -3.082   5.532   2.248  0.00  0.00    -0.090 HD
ATOM     25  H   UNL     1      -2.363   7.149   1.937  0.00  0.00    -0.090 HD
ENDBRANCH  21  22
BRANCH  21  26
ATOM     26  C   UNL     1      -0.451   7.050   3.807  0.00  0.00    +0.022 C 
BRANCH  26  27
ATOM     27  C   UNL     1      -1.180   7.543   5.030  0.00  0.00    -0.011 A 
ATOM     28  C   UNL     1      -0.761   7.152   6.288  0.00  0.00    +0.047 A 
ATOM     29  C   UNL     1      -1.430   7.604   7.412  0.00  0.00    +0.159 A 
ATOM     30  C   UNL     1      -2.521   8.449   7.275  0.00  0.00    +0.161 A 
ATOM     31  C   UNL     1      -2.940   8.840   6.016  0.00  0.00    +0.080 A 
ATOM     32  C   UNL     1      -2.265   8.391   4.893  0.00  0.00    +0.129 A 
ATOM     33  F   UNL     1      -2.670   8.777   3.663  0.00  0.00    -0.205 F 
ATOM     34  F   UNL     1      -3.175   8.892   8.372  0.00  0.00    -0.202 F 
ATOM     35  F   UNL     1      -1.020   7.222   8.641  0.00  0.00    -0.202 F 
ENDBRANCH  26  27
ENDBRANCH  21  26
ENDBRANCH  20  21
ENDBRANCH  11  20
TORSDOF 7
