REMARK  Name = ZINC67463551
REMARK  9 active torsions:
REMARK  status: ('A' for Active; 'I' for Inactive)
REMARK    1  A    between atoms: C_1  and  C_2
REMARK    2  A    between atoms: C_7  and  N_12
REMARK    3  A    between atoms: C_9  and  C_11
REMARK    4  A    between atoms: N_12  and  C_13
REMARK    5  A    between atoms: C_13  and  N_15
REMARK    6  A    between atoms: N_15  and  N_16
REMARK    7  A    between atoms: C_17  and  C_19
REMARK    8  A    between atoms: C_21  and  N_26
REMARK    9  A    between atoms: C_27  and  C_29
REMARK                            x       y       z     vdW  Elec       q    Type
REMARK                         _______ _______ _______ _____ _____    ______ ____
ROOT
ATOM      1  N   UNL     1       2.816  -3.397   4.642  0.00  0.00    -0.231 N 
ATOM      2  C   UNL     1       3.476  -3.843   5.728  0.00  0.00    +0.263 C 
ATOM      3  O   UNL     1       3.245  -4.953   6.168  0.00  0.00    -0.269 OA
ATOM      4  H   UNL     1       3.001  -2.511   4.291  0.00  0.00    +0.173 HD
ENDROOT
BRANCH   2   5
ATOM      5  C   UNL     1       4.482  -2.984   6.386  0.00  0.00    +0.075 A 
ATOM      6  C   UNL     1       4.746  -1.707   5.887  0.00  0.00    +0.039 A 
ATOM      7  C   UNL     1       5.690  -0.907   6.509  0.00  0.00    +0.034 A 
ATOM      8  C   UNL     1       6.373  -1.375   7.626  0.00  0.00    +0.026 A 
ATOM      9  C   UNL     1       6.115  -2.638   8.121  0.00  0.00    +0.041 A 
ATOM     10  C   UNL     1       5.169  -3.444   7.513  0.00  0.00    +0.136 A 
ATOM     11  F   UNL     1       4.915  -4.676   8.004  0.00  0.00    -0.205 F 
BRANCH   7  12
ATOM     12  N   UNL     1       5.958   0.375   6.011  0.00  0.00    -0.286 N 
ATOM     13  C   UNL     1       6.256   1.378   6.860  0.00  0.00    +0.214 C 
ATOM     14  O   UNL     1       6.375   1.154   8.046  0.00  0.00    -0.276 OA
ATOM     15  C   UNL     1       6.441   2.779   6.335  0.00  0.00    +0.109 C 
ATOM     16  H   UNL     1       5.929   0.540   5.056  0.00  0.00    +0.155 HD
ENDBRANCH   7  12
ENDBRANCH   2   5
BRANCH   1  17
ATOM     17  N   UNL     1       1.862  -4.212   4.018  0.00  0.00    -0.246 N 
ATOM     18  H   UNL     1       1.677  -5.097   4.369  0.00  0.00    +0.172 HD
BRANCH  17  19
ATOM     19  C   UNL     1       1.201  -3.766   2.932  0.00  0.00    +0.147 C 
ATOM     20  S   UNL     1       0.035  -4.762   2.170  0.00  0.00    -0.017 S 
BRANCH  19  21
ATOM     21  N   UNL     1       1.458  -2.536   2.445  0.00  0.00    -0.322 N 
ATOM     22  H   UNL     1       2.118  -1.971   2.876  0.00  0.00    +0.148 HD
BRANCH  21  28
ATOM     23  C   UNL     1      -0.063   1.515   0.053  0.00  0.00    +0.008 C 
ATOM     24  C   UNL     1      -0.037  -0.015   0.041  0.00  0.00    -0.009 C 
ATOM     25  C   UNL     1       0.673  -0.503  -1.223  0.00  0.00    +0.003 C 
ATOM     26  C   UNL     1       0.699  -2.033  -1.234  0.00  0.00    +0.002 C 
ATOM     27  C   UNL     1       1.449  -2.539  -0.001  0.00  0.00    +0.022 C 
ATOM     28  C   UNL     1       0.740  -2.051   1.264  0.00  0.00    +0.075 C 
ATOM     29  C   UNL     1       0.713  -0.521   1.275  0.00  0.00    +0.009 C 
ATOM     30  C   UNL     1       0.004  -0.033   2.539  0.00  0.00    +0.009 C 
ENDBRANCH  21  28
ENDBRANCH  19  21
ENDBRANCH  17  19
ENDBRANCH   1  17
TORSDOF 6
