REMARK  Name = ZINC12361978
REMARK  7 active torsions:
REMARK  status: ('A' for Active; 'I' for Inactive)
REMARK    1  A    between atoms: C_2  and  C_3
REMARK    2  A    between atoms: C_3  and  N_4
REMARK    3  A    between atoms: C_19  and  S_28
REMARK    4  A    between atoms: C_23  and  N_27
REMARK    5  A    between atoms: C_24  and  C_25
REMARK    6  A    between atoms: S_28  and  C_29
REMARK    7  A    between atoms: C_29  and  C_30
REMARK                            x       y       z     vdW  Elec       q    Type
REMARK                         _______ _______ _______ _____ _____    ______ ____
ROOT
ATOM      1  N   UNL     1      -3.337   0.262  -0.190  0.00  0.00    -0.258 N 
ATOM      2  C   UNL     1      -3.176  -0.052   1.148  0.00  0.00    +0.042 A 
ATOM      3  C   UNL     1      -4.038   0.179   2.222  0.00  0.00    +0.024 A 
ATOM      4  C   UNL     1      -3.619  -0.246   3.473  0.00  0.00    +0.002 A 
ATOM      5  C   UNL     1      -2.404  -0.872   3.663  0.00  0.00    +0.000 A 
ATOM      6  C   UNL     1      -1.537  -1.108   2.601  0.00  0.00    +0.007 A 
ATOM      7  C   UNL     1      -1.947  -0.688   1.354  0.00  0.00    -0.001 A 
ATOM      8  C   UNL     1      -1.286  -0.775   0.013  0.00  0.00    +0.145 C 
ATOM      9  C   UNL     1      -2.279  -0.125  -0.931  0.00  0.00    +0.241 C 
ATOM     10  O   UNL     1      -2.146   0.020  -2.128  0.00  0.00    -0.273 OA
ATOM     11  C   UNL     1       0.002  -0.004   0.002  0.00  0.00    +0.081 A 
ATOM     12  C   UNL     1      -0.017   1.395   0.010  0.00  0.00    +0.259 A 
ATOM     13  O   UNL     1      -1.076   2.002   0.018  0.00  0.00    -0.267 OA
ATOM     14  N   UNL     1       1.157   2.062   0.002  0.00  0.00    -0.302 N 
ATOM     15  H   UNL     1       1.163   3.032   0.005  0.00  0.00    +0.171 HD
ATOM     16  C   UNL     1       2.333   1.374  -0.011  0.00  0.00    +0.171 A 
ATOM     17  N   UNL     1       2.357   0.057  -0.018  0.00  0.00    -0.208 NA
ATOM     18  C   UNL     1       1.224  -0.655  -0.014  0.00  0.00    +0.137 A 
ATOM     19  N   UNL     1       1.275  -2.037  -0.031  0.00  0.00    -0.287 N 
ATOM     20  C   UNL     1       0.166  -2.767  -0.386  0.00  0.00    +0.102 C 
ATOM     21  C   UNL     1      -1.071  -2.206  -0.383  0.00  0.00    +0.089 C 
ATOM     22  H   UNL     1       2.097  -2.493   0.209  0.00  0.00    +0.155 HD
ENDROOT
BRANCH  20  23
ATOM     23  N   UNL     1       0.311  -4.084  -0.750  0.00  0.00    -0.346 N 
ATOM     24  H   UNL     1       1.191  -4.492  -0.754  0.00  0.00    +0.144 HD
ATOM     25  H   UNL     1      -0.467  -4.606  -1.002  0.00  0.00    +0.144 HD
ENDBRANCH  20  23
BRANCH  21  26
ATOM     26  C   UNL     1      -2.198  -3.000  -0.768  0.00  0.00    +0.100 C 
ATOM     27  N   UNL     1      -3.092  -3.631  -1.073  0.00  0.00    -0.191 NA
ENDBRANCH  21  26
BRANCH   1  28
ATOM     28  C   UNL     1      -4.518   0.935  -0.737  0.00  0.00    +0.202 C 
BRANCH  28  30
ATOM     29  C   UNL     1      -4.146   3.554  -0.678  0.00  0.00    +0.005 C 
ATOM     30  C   UNL     1      -4.311   2.392  -0.704  0.00  0.00    -0.086 C 
ENDBRANCH  28  30
ENDBRANCH   1  28
BRANCH  16  31
ATOM     31  S   UNL     1       3.853   2.265  -0.017  0.00  0.00    -0.083 S 
BRANCH  31  32
ATOM     32  C   UNL     1       5.025   0.886  -0.033  0.00  0.00    +0.114 C 
BRANCH  32  33
ATOM     33  C   UNL     1       6.433   1.423  -0.041  0.00  0.00    -0.019 A 
ATOM     34  C   UNL     1       7.072   1.671  -1.242  0.00  0.00    +0.006 A 
ATOM     35  C   UNL     1       8.362   2.168  -1.249  0.00  0.00    +0.000 A 
ATOM     36  C   UNL     1       9.017   2.409  -0.055  0.00  0.00    +0.001 A 
ATOM     37  C   UNL     1       8.381   2.156   1.145  0.00  0.00    +0.020 A 
ATOM     38  C   UNL     1       7.088   1.663   1.153  0.00  0.00    +0.045 A 
ATOM     39 CL   UNL     1       6.289   1.346   2.661  0.00  0.00    -0.083 Cl
ENDBRANCH  32  33
ENDBRANCH  31  32
ENDBRANCH  16  31
TORSDOF 7
