REMARK  Name = ZINC35843324
REMARK  5 active torsions:
REMARK  status: ('A' for Active; 'I' for Inactive)
REMARK    1  A    between atoms: C_1  and  C_2
REMARK    2  A    between atoms: C_4  and  C_36
REMARK    3  A    between atoms: N_21  and  C_24
REMARK    4  A    between atoms: C_29  and  O_30
REMARK    5  A    between atoms: O_30  and  C_31
REMARK                            x       y       z     vdW  Elec       q    Type
REMARK                         _______ _______ _______ _____ _____    ______ ____
ROOT
ATOM      1  C   UNL     1      -0.018   1.503   0.010  0.00  0.00    +0.044 C 
ATOM      2  C   UNL     1       0.002  -0.004   0.002  0.00  0.00    -0.050 A 
ATOM      3  C   UNL     1       0.006  -0.691  -1.199  0.00  0.00    +0.008 A 
ATOM      4  C   UNL     1       0.024  -2.070  -1.212  0.00  0.00    -0.029 A 
ATOM      5  C   UNL     1       0.039  -2.782  -0.015  0.00  0.00    +0.039 A 
ATOM      6  C   UNL     1       0.035  -2.081   1.187  0.00  0.00    -0.027 A 
ATOM      7  C   UNL     1       0.023  -0.704   1.195  0.00  0.00    +0.008 A 
ATOM      8  C   UNL     1       0.053  -3.122   2.271  0.00  0.00    +0.053 C 
ATOM      9  C   UNL     1      -1.174  -3.005   3.182  0.00  0.00    +0.089 C 
ATOM     10  C   UNL     1      -0.665  -2.239   4.433  0.00  0.00    +0.074 C 
ATOM     11  C   UNL     1       0.821  -1.950   4.154  0.00  0.00    -0.054 C 
ATOM     12  N   UNL     1       1.232  -2.977   3.141  0.00  0.00    +0.395 N 
ATOM     13  C   UNL     1       1.424  -4.228   3.912  0.00  0.00    -0.076 C 
ATOM     14  C   UNL     1       2.052  -3.786   5.250  0.00  0.00    -0.020 C 
ATOM     15  C   UNL     1       1.647  -2.269   5.414  0.00  0.00    -0.016 C 
ATOM     16  C   UNL     1      -0.792  -3.259   5.542  0.00  0.00    +0.229 C 
ATOM     17  O   UNL     1      -0.496  -3.072   6.703  0.00  0.00    -0.275 OA
ATOM     18  N   UNL     1      -1.283  -4.399   5.043  0.00  0.00    -0.206 N 
ATOM     19  C   UNL     1      -1.544  -4.370   3.716  0.00  0.00    +0.230 C 
ATOM     20  O   UNL     1      -1.997  -5.281   3.057  0.00  0.00    -0.275 OA
ATOM     21  C   UNL     1       0.069  -4.440   1.544  0.00  0.00    +0.212 C 
ATOM     22  O   UNL     1       0.086  -5.544   2.047  0.00  0.00    -0.277 OA
ATOM     23  N   UNL     1       0.059  -4.157   0.228  0.00  0.00    -0.286 N 
ATOM     24  C   UNL     1       0.028  -2.808  -2.526  0.00  0.00    +0.045 C 
ATOM     25  H   UNL     1       0.065  -4.830  -0.470  0.00  0.00    +0.155 HD
ATOM     26  H   UNL     1       2.057  -2.701   2.630  0.00  0.00    -0.079 HD
ENDROOT
BRANCH  18  27
ATOM     27  C   UNL     1      -1.515  -5.536   5.833  0.00  0.00    +0.087 A 
ATOM     28  C   UNL     1      -2.747  -5.719   6.442  0.00  0.00    +0.047 A 
ATOM     29  C   UNL     1      -2.974  -6.840   7.220  0.00  0.00    +0.043 A 
ATOM     30  C   UNL     1      -1.973  -7.780   7.392  0.00  0.00    +0.024 A 
ATOM     31  C   UNL     1      -0.742  -7.603   6.787  0.00  0.00    +0.049 A 
ATOM     32  C   UNL     1      -0.510  -6.485   6.002  0.00  0.00    +0.142 A 
ATOM     33 CL   UNL     1      -4.516  -7.068   7.983  0.00  0.00    -0.083 Cl
BRANCH  32  34
ATOM     34  O   UNL     1       0.698  -6.312   5.403  0.00  0.00    -0.493 OA
ATOM     35  C   UNL     1       1.681  -7.326   5.620  0.00  0.00    +0.277 C 
ENDBRANCH  32  34
ENDBRANCH  18  27
TORSDOF 2
