REMARK  Name = ZINC36051384
REMARK  11 active torsions:
REMARK  status: ('A' for Active; 'I' for Inactive)
REMARK    1  A    between atoms: C_1  and  C_2
REMARK    2  A    between atoms: C_5  and  N_8
REMARK    3  A    between atoms: C_10  and  C_31
REMARK    4  A    between atoms: C_14  and  C_16
REMARK    5  A    between atoms: C_16  and  N_17
REMARK    6  A    between atoms: N_17  and  C_18
REMARK    7  A    between atoms: C_18  and  C_19
REMARK    8  A    between atoms: C_19  and  C_20
REMARK    9  A    between atoms: C_19  and  C_21
REMARK   10  A    between atoms: C_22  and  C_24
REMARK   11  A    between atoms: C_29  and  C_30
REMARK                            x       y       z     vdW  Elec       q    Type
REMARK                         _______ _______ _______ _____ _____    ______ ____
ROOT
ATOM      1  N   UNL     1      -0.622  -5.047   0.483  0.00  0.00    -0.287 N 
ATOM      2  C   UNL     1      -1.353  -6.035  -0.133  0.00  0.00    +0.122 A 
ATOM      3  C   UNL     1      -0.713  -7.206   0.111  0.00  0.00    +0.091 A 
ATOM      4  N   UNL     1       0.380  -6.938   0.858  0.00  0.00    -0.214 NA
ATOM      5  C   UNL     1       0.446  -5.649   1.080  0.00  0.00    +0.207 A 
ATOM      6  N   UNL     1       1.437  -5.003   1.807  0.00  0.00    -0.254 N 
ATOM      7  C   UNL     1       2.445  -5.712   2.351  0.00  0.00    +0.237 C 
ATOM      8  O   UNL     1       2.487  -6.916   2.205  0.00  0.00    -0.274 OA
ATOM      9  H   UNL     1       1.403  -4.040   1.923  0.00  0.00    +0.158 HD
ENDROOT
BRANCH   1  14
ATOM     10  C   UNL     1      -1.816   0.501   0.513  0.00  0.00    +0.044 C 
ATOM     11  C   UNL     1      -1.499  -0.972   0.505  0.00  0.00    -0.050 A 
ATOM     12  C   UNL     1      -1.492  -1.670  -0.689  0.00  0.00    +0.005 A 
ATOM     13  C   UNL     1      -1.202  -3.020  -0.700  0.00  0.00    +0.026 A 
ATOM     14  C   UNL     1      -0.917  -3.677   0.490  0.00  0.00    +0.049 A 
ATOM     15  C   UNL     1      -0.924  -2.973   1.687  0.00  0.00    +0.026 A 
ATOM     16  C   UNL     1      -1.210  -1.622   1.690  0.00  0.00    +0.005 A 
ENDBRANCH   1  14
BRANCH   3  17
ATOM     17  C   UNL     1      -1.140  -8.547  -0.359  0.00  0.00    +0.002 A 
ATOM     18  C   UNL     1      -2.292  -8.683  -1.131  0.00  0.00    +0.011 A 
ATOM     19  C   UNL     1      -2.685  -9.932  -1.567  0.00  0.00    +0.020 A 
ATOM     20  C   UNL     1      -1.936 -11.049  -1.237  0.00  0.00    +0.041 A 
ATOM     21  C   UNL     1      -0.791 -10.920  -0.470  0.00  0.00    +0.020 A 
ATOM     22  C   UNL     1      -0.387  -9.674  -0.035  0.00  0.00    +0.011 A 
ATOM     23 CL   UNL     1      -2.436 -12.618  -1.787  0.00  0.00    -0.084 Cl
ENDBRANCH   3  17
BRANCH   7  24
ATOM     24  C   UNL     1       3.520  -5.011   3.140  0.00  0.00    +0.204 C 
BRANCH  24  25
ATOM     25  N   UNL     1       4.493  -5.995   3.622  0.00  0.00    -0.288 N 
ATOM     26  C   UNL     1       4.316  -6.587   4.819  0.00  0.00    +0.247 C 
ATOM     27  O   UNL     1       3.306  -6.370   5.461  0.00  0.00    -0.270 OA
BRANCH  26  28
ATOM     28  C   UNL     1       5.349  -7.500   5.352  0.00  0.00    +0.040 A 
ATOM     29  C   UNL     1       5.726  -8.632   4.627  0.00  0.00    +0.013 A 
ATOM     30  C   UNL     1       6.691  -9.479   5.129  0.00  0.00    +0.001 A 
ATOM     31  C   UNL     1       7.284  -9.211   6.351  0.00  0.00    +0.000 A 
ATOM     32  C   UNL     1       6.915  -8.092   7.075  0.00  0.00    +0.004 A 
ATOM     33  C   UNL     1       5.955  -7.232   6.580  0.00  0.00    -0.038 A 
ATOM     34  C   UNL     1       5.558  -6.010   7.368  0.00  0.00    +0.044 C 
ENDBRANCH  26  28
BRANCH  25  35
ATOM     35  C   UNL     1       5.658  -6.335   2.801  0.00  0.00    +0.111 C 
BRANCH  35  36
ATOM     36  C   UNL     1       6.858  -5.497   3.248  0.00  0.00    +0.000 C 
ATOM     37  C   UNL     1       8.104  -5.939   2.478  0.00  0.00    +0.009 C 
ATOM     38  C   UNL     1       6.582  -4.019   2.965  0.00  0.00    +0.009 C 
ENDBRANCH  35  36
ENDBRANCH  25  35
ENDBRANCH  24  25
ENDBRANCH   7  24
TORSDOF 7
