REMARK  Name = ZINC16160795
REMARK  8 active torsions:
REMARK  status: ('A' for Active; 'I' for Inactive)
REMARK    1  A    between atoms: C_1  and  C_2
REMARK    2  A    between atoms: N_4  and  C_22
REMARK    3  A    between atoms: C_5  and  O_6
REMARK    4  A    between atoms: C_7  and  C_8
REMARK    5  A    between atoms: N_9  and  C_10
REMARK    6  A    between atoms: C_13  and  S_19
REMARK    7  A    between atoms: C_15  and  N_16
REMARK    8  A    between atoms: S_19  and  C_20
REMARK                            x       y       z     vdW  Elec       q    Type
REMARK                         _______ _______ _______ _____ _____    ______ ____
ROOT
ATOM      1  C   UNL     1      -0.856   1.460   0.095  0.00  0.00    +0.068 C 
ATOM      2  C   UNL     1      -0.506  -0.005   0.046  0.00  0.00    +0.073 A 
ATOM      3  N   UNL     1      -0.403  -0.732  -1.032  0.00  0.00    -0.168 NA
ATOM      4  N   UNL     1      -0.064  -2.041  -0.674  0.00  0.00    -0.200 N 
ATOM      5  C   UNL     1       0.041  -2.103   0.671  0.00  0.00    +0.225 A 
ATOM      6  C   UNL     1      -0.227  -0.829   1.162  0.00  0.00    +0.077 A 
ENDROOT
BRANCH   4   7
ATOM      7  C   UNL     1       0.134  -3.108  -1.561  0.00  0.00    +0.069 A 
ATOM      8  C   UNL     1       1.091  -4.075  -1.283  0.00  0.00    +0.031 A 
ATOM      9  C   UNL     1       1.284  -5.126  -2.159  0.00  0.00    +0.040 A 
ATOM     10  C   UNL     1       0.524  -5.215  -3.313  0.00  0.00    +0.124 A 
ATOM     11  C   UNL     1      -0.431  -4.252  -3.592  0.00  0.00    +0.040 A 
ATOM     12  C   UNL     1      -0.631  -3.203  -2.716  0.00  0.00    +0.031 A 
ATOM     13  F   UNL     1       0.714  -6.244  -4.167  0.00  0.00    -0.205 F 
ENDBRANCH   4   7
BRANCH   5  14
ATOM     14  O   UNL     1       0.353  -3.198   1.404  0.00  0.00    -0.492 OA
ATOM     15  H   UNL     1       1.301  -3.309   1.560  0.00  0.00    +0.294 HD
ENDBRANCH   5  14
BRANCH   6  16
ATOM     16  C   UNL     1      -0.225  -0.419   2.570  0.00  0.00    +0.126 C 
ATOM     17  N   UNL     1       0.053  -1.289   3.504  0.00  0.00    -0.252 NA
BRANCH  17  18
ATOM     18  C   UNL     1       0.163  -0.884   4.807  0.00  0.00    +0.094 A 
ATOM     19  C   UNL     1       0.938   0.233   5.130  0.00  0.00    +0.031 A 
ATOM     20  C   UNL     1       1.046   0.638   6.442  0.00  0.00    +0.018 A 
ATOM     21  C   UNL     1       0.386  -0.064   7.445  0.00  0.00    +0.025 A 
ATOM     22  C   UNL     1      -0.386  -1.176   7.127  0.00  0.00    +0.050 A 
ATOM     23  C   UNL     1      -0.504  -1.583   5.816  0.00  0.00    +0.152 A 
BRANCH  23  24
ATOM     24  N   UNL     1      -1.331  -2.764   5.478  0.00  0.00    +0.059 N 
ATOM     25  O   UNL     1      -1.907  -3.368   6.352  0.00  0.00    -0.126 OA
ATOM     26  O   UNL     1      -1.430  -3.123   4.328  0.00  0.00    -0.126 OA
ENDBRANCH  23  24
BRANCH  21  27
ATOM     27  S   UNL     1       0.528   0.457   9.122  0.00  0.00    -0.010 S 
BRANCH  27  28
ATOM     28  C   UNL     1       1.589   1.883   9.041  0.00  0.00    +0.138 C 
ATOM     29  N   UNL     1       2.266   2.794   8.989  0.00  0.00    -0.183 NA
ENDBRANCH  27  28
ENDBRANCH  21  27
ENDBRANCH  17  18
ENDBRANCH   6  16
TORSDOF 7
