REMARK  Name = ZINC29150503
REMARK  14 active torsions:
REMARK  status: ('A' for Active; 'I' for Inactive)
REMARK    1  A    between atoms: C_1  and  C_2
REMARK    2  A    between atoms: C_2  and  O_3
REMARK    3  A    between atoms: O_3  and  C_4
REMARK    4  A    between atoms: C_7  and  C_13
REMARK    5  A    between atoms: C_9  and  O_10
REMARK    6  A    between atoms: O_10  and  C_11
REMARK    7  A    between atoms: C_11  and  C_12
REMARK    8  A    between atoms: C_13  and  C_15
REMARK    9  A    between atoms: C_13  and  N_18
REMARK   10  A    between atoms: C_15  and  C_16
REMARK   11  A    between atoms: C_15  and  C_17
REMARK   12  A    between atoms: N_18  and  C_19
REMARK   13  A    between atoms: C_19  and  C_20
REMARK   14  A    between atoms: N_22  and  C_23
REMARK                            x       y       z     vdW  Elec       q    Type
REMARK                         _______ _______ _______ _____ _____    ______ ____
ROOT
ATOM      1  N   UNL     1      -1.390   3.397   0.718  0.00  0.00    +0.389 N 
ATOM      2  H   UNL     1      -0.613   3.321   1.493  0.00  0.00    -0.084 HD
ATOM      3  H   UNL     1      -1.151   4.229   0.040  0.00  0.00    -0.084 HD
ENDROOT
BRANCH   1   4
ATOM      4  C   UNL     1      -1.443   2.143  -0.045  0.00  0.00    -0.038 C 
BRANCH   4   8
ATOM      5  C   UNL     1       2.447   0.370  -0.155  0.00  0.00    +0.162 A 
ATOM      6  C   UNL     1       2.304   1.742  -0.287  0.00  0.00    +0.049 A 
ATOM      7  C   UNL     1       1.045   2.312  -0.249  0.00  0.00    +0.006 A 
ATOM      8  C   UNL     1      -0.073   1.516  -0.080  0.00  0.00    -0.057 A 
ATOM      9  C   UNL     1       0.063   0.147   0.052  0.00  0.00    +0.051 A 
ATOM     10  C   UNL     1       1.322  -0.431   0.015  0.00  0.00    +0.162 A 
BRANCH   5  11
ATOM     11  O   UNL     1       3.684  -0.193  -0.193  0.00  0.00    -0.489 OA
BRANCH  11  13
ATOM     12  C   UNL     1       6.092  -0.118  -0.387  0.00  0.00    +0.048 C 
ATOM     13  C   UNL     1       4.793   0.690  -0.370  0.00  0.00    +0.226 C 
ENDBRANCH  11  13
ENDBRANCH   5  11
BRANCH  10  14
ATOM     14  O   UNL     1       1.457  -1.778   0.146  0.00  0.00    -0.489 OA
BRANCH  14  15
ATOM     15  C   UNL     1       0.259  -2.537   0.318  0.00  0.00    +0.226 C 
ATOM     16  C   UNL     1       0.609  -4.021   0.446  0.00  0.00    +0.048 C 
ENDBRANCH  14  15
ENDBRANCH  10  14
ENDBRANCH   4   8
BRANCH   4  17
ATOM     17  C   UNL     1      -1.907   2.435  -1.474  0.00  0.00    -0.027 C 
ATOM     18  C   UNL     1      -0.911   3.381  -2.149  0.00  0.00    +0.006 C 
ATOM     19  C   UNL     1      -1.982   1.126  -2.263  0.00  0.00    +0.006 C 
ENDBRANCH   4  17
ENDBRANCH   1   4
BRANCH   1  20
ATOM     20  C   UNL     1      -2.678   3.673   1.368  0.00  0.00    +0.016 C 
BRANCH  20  21
ATOM     21  C   UNL     1      -2.549   4.896   2.239  0.00  0.00    +0.200 C 
ATOM     22  O   UNL     1      -1.488   5.480   2.312  0.00  0.00    -0.278 OA
ATOM     23  N   UNL     1      -3.612   5.340   2.938  0.00  0.00    -0.286 N 
ATOM     24  H   UNL     1      -4.546   4.759   2.948  0.00  0.00    +0.155 HD
BRANCH  23  25
ATOM     25  C   UNL     1      -3.529   6.544   3.651  0.00  0.00    +0.056 A 
ATOM     26  C   UNL     1      -2.756   7.589   3.160  0.00  0.00    +0.074 A 
ATOM     27  C   UNL     1      -2.678   8.775   3.869  0.00  0.00    +0.164 A 
ATOM     28  C   UNL     1      -3.368   8.919   5.064  0.00  0.00    +0.163 A 
ATOM     29  C   UNL     1      -4.137   7.878   5.555  0.00  0.00    +0.071 A 
ATOM     30  C   UNL     1      -4.223   6.693   4.845  0.00  0.00    +0.066 A 
ATOM     31 CL   UNL     1      -5.192   5.387   5.452  0.00  0.00    -0.082 Cl
ATOM     32  O   UNL     1      -3.282  10.095   5.754  0.00  0.00    -0.488 OA
ATOM     33  C   UNL     1      -2.009  10.390   6.331  0.00  0.00    +0.232 C 
ATOM     34  C   UNL     1      -1.095  11.052   5.311  0.00  0.00    +0.082 C 
ATOM     35  C   UNL     1      -0.754  10.127   4.153  0.00  0.00    +0.232 C 
ATOM     36  O   UNL     1      -1.924   9.810   3.396  0.00  0.00    -0.488 OA
ENDBRANCH  23  25
ENDBRANCH  20  21
ENDBRANCH   1  20
TORSDOF 10
