REMARK  Name = ZINC63362626
REMARK  6 active torsions:
REMARK  status: ('A' for Active; 'I' for Inactive)
REMARK    1  A    between atoms: C_1  and  C_2
REMARK    2  A    between atoms: C_9  and  N_17
REMARK    3  A    between atoms: N_17  and  C_18
REMARK    4  A    between atoms: C_18  and  C_19
REMARK    5  A    between atoms: C_25  and  C_38
REMARK    6  A    between atoms: C_30  and  C_37
REMARK                            x       y       z     vdW  Elec       q    Type
REMARK                         _______ _______ _______ _____ _____    ______ ____
ROOT
ATOM      1  N   UNL     1      -3.078  -4.959  -0.371  0.00  0.00    -0.310 NA
ATOM      2  H   UNL     1      -2.520  -5.110  -1.198  0.00  0.00    +0.122 HD
ENDROOT
BRANCH   1  10
ATOM      3  C   UNL     1      -4.910   1.818  -4.843  0.00  0.00    +0.044 C 
ATOM      4  C   UNL     1      -4.371   0.533  -4.271  0.00  0.00    -0.050 A 
ATOM      5  C   UNL     1      -3.950  -0.479  -5.144  0.00  0.00    +0.005 A 
ATOM      6  C   UNL     1      -3.452  -1.656  -4.707  0.00  0.00    +0.026 A 
ATOM      7  C   UNL     1      -3.336  -1.917  -3.315  0.00  0.00    +0.043 A 
ATOM      8  N   UNL     1      -2.912  -2.973  -2.658  0.00  0.00    -0.376 N 
ATOM      9  C   UNL     1      -2.931  -2.667  -1.230  0.00  0.00    +0.123 C 
ATOM     10  C   UNL     1      -3.774  -3.667  -0.434  0.00  0.00    +0.080 C 
ATOM     11  C   UNL     1      -3.974  -3.116   0.982  0.00  0.00    +0.021 C 
ATOM     12  C   UNL     1      -4.804  -1.834   0.962  0.00  0.00    +0.006 C 
ATOM     13  C   UNL     1      -4.045  -0.729   0.206  0.00  0.00    +0.033 C 
ATOM     14  C   UNL     1      -3.603  -1.309  -1.117  0.00  0.00    -0.037 C 
ATOM     15  C   UNL     1      -3.782  -0.865  -2.369  0.00  0.00    -0.001 A 
ATOM     16  C   UNL     1      -4.302   0.389  -2.928  0.00  0.00    +0.013 A 
ATOM     17  H   UNL     1      -2.634  -3.814  -3.054  0.00  0.00    +0.160 HD
ENDBRANCH   1  10
BRANCH   1  18
ATOM     18  C   UNL     1      -4.030  -6.060  -0.170  0.00  0.00    +0.096 C 
BRANCH  18  19
ATOM     19  C   UNL     1      -3.270  -7.387  -0.109  0.00  0.00    +0.122 C 
ATOM     20  C   UNL     1      -4.248  -8.568   0.034  0.00  0.00    +0.067 C 
ATOM     21  C   UNL     1      -4.523  -9.251  -1.254  0.00  0.00    -0.019 C 
ATOM     22  C   UNL     1      -3.871 -10.288  -1.693  0.00  0.00    -0.064 C 
ATOM     23  C   UNL     1      -4.334 -10.960  -2.964  0.00  0.00    +0.012 C 
ATOM     24  C   UNL     1      -4.386 -12.466  -2.806  0.00  0.00    +0.007 C 
ATOM     25  C   UNL     1      -3.226 -13.057  -2.035  0.00  0.00    +0.001 C 
ATOM     26  C   UNL     1      -2.998 -12.360  -0.696  0.00  0.00    +0.011 C 
ATOM     27  C   UNL     1      -2.712 -10.883  -0.956  0.00  0.00    -0.007 C 
ATOM     28  C   UNL     1      -2.307 -10.139   0.285  0.00  0.00    +0.056 C 
ATOM     29  C   UNL     1      -3.485  -9.471   1.032  0.00  0.00    +0.185 C 
ATOM     30  O   UNL     1      -2.909  -8.476   1.924  0.00  0.00    -0.460 OA
ATOM     31  C   UNL     1      -2.431  -7.468   1.157  0.00  0.00    +0.312 C 
ATOM     32  O   UNL     1      -1.497  -6.752   1.430  0.00  0.00    -0.250 OA
ATOM     33  C   UNL     1      -1.512 -10.828  -1.904  0.00  0.00    +0.016 C 
ATOM     34  C   UNL     1      -3.365 -10.611  -4.096  0.00  0.00    +0.012 C 
ENDBRANCH  18  19
ENDBRANCH   1  18
TORSDOF 3
