REMARK  Name = ZINC44136123
REMARK  14 active torsions:
REMARK  status: ('A' for Active; 'I' for Inactive)
REMARK    1  A    between atoms: C_1  and  C_2
REMARK    2  A    between atoms: C_2  and  C_3
REMARK    3  A    between atoms: C_3  and  C_4
REMARK    4  A    between atoms: C_7  and  C_12
REMARK    5  A    between atoms: N_9  and  C_11
REMARK    6  A    between atoms: N_14  and  C_15
REMARK    7  A    between atoms: C_15  and  C_17
REMARK    8  A    between atoms: C_15  and  C_33
REMARK    9  A    between atoms: C_19  and  O_32
REMARK   10  A    between atoms: C_21  and  O_31
REMARK   11  A    between atoms: C_23  and  O_30
REMARK   12  A    between atoms: C_25  and  S_28
REMARK   13  A    between atoms: S_28  and  C_29
REMARK   14  A    between atoms: C_33  and  C_35
REMARK                            x       y       z     vdW  Elec       q    Type
REMARK                         _______ _______ _______ _____ _____    ______ ____
ROOT
ATOM      1  C   UNL     1      -2.419  -4.022   4.632  0.00  0.00    +0.122 C 
ENDROOT
BRANCH   1   2
ATOM      2  C   UNL     1      -1.817  -3.260   5.814  0.00  0.00    +0.172 C 
ATOM      3  C   UNL     1      -1.681  -1.779   5.451  0.00  0.00    +0.176 C 
ATOM      4  C   UNL     1      -1.023  -1.034   6.617  0.00  0.00    +0.177 C 
ATOM      5  C   UNL     1       0.329  -1.683   6.925  0.00  0.00    +0.184 C 
ATOM      6  C   UNL     1       0.116  -3.168   7.231  0.00  0.00    +0.207 C 
ATOM      7  O   UNL     1      -0.528  -3.795   6.120  0.00  0.00    -0.356 OA
BRANCH   6   8
ATOM      8  S   UNL     1      -0.925  -3.337   8.707  0.00  0.00    -0.131 S 
ATOM      9  C   UNL     1      -0.832  -5.104   9.110  0.00  0.00    +0.087 C 
ENDBRANCH   6   8
BRANCH   5  10
ATOM     10  O   UNL     1       1.193  -1.547   5.795  0.00  0.00    -0.386 OA
ATOM     11  H   UNL     1       2.069  -1.937   5.920  0.00  0.00    +0.210 HD
ENDBRANCH   5  10
BRANCH   4  12
ATOM     12  O   UNL     1      -0.827   0.336   6.259  0.00  0.00    -0.386 OA
ATOM     13  H   UNL     1      -0.413   0.868   6.952  0.00  0.00    +0.210 HD
ENDBRANCH   4  12
BRANCH   3  14
ATOM     14  O   UNL     1      -0.872  -1.646   4.281  0.00  0.00    -0.387 OA
ATOM     15  H   UNL     1      -0.744  -0.732   3.993  0.00  0.00    +0.210 HD
ENDBRANCH   3  14
ENDBRANCH   1   2
BRANCH   1  18
ATOM     16  C   UNL     1      -2.051  -3.467   2.288  0.00  0.00    +0.200 C 
ATOM     17  O   UNL     1      -3.236  -3.231   2.188  0.00  0.00    -0.278 OA
ATOM     18  N   UNL     1      -1.544  -3.883   3.466  0.00  0.00    -0.310 N 
ATOM     19  H   UNL     1      -0.599  -4.091   3.541  0.00  0.00    +0.149 HD
BRANCH  16  22
ATOM     20  C   UNL     1      -1.282  -2.251  -1.085  0.00  0.00    -0.029 C 
ATOM     21  C   UNL     1      -1.410  -1.930   0.428  0.00  0.00    -0.005 C 
ATOM     22  C   UNL     1      -1.145  -3.296   1.096  0.00  0.00    +0.019 C 
ATOM     23  N   UNL     1      -1.430  -4.336   0.091  0.00  0.00    +0.386 N 
ATOM     24  C   UNL     1      -1.880  -3.678  -1.155  0.00  0.00    -0.075 C 
ATOM     25  C   UNL     1      -2.487  -5.228   0.589  0.00  0.00    -0.095 C 
ATOM     26  H   UNL     1      -0.594  -4.871  -0.090  0.00  0.00    -0.081 HD
BRANCH  20  27
ATOM     27  C   UNL     1      -2.105  -1.271  -1.924  0.00  0.00    +0.001 C 
BRANCH  27  29
ATOM     28  C   UNL     1      -2.282   1.095  -2.707  0.00  0.00    +0.004 C 
ATOM     29  C   UNL     1      -1.459   0.115  -1.868  0.00  0.00    -0.003 C 
ENDBRANCH  27  29
ENDBRANCH  20  27
ENDBRANCH  16  22
ENDBRANCH   1  18
BRANCH   1  30
ATOM     30  C   UNL     1      -2.554  -5.502   4.995  0.00  0.00    +0.100 C 
ATOM     31  C   UNL     1      -3.181  -6.259   3.823  0.00  0.00    +0.026 C 
ATOM     32 CL   UNL     1      -0.924  -6.185   5.349  0.00  0.00    -0.120 Cl
ENDBRANCH   1  30
TORSDOF 10
