REMARK  Name = ZINC39558035
REMARK  10 active torsions:
REMARK  status: ('A' for Active; 'I' for Inactive)
REMARK    1  A    between atoms: C_1  and  C_2
REMARK    2  A    between atoms: C_2  and  C_4
REMARK    3  A    between atoms: C_2  and  N_16
REMARK    4  A    between atoms: C_7  and  C_10
REMARK    5  A    between atoms: N_16  and  C_17
REMARK    6  A    between atoms: N_16  and  C_18
REMARK    7  A    between atoms: C_18  and  C_19
REMARK    8  A    between atoms: C_23  and  C_26
REMARK    9  A    between atoms: N_28  and  C_29
REMARK   10  A    between atoms: C_29  and  C_30
REMARK                            x       y       z     vdW  Elec       q    Type
REMARK                         _______ _______ _______ _____ _____    ______ ____
ROOT
ATOM      1  C   UNL     1      -2.959   0.265  -0.361  0.00  0.00    +0.033 A 
ATOM      2  N   UNL     1      -3.509  -0.972  -0.340  0.00  0.00    -0.324 N 
ATOM      3  C   UNL     1      -4.786  -1.158   0.047  0.00  0.00    +0.261 A 
ATOM      4  O   UNL     1      -5.264  -2.279   0.059  0.00  0.00    -0.267 OA
ATOM      5  C   UNL     1      -5.572  -0.044   0.441  0.00  0.00    +0.101 A 
ATOM      6  C   UNL     1      -4.999   1.225   0.417  0.00  0.00    +0.020 A 
ATOM      7  C   UNL     1      -3.671   1.359   0.012  0.00  0.00    +0.023 A 
ATOM      8  H   UNL     1      -2.976  -1.736  -0.609  0.00  0.00    +0.169 HD
ENDROOT
BRANCH   5   9
ATOM      9  C   UNL     1      -6.968  -0.227   0.866  0.00  0.00    +0.249 C 
ATOM     10  O   UNL     1      -7.663   0.742   1.106  0.00  0.00    -0.270 OA
ATOM     11  N   UNL     1      -7.478  -1.469   0.989  0.00  0.00    -0.311 N 
ATOM     12  H   UNL     1      -6.905  -2.242   0.869  0.00  0.00    +0.149 HD
BRANCH  11  13
ATOM     13  C   UNL     1      -8.897  -1.650   1.305  0.00  0.00    +0.108 C 
BRANCH  13  14
ATOM     14  C   UNL     1      -9.214  -3.144   1.388  0.00  0.00    +0.012 C 
ATOM     15  C   UNL     1      -9.021  -3.784   0.011  0.00  0.00    -0.006 C 
ATOM     16  C   UNL     1      -9.338  -5.278   0.094  0.00  0.00    +0.007 C 
ATOM     17  C   UNL     1     -10.788  -5.468   0.546  0.00  0.00    -0.010 C 
ATOM     18  C   UNL     1     -11.727  -4.802  -0.462  0.00  0.00    +0.007 C 
ATOM     19  C   UNL     1     -11.410  -3.308  -0.545  0.00  0.00    -0.010 C 
ATOM     20  C   UNL     1      -9.960  -3.118  -0.996  0.00  0.00    +0.007 C 
ATOM     21  C   UNL     1     -11.603  -2.668   0.832  0.00  0.00    +0.007 C 
ATOM     22  C   UNL     1     -10.664  -3.334   1.839  0.00  0.00    -0.006 C 
ATOM     23  C   UNL     1     -10.981  -4.828   1.922  0.00  0.00    +0.007 C 
ENDBRANCH  13  14
ENDBRANCH  11  13
ENDBRANCH   5   9
BRANCH   1  24
ATOM     24  C   UNL     1      -1.527   0.430  -0.801  0.00  0.00    +0.137 C 
BRANCH  24  25
ATOM     25  N   UNL     1      -0.637  -0.202   0.182  0.00  0.00    -0.295 NA
ATOM     26  C   UNL     1      -0.718  -1.667   0.100  0.00  0.00    +0.105 C 
BRANCH  25  28
ATOM     27  C   UNL     1       1.189   0.026  -1.434  0.00  0.00    +0.027 C 
ATOM     28  C   UNL     1       0.747   0.259   0.013  0.00  0.00    +0.084 C 
BRANCH  28  29
ATOM     29  C   UNL     1       0.831   1.752   0.337  0.00  0.00    +0.170 C 
ATOM     30  C   UNL     1       2.278   2.194   0.460  0.00  0.00    +0.033 C 
ATOM     31  C   UNL     1       2.377   2.625   1.732  0.00  0.00    +0.091 C 
ATOM     32  N   UNL     1       1.185   2.496   2.371  0.00  0.00    -0.154 NA
ATOM     33  N   UNL     1       0.278   2.025   1.674  0.00  0.00    -0.178 NA
BRANCH  31  34
ATOM     34  C   UNL     1       3.614   3.165   2.349  0.00  0.00    +0.002 A 
ATOM     35  C   UNL     1       4.785   3.259   1.601  0.00  0.00    +0.010 A 
ATOM     36  C   UNL     1       5.933   3.762   2.180  0.00  0.00    +0.001 A 
ATOM     37  C   UNL     1       5.921   4.172   3.501  0.00  0.00    +0.000 A 
ATOM     38  C   UNL     1       4.761   4.081   4.249  0.00  0.00    +0.001 A 
ATOM     39  C   UNL     1       3.607   3.584   3.678  0.00  0.00    +0.010 A 
ENDBRANCH  31  34
ENDBRANCH  28  29
ENDBRANCH  25  28
ENDBRANCH  24  25
ENDBRANCH   1  24
TORSDOF 8
