REMARK  Name = ZINC20778801
REMARK  9 active torsions:
REMARK  status: ('A' for Active; 'I' for Inactive)
REMARK    1  A    between atoms: C_1  and  C_2
REMARK    2  A    between atoms: C_2  and  C_3
REMARK    3  A    between atoms: C_2  and  C_4
REMARK    4  A    between atoms: C_9  and  C_10
REMARK    5  A    between atoms: N_15  and  C_17
REMARK    6  A    between atoms: C_17  and  C_18
REMARK    7  A    between atoms: C_19  and  C_20
REMARK    8  A    between atoms: C_25  and  O_26
REMARK    9  A    between atoms: O_26  and  C_27
REMARK                            x       y       z     vdW  Elec       q    Type
REMARK                         _______ _______ _______ _____ _____    ______ ____
ROOT
ATOM      1  C   UNL     1       1.541   4.425   0.011  0.00  0.00    +0.023 C 
ATOM      2  C   UNL     1       1.256   5.253   1.267  0.00  0.00    +0.006 C 
ATOM      3  C   UNL     1       2.096   6.533   1.227  0.00  0.00    -0.018 C 
ATOM      4  C   UNL     1       1.770   7.312  -0.049  0.00  0.00    -0.078 C 
ATOM      5  N   UNL     1       2.060   6.478  -1.222  0.00  0.00    +0.382 N 
ATOM      6  C   UNL     1       1.231   5.266  -1.230  0.00  0.00    -0.069 C 
ATOM      7  H   UNL     1       3.112   6.163  -1.157  0.00  0.00    -0.081 HD
ENDROOT
BRANCH   1  13
ATOM      8  C   UNL     1       1.109   1.911   0.003  0.00  0.00    -0.004 A 
ATOM      9  C   UNL     1      -0.013   1.076   0.009  0.00  0.00    +0.109 A 
ATOM     10  N   UNL     1      -1.083   1.829   0.017  0.00  0.00    -0.284 N 
ATOM     11  N   UNL     1      -0.675   3.169   0.026  0.00  0.00    -0.178 NA
ATOM     12  H   UNL     1      -2.081   1.366   0.014  0.00  0.00    +0.188 HD
ATOM     13  C   UNL     1       0.674   3.192   0.013  0.00  0.00    +0.067 A 
BRANCH   8  15
ATOM     14  C   UNL     1       2.833   0.618   1.229  0.00  0.00    +0.012 C 
ATOM     15  C   UNL     1       2.548   1.464  -0.014  0.00  0.00    +0.016 C 
ATOM     16  C   UNL     1       2.808   0.629  -1.269  0.00  0.00    +0.012 C 
ENDBRANCH   8  15
ENDBRANCH   1  13
BRANCH   5  17
ATOM     17  C   UNL     1       1.890   7.240  -2.466  0.00  0.00    -0.051 C 
BRANCH  17  18
ATOM     18  C   UNL     1       2.926   8.333  -2.531  0.00  0.00    -0.045 C 
ATOM     19  C   UNL     1       3.731   8.421  -3.581  0.00  0.00    +0.005 C 
BRANCH  19  20
ATOM     20  C   UNL     1       4.747   9.492  -3.644  0.00  0.00    +0.016 A 
ATOM     21  C   UNL     1       4.862  10.412  -2.602  0.00  0.00    +0.011 A 
ATOM     22  C   UNL     1       5.813  11.410  -2.667  0.00  0.00    +0.001 A 
ATOM     23  C   UNL     1       6.654  11.502  -3.762  0.00  0.00    +0.004 A 
ATOM     24  C   UNL     1       6.549  10.596  -4.801  0.00  0.00    +0.046 A 
ATOM     25  C   UNL     1       5.603   9.586  -4.748  0.00  0.00    +0.127 A 
BRANCH  25  26
ATOM     26  O   UNL     1       5.502   8.692  -5.766  0.00  0.00    -0.495 OA
ATOM     27  C   UNL     1       6.409   8.850  -6.860  0.00  0.00    +0.277 C 
ENDBRANCH  25  26
ENDBRANCH  19  20
ENDBRANCH  17  18
ENDBRANCH   5  17
TORSDOF 6
