REMARK  Name = ZINC28052794
REMARK  7 active torsions:
REMARK  status: ('A' for Active; 'I' for Inactive)
REMARK    1  A    between atoms: C_1  and  C_2
REMARK    2  A    between atoms: C_10  and  C_12
REMARK    3  A    between atoms: C_23  and  C_26
REMARK    4  A    between atoms: C_28  and  O_34
REMARK    5  A    between atoms: C_31  and  O_32
REMARK    6  A    between atoms: O_32  and  C_33
REMARK    7  A    between atoms: O_34  and  C_35
REMARK                            x       y       z     vdW  Elec       q    Type
REMARK                         _______ _______ _______ _____ _____    ______ ____
ROOT
ATOM      1  C   UNL     1       0.854   7.417   8.100  0.00  0.00    +0.069 C 
ATOM      2  C   UNL     1      -0.028   7.396   6.878  0.00  0.00    +0.087 A 
ATOM      3  C   UNL     1      -0.743   6.310   6.381  0.00  0.00    +0.049 A 
ATOM      4  C   UNL     1      -1.377   6.798   5.267  0.00  0.00    +0.226 A 
ATOM      5  O   UNL     1      -1.026   8.076   5.168  0.00  0.00    -0.339 OA
ATOM      6  N   UNL     1      -0.275   8.396   6.069  0.00  0.00    -0.081 NA
ATOM      7  N   UNL     1      -2.189   5.991   4.498  0.00  0.00    -0.286 N 
ATOM      8  C   UNL     1      -2.133   4.630   4.685  0.00  0.00    +0.019 C 
ATOM      9  C   UNL     1      -1.528   4.069   5.753  0.00  0.00    +0.024 C 
ATOM     10  C   UNL     1      -0.882   4.896   6.846  0.00  0.00    +0.093 C 
ATOM     11  C   UNL     1      -1.466   2.671   5.897  0.00  0.00    +0.162 C 
ATOM     12  O   UNL     1      -0.932   2.199   6.882  0.00  0.00    -0.292 OA
ATOM     13  C   UNL     1      -2.046   1.747   4.863  0.00  0.00    +0.088 C 
ATOM     14  C   UNL     1      -2.020   2.448   3.500  0.00  0.00    +0.036 C 
ATOM     15  C   UNL     1      -2.781   3.769   3.625  0.00  0.00    +0.060 C 
ATOM     16  H   UNL     1      -2.864   6.440   3.754  0.00  0.00    +0.155 HD
ENDROOT
BRANCH  10  17
ATOM     17  C   UNL     1      -1.743   4.857   8.083  0.00  0.00    +0.001 A 
ATOM     18  C   UNL     1      -3.042   5.327   8.036  0.00  0.00    +0.022 A 
ATOM     19  C   UNL     1      -3.834   5.285   9.169  0.00  0.00    +0.018 A 
ATOM     20  C   UNL     1      -3.323   4.783  10.353  0.00  0.00    +0.018 A 
ATOM     21  C   UNL     1      -2.023   4.318  10.402  0.00  0.00    +0.040 A 
ATOM     22  C   UNL     1      -1.231   4.354   9.267  0.00  0.00    +0.128 A 
ATOM     23  F   UNL     1       0.040   3.900   9.314  0.00  0.00    -0.205 F 
ATOM     24 BR   UNL     1      -5.613   5.922   9.102  0.00  0.00    -0.050 Br
ENDBRANCH  10  17
BRANCH  14  25
ATOM     25  C   UNL     1      -2.684   1.575   2.467  0.00  0.00    +0.002 A 
ATOM     26  C   UNL     1      -3.999   1.184   2.634  0.00  0.00    +0.053 A 
ATOM     27  C   UNL     1      -4.610   0.381   1.683  0.00  0.00    +0.121 A 
ATOM     28  C   UNL     1      -3.901  -0.031   0.564  0.00  0.00    +0.049 A 
ATOM     29  C   UNL     1      -2.589   0.364   0.394  0.00  0.00    +0.049 A 
ATOM     30  C   UNL     1      -1.976   1.163   1.348  0.00  0.00    +0.124 A 
BRANCH  30  31
ATOM     31  O   UNL     1      -0.682   1.547   1.184  0.00  0.00    -0.495 OA
ATOM     32  C   UNL     1      -0.013   1.086   0.008  0.00  0.00    +0.277 C 
ENDBRANCH  30  31
BRANCH  27  33
ATOM     33  O   UNL     1      -5.904  -0.002   1.848  0.00  0.00    -0.495 OA
ATOM     34  C   UNL     1      -6.470  -0.830   0.829  0.00  0.00    +0.277 C 
ENDBRANCH  27  33
ENDBRANCH  14  25
TORSDOF 4
