REMARK  Name = ZINC14457604
REMARK  9 active torsions:
REMARK  status: ('A' for Active; 'I' for Inactive)
REMARK    1  A    between atoms: C_1  and  C_2
REMARK    2  A    between atoms: C_4  and  C_37
REMARK    3  A    between atoms: C_5  and  C_9
REMARK    4  A    between atoms: C_6  and  C_8
REMARK    5  A    between atoms: C_20  and  S_25
REMARK    6  A    between atoms: S_25  and  N_28
REMARK    7  A    between atoms: N_28  and  C_29
REMARK    8  A    between atoms: C_29  and  C_30
REMARK    9  A    between atoms: C_30  and  C_31
REMARK                            x       y       z     vdW  Elec       q    Type
REMARK                         _______ _______ _______ _____ _____    ______ ____
ROOT
ATOM      1  C   UNL     1       0.367   5.587   1.774  0.00  0.00    +0.105 C 
ATOM      2  C   UNL     1       1.039   6.895   2.148  0.00  0.00    +0.029 C 
ATOM      3  C   UNL     1       2.380   7.066   1.395  0.00  0.00    +0.033 C 
ATOM      4  C   UNL     1       3.187   7.941   2.337  0.00  0.00    -0.030 C 
ATOM      5  C   UNL     1       2.722   7.851   3.558  0.00  0.00    -0.023 C 
ATOM      6  C   UNL     1       1.536   6.897   3.605  0.00  0.00    +0.049 C 
ATOM      7  C   UNL     1       2.057   5.552   4.035  0.00  0.00    -0.018 A 
ATOM      8  C   UNL     1       2.693   5.462   5.266  0.00  0.00    +0.034 A 
ATOM      9  C   UNL     1       3.196   4.255   5.707  0.00  0.00    +0.106 A 
ATOM     10  C   UNL     1       3.073   3.120   4.925  0.00  0.00    +0.030 A 
ATOM     11  C   UNL     1       2.447   3.200   3.697  0.00  0.00    +0.025 A 
ATOM     12  C   UNL     1       1.933   4.415   3.257  0.00  0.00    +0.031 A 
ATOM     13  N   UNL     1       1.292   4.473   2.015  0.00  0.00    -0.336 N 
ATOM     14  H   UNL     1       1.454   3.800   1.335  0.00  0.00    +0.147 HD
ENDROOT
BRANCH   1  19
ATOM     15  C   UNL     1      -4.379   4.875   4.993  0.00  0.00    +0.044 C 
ATOM     16  C   UNL     1      -3.142   5.060   4.153  0.00  0.00    -0.050 A 
ATOM     17  C   UNL     1      -2.937   6.248   3.476  0.00  0.00    +0.007 A 
ATOM     18  C   UNL     1      -1.802   6.419   2.707  0.00  0.00    -0.045 A 
ATOM     19  C   UNL     1      -0.871   5.401   2.614  0.00  0.00    -0.021 A 
ATOM     20  C   UNL     1      -1.078   4.211   3.286  0.00  0.00    -0.045 A 
ATOM     21  C   UNL     1      -2.211   4.042   4.059  0.00  0.00    +0.007 A 
ATOM     22  C   UNL     1      -0.066   3.100   3.180  0.00  0.00    +0.044 C 
ATOM     23  C   UNL     1      -1.579   7.714   1.969  0.00  0.00    +0.044 C 
ENDBRANCH   1  19
BRANCH   9  24
ATOM     24  S   UNL     1       3.999   4.158   7.272  0.00  0.00    +0.058 S 
ATOM     25  O   UNL     1       3.504   5.240   8.050  0.00  0.00    -0.153 OA
ATOM     26  O   UNL     1       3.900   2.806   7.697  0.00  0.00    -0.153 OA
BRANCH  24  27
ATOM     27  N   UNL     1       5.608   4.457   7.017  0.00  0.00    -0.190 NA
ATOM     28  H   UNL     1       6.263   3.760   7.181  0.00  0.00    +0.148 HD
BRANCH  27  29
ATOM     29  C   UNL     1       6.042   5.773   6.542  0.00  0.00    +0.110 C 
BRANCH  29  30
ATOM     30  C   UNL     1       7.553   5.915   6.742  0.00  0.00    +0.052 C 
BRANCH  30  31
ATOM     31  C   UNL     1       7.999   7.269   6.254  0.00  0.00    -0.046 A 
ATOM     32  C   UNL     1       8.397   7.433   4.941  0.00  0.00    +0.003 A 
ATOM     33  C   UNL     1       8.802   8.676   4.492  0.00  0.00    +0.000 A 
ATOM     34  C   UNL     1       8.820   9.752   5.359  0.00  0.00    +0.000 A 
ATOM     35  C   UNL     1       8.427   9.587   6.674  0.00  0.00    +0.000 A 
ATOM     36  C   UNL     1       8.017   8.345   7.122  0.00  0.00    +0.003 A 
ENDBRANCH  30  31
ENDBRANCH  29  30
ENDBRANCH  27  29
ENDBRANCH  24  27
ENDBRANCH   9  24
TORSDOF 6
