REMARK  Name = ZINC11398208
REMARK  9 active torsions:
REMARK  status: ('A' for Active; 'I' for Inactive)
REMARK    1  A    between atoms: C_1  and  C_2
REMARK    2  A    between atoms: C_4  and  C_16
REMARK    3  A    between atoms: C_5  and  C_15
REMARK    4  A    between atoms: N_6  and  C_7
REMARK    5  A    between atoms: C_16  and  C_18
REMARK    6  A    between atoms: C_18  and  O_19
REMARK    7  A    between atoms: O_19  and  C_20
REMARK    8  A    between atoms: C_20  and  C_22
REMARK    9  A    between atoms: C_24  and  C_32
REMARK                            x       y       z     vdW  Elec       q    Type
REMARK                         _______ _______ _______ _____ _____    ______ ____
ROOT
ATOM      1  O   UNL     1      -3.754   3.602   0.339  0.00  0.00    -0.453 OA
ENDROOT
BRANCH   1   2
ATOM      2  C   UNL     1      -2.585   4.271   0.354  0.00  0.00    +0.340 C 
ATOM      3  O   UNL     1      -2.573   5.478   0.218  0.00  0.00    -0.245 OA
BRANCH   2   4
ATOM      4  C   UNL     1      -1.316   3.535   0.535  0.00  0.00    +0.070 A 
ATOM      5  C   UNL     1      -1.303   2.176   0.812  0.00  0.00    +0.047 A 
ATOM      6  C   UNL     1      -0.072   1.518   0.982  0.00  0.00    +0.107 A 
ATOM      7  N   UNL     1       1.082   2.148   0.877  0.00  0.00    -0.244 NA
ATOM      8  C   UNL     1       1.161   3.451   0.607  0.00  0.00    +0.073 A 
ATOM      9  C   UNL     1      -0.022   4.211   0.422  0.00  0.00    +0.014 A 
ATOM     10  C   UNL     1       0.066   5.577   0.139  0.00  0.00    +0.011 A 
ATOM     11  C   UNL     1       1.292   6.168   0.042  0.00  0.00    +0.001 A 
ATOM     12  C   UNL     1       2.457   5.428   0.222  0.00  0.00    +0.002 A 
ATOM     13  C   UNL     1       2.408   4.096   0.499  0.00  0.00    +0.028 A 
BRANCH   6  14
ATOM     14  C   UNL     1      -0.072   0.074   1.282  0.00  0.00    +0.153 A 
ATOM     15  C   UNL     1       1.030  -0.705   1.463  0.00  0.00    +0.051 A 
ATOM     16  C   UNL     1       0.567  -2.007   1.730  0.00  0.00    +0.042 A 
ATOM     17  C   UNL     1      -0.780  -1.963   1.690  0.00  0.00    +0.196 A 
ATOM     18  O   UNL     1      -1.163  -0.706   1.420  0.00  0.00    -0.461 OA
ENDBRANCH   6  14
ENDBRANCH   2   4
ENDBRANCH   1   2
BRANCH   1  19
ATOM     19  C   UNL     1      -4.961   4.389   0.156  0.00  0.00    +0.311 C 
BRANCH  19  20
ATOM     20  C   UNL     1      -6.161   3.478   0.167  0.00  0.00    +0.202 C 
ATOM     21  O   UNL     1      -6.014   2.283   0.313  0.00  0.00    -0.288 OA
BRANCH  20  25
ATOM     22  C   UNL     1     -10.020   6.738  -0.502  0.00  0.00    +0.063 C 
ATOM     23  C   UNL     1      -9.199   5.491  -0.297  0.00  0.00    +0.017 A 
ATOM     24  C   UNL     1      -7.860   5.449  -0.189  0.00  0.00    +0.034 A 
ATOM     25  C   UNL     1      -7.505   4.036  -0.001  0.00  0.00    +0.042 A 
ATOM     26  C   UNL     1      -8.699   3.340  -0.020  0.00  0.00    +0.027 A 
ATOM     27  N   UNL     1      -9.697   4.224  -0.191  0.00  0.00    -0.343 N 
ATOM     28  C   UNL     1      -8.856   1.848   0.130  0.00  0.00    +0.064 C 
BRANCH  27  29
ATOM     29  C   UNL     1     -11.119   3.877  -0.262  0.00  0.00    +0.110 C 
ATOM     30  C   UNL     1     -11.858   4.467   0.950  0.00  0.00    +0.049 C 
ATOM     31  C   UNL     1     -13.388   4.386   0.726  0.00  0.00    +0.168 C 
ATOM     32  S   UNL     1     -13.531   4.452  -1.107  0.00  0.00    -0.029 S 
ATOM     33  O   UNL     1     -14.102   3.236  -1.569  0.00  0.00    -0.174 OA
ATOM     34  O   UNL     1     -14.122   5.689  -1.480  0.00  0.00    -0.174 OA
ATOM     35  C   UNL     1     -11.743   4.482  -1.552  0.00  0.00    +0.191 C 
ENDBRANCH  27  29
ENDBRANCH  20  25
ENDBRANCH  19  20
ENDBRANCH   1  19
TORSDOF 7
