REMARK  Name = ZINC52094657
REMARK  5 active torsions:
REMARK  status: ('A' for Active; 'I' for Inactive)
REMARK    1  A    between atoms: C_1  and  C_2
REMARK    2  A    between atoms: C_2  and  N_3
REMARK    3  A    between atoms: N_3  and  C_4
REMARK    4  A    between atoms: C_4  and  C_6
REMARK    5  A    between atoms: C_4  and  C_19
REMARK                            x       y       z     vdW  Elec       q    Type
REMARK                         _______ _______ _______ _____ _____    ______ ____
ROOT
ATOM      1  C   UNL     1      -0.707  -2.436  -1.375  0.00  0.00    -0.043 A 
ATOM      2  C   UNL     1      -1.477  -1.982  -2.427  0.00  0.00    +0.031 A 
ATOM      3  C   UNL     1      -2.780  -2.432  -2.574  0.00  0.00    +0.067 A 
ATOM      4  C   UNL     1      -3.308  -3.344  -1.658  0.00  0.00    +0.068 A 
ATOM      5  C   UNL     1      -2.528  -3.795  -0.604  0.00  0.00    +0.043 A 
ATOM      6  C   UNL     1      -1.228  -3.345  -0.469  0.00  0.00    +0.022 A 
ATOM      7 BR   UNL     1      -0.161  -3.966   0.963  0.00  0.00    -0.050 Br
ATOM      8  N   UNL     1      -4.616  -3.606  -2.059  0.00  0.00    -0.306 N 
ATOM      9  H   UNL     1      -5.237  -4.205  -1.615  0.00  0.00    +0.170 HD
ATOM     10  C   UNL     1      -4.871  -2.887  -3.169  0.00  0.00    +0.325 A 
ATOM     11  O   UNL     1      -5.926  -2.886  -3.776  0.00  0.00    -0.247 OA
ATOM     12  N   UNL     1      -3.783  -2.169  -3.504  0.00  0.00    -0.306 N 
ATOM     13  H   UNL     1      -3.710  -1.570  -4.264  0.00  0.00    +0.170 HD
ENDROOT
BRANCH   1  14
ATOM     14  C   UNL     1       0.710  -1.947  -1.215  0.00  0.00    -0.010 C 
BRANCH  14  15
ATOM     15  C   UNL     1       1.640  -2.777  -2.101  0.00  0.00    +0.109 C 
ATOM     16  C   UNL     1       1.589  -4.269  -1.684  0.00  0.00    +0.032 C 
ATOM     17  C   UNL     1       2.018  -4.960  -3.008  0.00  0.00    +0.030 C 
ATOM     18  C   UNL     1       1.405  -4.029  -4.076  0.00  0.00    +0.160 C 
ATOM     19  O   UNL     1       1.185  -2.751  -3.463  0.00  0.00    -0.378 OA
ENDBRANCH  14  15
BRANCH  14  20
ATOM     20  N   UNL     1       0.787  -0.534  -1.612  0.00  0.00    +0.385 N 
ATOM     21  H   UNL     1       0.428  -0.428  -2.549  0.00  0.00    -0.085 HD
ATOM     22  H   UNL     1       1.748  -0.229  -1.583  0.00  0.00    -0.085 HD
BRANCH  20  24
ATOM     23  C   UNL     1       0.069   1.750  -1.099  0.00  0.00    -0.017 C 
ATOM     24  C   UNL     1      -0.012   0.279  -0.686  0.00  0.00    -0.085 C 
ENDBRANCH  20  24
ENDBRANCH  14  20
ENDBRANCH   1  14
TORSDOF 4
