REMARK  Name = ZINC13727358
REMARK  12 active torsions:
REMARK  status: ('A' for Active; 'I' for Inactive)
REMARK    1  A    between atoms: C_1  and  C_2
REMARK    2  A    between atoms: C_5  and  S_8
REMARK    3  A    between atoms: S_8  and  C_11
REMARK    4  A    between atoms: C_12  and  C_30
REMARK    5  A    between atoms: C_13  and  C_29
REMARK    6  A    between atoms: N_14  and  C_23
REMARK    7  A    between atoms: C_15  and  N_16
REMARK    8  A    between atoms: C_17  and  C_19
REMARK    9  A    between atoms: C_19  and  C_20
REMARK   10  A    between atoms: C_19  and  C_21
REMARK   11  A    between atoms: C_19  and  C_22
REMARK   12  A    between atoms: C_23  and  C_24
REMARK                            x       y       z     vdW  Elec       q    Type
REMARK                         _______ _______ _______ _____ _____    ______ ____
ROOT
ATOM      1  C   UNL     1      -2.221   2.591   1.681  0.00  0.00    +0.136 A 
ATOM      2  C   UNL     1      -3.156   1.859   2.440  0.00  0.00    -0.003 A 
ATOM      3  C   UNL     1      -2.955   2.166   3.737  0.00  0.00    +0.023 A 
ATOM      4  N   UNL     1      -1.932   3.072   3.811  0.00  0.00    -0.324 N 
ATOM      5  C   UNL     1      -1.485   3.329   2.547  0.00  0.00    +0.132 A 
ATOM      6  C   UNL     1      -3.730   1.612   4.905  0.00  0.00    +0.064 C 
ATOM      7  C   UNL     1      -4.190   0.904   1.900  0.00  0.00    +0.047 C 
ENDROOT
BRANCH   5   8
ATOM      8  N   UNL     1      -0.449   4.202   2.205  0.00  0.00    -0.270 N 
ATOM      9  C   UNL     1      -0.511   5.497   2.572  0.00  0.00    +0.224 C 
ATOM     10  O   UNL     1      -1.413   5.883   3.285  0.00  0.00    -0.275 OA
ATOM     11  H   UNL     1       0.315   3.876   1.704  0.00  0.00    +0.156 HD
BRANCH   9  12
ATOM     12  C   UNL     1       0.541   6.466   2.097  0.00  0.00    +0.039 C 
ATOM     13  C   UNL     1       0.240   7.859   2.653  0.00  0.00    +0.020 C 
ATOM     14  C   UNL     1       1.916   6.008   2.589  0.00  0.00    +0.020 C 
ATOM     15  C   UNL     1       0.537   6.515   0.568  0.00  0.00    +0.020 C 
ENDBRANCH   9  12
ENDBRANCH   5   8
BRANCH   1  16
ATOM     16  S   UNL     1      -2.046   2.557  -0.072  0.00  0.00    +0.029 S 
ATOM     17  O   UNL     1      -1.438   3.787  -0.443  0.00  0.00    -0.164 OA
ATOM     18  O   UNL     1      -3.299   2.138  -0.597  0.00  0.00    -0.164 OA
BRANCH  16  23
ATOM     19  C   UNL     1       1.919  -1.791  -1.405  0.00  0.00    +0.044 C 
ATOM     20  C   UNL     1       0.928  -0.705  -1.071  0.00  0.00    -0.050 A 
ATOM     21  C   UNL     1      -0.419  -1.000  -0.988  0.00  0.00    +0.005 A 
ATOM     22  C   UNL     1      -1.328  -0.005  -0.681  0.00  0.00    +0.027 A 
ATOM     23  C   UNL     1      -0.888   1.286  -0.456  0.00  0.00    +0.094 A 
ATOM     24  C   UNL     1       0.460   1.582  -0.539  0.00  0.00    +0.027 A 
ATOM     25  C   UNL     1       1.368   0.586  -0.847  0.00  0.00    +0.005 A 
ENDBRANCH  16  23
ENDBRANCH   1  16
BRANCH   4  26
ATOM     26  C   UNL     1      -1.405   3.666   5.042  0.00  0.00    +0.197 C 
BRANCH  26  27
ATOM     27  C   UNL     1      -2.431   4.600   5.628  0.00  0.00    +0.124 A 
ATOM     28  C   UNL     1      -3.461   4.243   6.416  0.00  0.00    +0.046 A 
ATOM     29  C   UNL     1      -4.162   5.428   6.736  0.00  0.00    +0.041 A 
ATOM     30  C   UNL     1      -3.524   6.438   6.118  0.00  0.00    +0.195 A 
ATOM     31  O   UNL     1      -2.476   5.931   5.448  0.00  0.00    -0.466 OA
ENDBRANCH  26  27
ENDBRANCH   4  26
TORSDOF 6
