REMARK  Name = ZINC64542858
REMARK  6 active torsions:
REMARK  status: ('A' for Active; 'I' for Inactive)
REMARK    1  A    between atoms: C_1  and  C_2
REMARK    2  A    between atoms: N_8  and  C_9
REMARK    3  A    between atoms: C_9  and  C_10
REMARK    4  A    between atoms: C_12  and  C_17
REMARK    5  A    between atoms: C_17  and  C_18
REMARK    6  A    between atoms: C_17  and  C_19
REMARK                            x       y       z     vdW  Elec       q    Type
REMARK                         _______ _______ _______ _____ _____    ______ ____
ROOT
ATOM      1  C   UNL     1       2.915  -0.311   2.334  0.00  0.00    +0.043 C 
ATOM      2  N   UNL     1       2.379  -1.098   3.222  0.00  0.00    -0.242 NA
ATOM      3  C   UNL     1       3.027  -1.489   4.321  0.00  0.00    +0.125 C 
ATOM      4  N   UNL     1       4.245  -1.148   4.643  0.00  0.00    -0.165 NA
ATOM      5  C   UNL     1       4.982  -0.339   3.864  0.00  0.00    +0.243 C 
ATOM      6  O   UNL     1       6.115  -0.024   4.168  0.00  0.00    -0.273 OA
ATOM      7  C   UNL     1       4.336   0.158   2.583  0.00  0.00    +0.150 C 
ENDROOT
BRANCH   3   8
ATOM      8  C   UNL     1       2.292  -2.401   5.269  0.00  0.00    +0.048 C 
ATOM      9  C   UNL     1       3.302  -3.219   6.077  0.00  0.00    +0.015 C 
ATOM     10  C   UNL     1       1.436  -1.564   6.220  0.00  0.00    +0.015 C 
ENDBRANCH   3   8
BRANCH   1  11
ATOM     11  C   UNL     1       2.155   0.112   1.104  0.00  0.00    +0.136 C 
BRANCH  11  18
ATOM     12  C   UNL     1      -0.083   1.686   0.447  0.00  0.00    +0.024 C 
ATOM     13  C   UNL     1      -0.078   0.181   0.171  0.00  0.00    +0.054 C 
ATOM     14  C   UNL     1      -1.497  -0.370   0.324  0.00  0.00    +0.019 C 
ATOM     15  C   UNL     1      -1.484  -1.880   0.066  0.00  0.00    +0.003 C 
ATOM     16  C   UNL     1      -0.511  -2.547   1.042  0.00  0.00    +0.015 C 
ATOM     17  C   UNL     1       0.880  -1.933   0.868  0.00  0.00    +0.085 C 
ATOM     18  N   UNL     1       0.814  -0.489   1.126  0.00  0.00    -0.294 NA
ENDBRANCH  11  18
ENDBRANCH   1  11
TORSDOF 3
