REMARK  Name = ZINC59368648
REMARK  9 active torsions:
REMARK  status: ('A' for Active; 'I' for Inactive)
REMARK    1  A    between atoms: C_1  and  C_2
REMARK    2  A    between atoms: C_2  and  C_3
REMARK    3  A    between atoms: C_2  and  C_4
REMARK    4  A    between atoms: C_7  and  C_11
REMARK    5  A    between atoms: C_8  and  O_10
REMARK    6  A    between atoms: N_13  and  C_14
REMARK    7  A    between atoms: N_13  and  C_15
REMARK    8  A    between atoms: C_15  and  C_16
REMARK    9  A    between atoms: C_19  and  N_22
REMARK                            x       y       z     vdW  Elec       q    Type
REMARK                         _______ _______ _______ _____ _____    ______ ____
ROOT
ATOM      1  C   UNL     1       2.793  -1.718   4.756  0.00  0.00    +0.250 C 
ATOM      2  O   UNL     1       2.200  -2.382   5.585  0.00  0.00    -0.270 OA
ATOM      3  N   UNL     1       4.136  -1.617   4.809  0.00  0.00    -0.296 N 
ATOM      4  C   UNL     1       4.840  -0.733   3.877  0.00  0.00    +0.132 C 
ENDROOT
BRANCH   1   8
ATOM      5  C   UNL     1       0.630   0.281   1.694  0.00  0.00    -0.041 A 
ATOM      6  C   UNL     1       1.608   0.957   2.406  0.00  0.00    +0.005 A 
ATOM      7  C   UNL     1       2.313   0.315   3.401  0.00  0.00    +0.017 A 
ATOM      8  C   UNL     1       2.042  -1.024   3.693  0.00  0.00    +0.078 A 
ATOM      9  C   UNL     1       1.052  -1.704   2.970  0.00  0.00    +0.129 A 
ATOM     10  C   UNL     1       0.348  -1.040   1.976  0.00  0.00    +0.050 A 
BRANCH   5  12
ATOM     11  C   UNL     1      -0.866   2.198   1.207  0.00  0.00    +0.012 C 
ATOM     12  C   UNL     1      -0.134   0.995   0.609  0.00  0.00    +0.013 C 
ATOM     13  C   UNL     1       0.840   1.476  -0.469  0.00  0.00    +0.012 C 
ENDBRANCH   5  12
BRANCH   9  14
ATOM     14  O   UNL     1       0.780  -3.005   3.245  0.00  0.00    -0.506 OA
ATOM     15  H   UNL     1       0.096  -3.130   3.917  0.00  0.00    +0.292 HD
ENDBRANCH   9  14
ENDBRANCH   1   8
BRANCH   3  16
ATOM     16  C   UNL     1       4.891  -2.391   5.797  0.00  0.00    +0.142 C 
BRANCH  16  17
ATOM     17  C   UNL     1       5.267  -3.726   5.210  0.00  0.00    -0.030 A 
ATOM     18  C   UNL     1       4.414  -4.806   5.349  0.00  0.00    +0.007 A 
ATOM     19  C   UNL     1       4.755  -6.031   4.811  0.00  0.00    +0.023 A 
ATOM     20  C   UNL     1       5.957  -6.179   4.130  0.00  0.00    +0.030 A 
ATOM     21  C   UNL     1       6.811  -5.092   3.992  0.00  0.00    +0.023 A 
ATOM     22  C   UNL     1       6.461  -3.868   4.527  0.00  0.00    +0.007 A 
BRANCH  20  23
ATOM     23  N   UNL     1       6.305  -7.417   3.586  0.00  0.00    -0.330 N 
ATOM     24  C   UNL     1       7.507  -7.557   2.752  0.00  0.00    +0.105 C 
ATOM     25  C   UNL     1       8.376  -8.682   3.323  0.00  0.00    +0.019 C 
ATOM     26  C   UNL     1       7.539  -9.958   3.438  0.00  0.00    +0.003 C 
ATOM     27  C   UNL     1       6.368  -9.718   4.395  0.00  0.00    +0.019 C 
ATOM     28  C   UNL     1       5.481  -8.606   3.841  0.00  0.00    +0.105 C 
ENDBRANCH  20  23
ENDBRANCH  16  17
ENDBRANCH   3  16
TORSDOF 6
