REMARK  Name = ZINC22609228
REMARK  12 active torsions:
REMARK  status: ('A' for Active; 'I' for Inactive)
REMARK    1  A    between atoms: C_1  and  C_2
REMARK    2  A    between atoms: C_2  and  C_3
REMARK    3  A    between atoms: C_3  and  C_4
REMARK    4  A    between atoms: C_4  and  O_5
REMARK    5  A    between atoms: O_5  and  C_6
REMARK    6  A    between atoms: C_6  and  C_8
REMARK    7  A    between atoms: C_11  and  N_14
REMARK    8  A    between atoms: C_18  and  N_22
REMARK    9  A    between atoms: C_27  and  O_34
REMARK   10  A    between atoms: C_28  and  O_32
REMARK   11  A    between atoms: O_32  and  C_33
REMARK   12  A    between atoms: O_34  and  C_35
REMARK                            x       y       z     vdW  Elec       q    Type
REMARK                         _______ _______ _______ _____ _____    ______ ____
ROOT
ATOM      1  N   UNL     1      -6.541   1.124   1.995  0.00  0.00    -0.212 N 
ATOM      2  C   UNL     1      -5.912  -0.025   2.273  0.00  0.00    +0.225 C 
ATOM      3  O   UNL     1      -6.184  -0.769   3.190  0.00  0.00    -0.275 OA
ATOM      4  C   UNL     1      -4.808  -0.245   1.263  0.00  0.00    +0.091 C 
ATOM      5  C   UNL     1      -4.908   0.988   0.342  0.00  0.00    +0.029 C 
ATOM      6  C   UNL     1      -6.060   1.777   0.925  0.00  0.00    +0.213 C 
ATOM      7  O   UNL     1      -6.478   2.831   0.495  0.00  0.00    -0.277 OA
ENDROOT
BRANCH   5   8
ATOM      8  N   UNL     1      -3.667   1.772   0.390  0.00  0.00    +0.391 N 
ATOM      9  C   UNL     1      -3.772   2.978  -0.446  0.00  0.00    -0.073 C 
ATOM     10  C   UNL     1      -2.628   3.924  -0.079  0.00  0.00    +0.017 C 
ATOM     11  C   UNL     1      -1.318   3.179  -0.099  0.00  0.00    -0.044 A 
ATOM     12  C   UNL     1      -0.142   3.914  -0.146  0.00  0.00    +0.053 A 
ATOM     13  C   UNL     1       1.084   3.274  -0.160  0.00  0.00    +0.162 A 
ATOM     14  C   UNL     1       1.135   1.883  -0.127  0.00  0.00    +0.162 A 
ATOM     15  C   UNL     1      -0.040   1.155  -0.081  0.00  0.00    +0.051 A 
ATOM     16  C   UNL     1      -1.268   1.802  -0.075  0.00  0.00    -0.057 A 
ATOM     17  C   UNL     1      -2.518   0.962  -0.028  0.00  0.00    -0.042 C 
ATOM     18  H   UNL     1      -3.509   2.081   1.434  0.00  0.00    -0.080 HD
BRANCH  14  19
ATOM     19  O   UNL     1       2.335   1.244  -0.139  0.00  0.00    -0.491 OA
ATOM     20  C   UNL     1       2.309  -0.185  -0.103  0.00  0.00    +0.277 C 
ENDBRANCH  14  19
BRANCH  13  21
ATOM     21  O   UNL     1       2.233   3.999  -0.208  0.00  0.00    -0.491 OA
ATOM     22  C   UNL     1       2.102   5.422  -0.240  0.00  0.00    +0.277 C 
ENDBRANCH  13  21
ENDBRANCH   5   8
BRANCH   1  26
ATOM     23  C   UNL     1      -9.736   2.554   4.259  0.00  0.00    +0.059 A 
ATOM     24  C   UNL     1      -9.881   1.390   3.498  0.00  0.00    +0.017 A 
ATOM     25  C   UNL     1      -8.824   0.921   2.752  0.00  0.00    +0.025 A 
ATOM     26  C   UNL     1      -7.612   1.604   2.754  0.00  0.00    +0.044 A 
ATOM     27  C   UNL     1      -7.462   2.759   3.514  0.00  0.00    +0.025 A 
ATOM     28  C   UNL     1      -8.517   3.237   4.258  0.00  0.00    +0.017 A 
BRANCH  23  29
ATOM     29  C   UNL     1     -10.867   3.060   5.060  0.00  0.00    +0.339 C 
ATOM     30  O   UNL     1     -11.926   2.465   5.059  0.00  0.00    -0.245 OA
BRANCH  29  31
ATOM     31  O   UNL     1     -10.724   4.182   5.793  0.00  0.00    -0.461 OA
BRANCH  31  32
ATOM     32  C   UNL     1     -11.879   4.621   6.556  0.00  0.00    +0.232 C 
BRANCH  32  33
ATOM     33  C   UNL     1     -11.529   5.901   7.318  0.00  0.00    +0.041 C 
BRANCH  33  35
ATOM     34  C   UNL     1     -12.396   7.644   8.884  0.00  0.00    +0.004 C 
ATOM     35  C   UNL     1     -12.745   6.364   8.123  0.00  0.00    -0.000 C 
ENDBRANCH  33  35
ENDBRANCH  32  33
ENDBRANCH  31  32
ENDBRANCH  29  31
ENDBRANCH  23  29
ENDBRANCH   1  26
TORSDOF 9
