REMARK  Name = ZINC18196638
REMARK  4 active torsions:
REMARK  status: ('A' for Active; 'I' for Inactive)
REMARK    1  A    between atoms: C_4  and  N_9
REMARK    2  A    between atoms: C_6  and  C_7
REMARK    3  A    between atoms: C_10  and  C_12
REMARK    4  A    between atoms: C_19  and  C_21
REMARK                            x       y       z     vdW  Elec       q    Type
REMARK                         _______ _______ _______ _____ _____    ______ ____
ROOT
ATOM      1  N   UNL     1      -2.882   3.821   2.860  0.00  0.00    -0.284 N 
ATOM      2  C   UNL     1      -2.617   3.299   1.646  0.00  0.00    +0.222 C 
ATOM      3  O   UNL     1      -3.418   3.423   0.745  0.00  0.00    -0.275 OA
ATOM      4  H   UNL     1      -2.220   3.769   3.566  0.00  0.00    +0.155 HD
ENDROOT
BRANCH   1   8
ATOM      5  C   UNL     1      -6.559   5.662   3.601  0.00  0.00    +0.016 A 
ATOM      6  C   UNL     1      -5.840   5.108   4.640  0.00  0.00    +0.022 A 
ATOM      7  C   UNL     1      -4.625   4.493   4.395  0.00  0.00    +0.062 A 
ATOM      8  C   UNL     1      -4.115   4.440   3.102  0.00  0.00    +0.053 A 
ATOM      9  C   UNL     1      -4.830   4.993   2.053  0.00  0.00    +0.040 A 
ATOM     10  C   UNL     1      -6.059   5.608   2.299  0.00  0.00    +0.065 A 
ATOM     11 CL   UNL     1      -3.730   3.793   5.708  0.00  0.00    -0.082 Cl
BRANCH  10  12
ATOM     12  C   UNL     1      -6.827   6.200   1.185  0.00  0.00    +0.387 C 
ATOM     13  O   UNL     1      -6.389   6.153   0.053  0.00  0.00    -0.241 OA
ATOM     14  O   UNL     1      -8.012   6.794   1.425  0.00  0.00    -0.241 OA
ENDBRANCH  10  12
ENDBRANCH   1   8
BRANCH   2  15
ATOM     15  C   UNL     1      -1.324   2.562   1.410  0.00  0.00    +0.096 C 
ATOM     16  C   UNL     1      -1.308   1.925  -0.017  0.00  0.00    +0.025 C 
ATOM     17  C   UNL     1      -0.870   3.166  -0.872  0.00  0.00    +0.016 C 
ATOM     18  C   UNL     1       0.457   3.380  -0.056  0.00  0.00    +0.027 C 
ATOM     19  C   UNL     1      -0.121   3.547   1.385  0.00  0.00    +0.121 C 
ATOM     20  C   UNL     1       1.008   1.948  -0.073  0.00  0.00    -0.027 C 
ATOM     21  C   UNL     1      -0.009   1.110  -0.047  0.00  0.00    -0.027 C 
BRANCH  19  22
ATOM     22  C   UNL     1      -0.594   4.961   1.605  0.00  0.00    +0.360 C 
ATOM     23  O   UNL     1      -0.925   5.641   0.663  0.00  0.00    -0.246 OA
ATOM     24  O   UNL     1      -0.647   5.465   2.848  0.00  0.00    -0.246 OA
ENDBRANCH  19  22
ENDBRANCH   2  15
TORSDOF 4
