REMARK  Name = ZINC04168303
REMARK  13 active torsions:
REMARK  status: ('A' for Active; 'I' for Inactive)
REMARK    1  A    between atoms: C_1  and  C_2
REMARK    2  A    between atoms: C_2  and  C_3
REMARK    3  A    between atoms: C_2  and  C_4
REMARK    4  A    between atoms: C_2  and  C_5
REMARK    5  A    between atoms: C_12  and  N_30
REMARK    6  A    between atoms: C_13  and  C_28
REMARK    7  A    between atoms: C_14  and  C_16
REMARK    8  A    between atoms: C_19  and  O_26
REMARK    9  A    between atoms: C_20  and  O_24
REMARK   10  A    between atoms: C_21  and  O_22
REMARK   11  A    between atoms: O_22  and  C_23
REMARK   12  A    between atoms: O_24  and  C_25
REMARK   13  A    between atoms: O_26  and  C_27
REMARK                            x       y       z     vdW  Elec       q    Type
REMARK                         _______ _______ _______ _____ _____    ______ ____
ROOT
ATOM      1  C   UNL     1       0.447   0.071  -1.191  0.00  0.00    +0.076 A 
ATOM      2  C   UNL     1       0.716  -1.096  -1.893  0.00  0.00    +0.050 A 
ATOM      3  C   UNL     1       1.385  -0.758  -3.036  0.00  0.00    +0.222 A 
ATOM      4  N   UNL     1       1.525   0.578  -3.045  0.00  0.00    -0.246 N 
ATOM      5  H   UNL     1       1.960   1.102  -3.735  0.00  0.00    +0.192 HD
ATOM      6  N   UNL     1       0.925   1.080  -1.879  0.00  0.00    -0.175 NA
ATOM      7  O   UNL     1       1.796  -1.678  -3.944  0.00  0.00    -0.423 OA
ATOM      8  C   UNL     1       1.777  -2.974  -3.571  0.00  0.00    +0.200 C 
ATOM      9  C   UNL     1       1.141  -3.431  -2.470  0.00  0.00    +0.098 C 
ATOM     10  C   UNL     1       0.374  -2.521  -1.542  0.00  0.00    +0.105 C 
ENDROOT
BRANCH  10  11
ATOM     11  C   UNL     1      -1.106  -2.746  -1.715  0.00  0.00    +0.011 A 
ATOM     12  C   UNL     1      -1.813  -3.453  -0.760  0.00  0.00    +0.012 A 
ATOM     13  C   UNL     1      -3.170  -3.662  -0.914  0.00  0.00    +0.050 A 
ATOM     14  C   UNL     1      -3.829  -3.163  -2.028  0.00  0.00    +0.165 A 
ATOM     15  C   UNL     1      -3.122  -2.452  -2.990  0.00  0.00    +0.204 A 
ATOM     16  C   UNL     1      -1.758  -2.239  -2.829  0.00  0.00    +0.169 A 
BRANCH  16  17
ATOM     17  O   UNL     1      -1.062  -1.540  -3.765  0.00  0.00    -0.491 OA
ATOM     18  C   UNL     1      -0.679  -2.243  -4.949  0.00  0.00    +0.277 C 
ENDBRANCH  16  17
BRANCH  15  19
ATOM     19  O   UNL     1      -3.764  -1.961  -4.085  0.00  0.00    -0.488 OA
ATOM     20  C   UNL     1      -4.309  -0.644  -3.981  0.00  0.00    +0.277 C 
ENDBRANCH  15  19
BRANCH  14  21
ATOM     21  O   UNL     1      -5.164  -3.370  -2.179  0.00  0.00    -0.491 OA
ATOM     22  C   UNL     1      -5.826  -4.110  -1.151  0.00  0.00    +0.277 C 
ENDBRANCH  14  21
ENDBRANCH  10  11
BRANCH   1  24
ATOM     23  C   UNL     1      -0.191   1.597   0.657  0.00  0.00    +0.017 C 
ATOM     24  C   UNL     1      -0.274   0.163   0.130  0.00  0.00    +0.007 C 
ATOM     25  C   UNL     1       0.379  -0.788   1.135  0.00  0.00    +0.017 C 
ATOM     26  C   UNL     1      -1.741  -0.226  -0.063  0.00  0.00    +0.017 C 
ENDBRANCH   1  24
BRANCH   8  27
ATOM     27  N   UNL     1       2.444  -3.882  -4.356  0.00  0.00    -0.328 N 
ATOM     28  H   UNL     1       2.910  -3.584  -5.152  0.00  0.00    +0.145 HD
ATOM     29  H   UNL     1       2.448  -4.821  -4.114  0.00  0.00    +0.145 HD
ENDBRANCH   8  27
BRANCH   9  30
ATOM     30  C   UNL     1       1.195  -4.831  -2.173  0.00  0.00    +0.101 C 
ATOM     31  N   UNL     1       1.238  -5.941  -1.938  0.00  0.00    -0.191 NA
ENDBRANCH   9  30
TORSDOF 7
