REMARK  Name = ZINC09501168
REMARK  9 active torsions:
REMARK  status: ('A' for Active; 'I' for Inactive)
REMARK    1  A    between atoms: C_1  and  C_2
REMARK    2  A    between atoms: C_5  and  N_9
REMARK    3  A    between atoms: C_6  and  C_8
REMARK    4  A    between atoms: C_22  and  S_23
REMARK    5  A    between atoms: S_23  and  C_24
REMARK    6  A    between atoms: C_24  and  C_25
REMARK    7  A    between atoms: N_27  and  C_28
REMARK    8  A    between atoms: C_29  and  C_35
REMARK    9  A    between atoms: C_33  and  C_34
REMARK                            x       y       z     vdW  Elec       q    Type
REMARK                         _______ _______ _______ _____ _____    ______ ____
ROOT
ATOM      1  N   UNL     1      -1.890   2.382  -2.424  0.00  0.00    -0.245 N 
ATOM      2  C   UNL     1      -1.020   1.923  -3.348  0.00  0.00    +0.268 A 
ATOM      3  O   UNL     1      -1.124   0.793  -3.787  0.00  0.00    -0.267 OA
ATOM      4  C   UNL     1       0.054   2.814  -3.822  0.00  0.00    +0.064 A 
ATOM      5  C   UNL     1       0.975   2.391  -4.779  0.00  0.00    +0.015 A 
ATOM      6  C   UNL     1       1.967   3.253  -5.198  0.00  0.00    +0.001 A 
ATOM      7  C   UNL     1       2.050   4.533  -4.673  0.00  0.00    +0.002 A 
ATOM      8  C   UNL     1       1.143   4.964  -3.725  0.00  0.00    +0.027 A 
ATOM      9  C   UNL     1       0.140   4.112  -3.291  0.00  0.00    +0.064 A 
ATOM     10  N   UNL     1      -0.787   4.515  -2.338  0.00  0.00    -0.255 N 
ATOM     11  C   UNL     1      -1.776   3.666  -1.914  0.00  0.00    +0.245 A 
ATOM     12  N   UNL     1      -2.483   4.320  -1.024  0.00  0.00    -0.109 NA
ATOM     13  N   UNL     1      -2.009   5.504  -0.866  0.00  0.00    -0.120 NA
ATOM     14  C   UNL     1      -0.969   5.681  -1.645  0.00  0.00    +0.198 A 
ENDROOT
BRANCH   1  19
ATOM     15  C   UNL     1      -6.057  -0.999  -0.582  0.00  0.00    +0.044 C 
ATOM     16  C   UNL     1      -4.950  -0.101  -1.072  0.00  0.00    -0.050 A 
ATOM     17  C   UNL     1      -3.729  -0.095  -0.422  0.00  0.00    +0.005 A 
ATOM     18  C   UNL     1      -2.711   0.723  -0.872  0.00  0.00    +0.027 A 
ATOM     19  C   UNL     1      -2.918   1.548  -1.970  0.00  0.00    +0.056 A 
ATOM     20  C   UNL     1      -4.145   1.539  -2.619  0.00  0.00    -0.026 A 
ATOM     21  C   UNL     1      -5.158   0.714  -2.169  0.00  0.00    +0.008 A 
ATOM     22  C   UNL     1      -4.372   2.427  -3.815  0.00  0.00    +0.046 C 
ENDBRANCH   1  19
BRANCH  14  23
ATOM     23  S   UNL     1       0.009   7.141  -1.773  0.00  0.00    -0.076 S 
BRANCH  23  24
ATOM     24  C   UNL     1      -0.763   8.291  -0.601  0.00  0.00    +0.173 C 
BRANCH  24  25
ATOM     25  C   UNL     1      -0.013   9.598  -0.612  0.00  0.00    +0.228 C 
ATOM     26  O   UNL     1       0.947   9.741  -1.340  0.00  0.00    -0.275 OA
ATOM     27  N   UNL     1      -0.410  10.609   0.186  0.00  0.00    -0.284 N 
ATOM     28  H   UNL     1      -1.208  10.514   0.729  0.00  0.00    +0.155 HD
BRANCH  27  29
ATOM     29  C   UNL     1       0.330  11.796   0.232  0.00  0.00    +0.039 A 
ATOM     30  C   UNL     1       1.696  11.755   0.477  0.00  0.00    -0.029 A 
ATOM     31  C   UNL     1       2.425  12.928   0.516  0.00  0.00    +0.005 A 
ATOM     32  C   UNL     1       1.793  14.142   0.322  0.00  0.00    +0.001 A 
ATOM     33  C   UNL     1       0.432  14.187   0.084  0.00  0.00    +0.005 A 
ATOM     34  C   UNL     1      -0.301  13.017   0.038  0.00  0.00    -0.029 A 
ATOM     35  C   UNL     1      -1.785  13.067  -0.223  0.00  0.00    +0.045 C 
ATOM     36  C   UNL     1       2.384  10.432   0.695  0.00  0.00    +0.045 C 
ENDBRANCH  27  29
ENDBRANCH  24  25
ENDBRANCH  23  24
ENDBRANCH  14  23
TORSDOF 5
