REMARK  Name = ZINC37365873
REMARK  3 active torsions:
REMARK  status: ('A' for Active; 'I' for Inactive)
REMARK    1  A    between atoms: C_6  and  C_7
REMARK    2  A    between atoms: N_9  and  C_10
REMARK    3  A    between atoms: C_10  and  C_15
REMARK                            x       y       z     vdW  Elec       q    Type
REMARK                         _______ _______ _______ _____ _____    ______ ____
ROOT
ATOM      1  C   UNL     1      -1.168  -0.886   0.009  0.00  0.00    +0.261 C 
ATOM      2  O   UNL     1      -2.288  -0.410   0.024  0.00  0.00    -0.269 OA
ATOM      3  N   UNL     1      -1.004  -2.224   0.001  0.00  0.00    -0.295 N 
ATOM      4  H   UNL     1      -0.111  -2.603  -0.011  0.00  0.00    +0.150 HD
ENDROOT
BRANCH   1  10
ATOM      5  C   UNL     1      -0.017   1.375   0.010  0.00  0.00    +0.053 A 
ATOM      6  C   UNL     1       1.313   1.805  -0.001  0.00  0.00    +0.078 A 
ATOM      7  C   UNL     1       2.107   0.704  -0.014  0.00  0.00    +0.126 A 
ATOM      8  N   UNL     1       1.321  -0.402  -0.013  0.00  0.00    -0.341 N 
ATOM      9  H   UNL     1       1.636  -1.319  -0.021  0.00  0.00    +0.167 HD
ATOM     10  C   UNL     1       0.002  -0.004   0.002  0.00  0.00    +0.104 A 
ATOM     11 CL   UNL     1       3.843   0.710  -0.032  0.00  0.00    -0.063 Cl
ATOM     12 CL   UNL     1       1.854   3.455   0.003  0.00  0.00    -0.080 Cl
ENDBRANCH   1  10
BRANCH   3  13
ATOM     13  C   UNL     1      -2.174  -3.105   0.008  0.00  0.00    +0.136 C 
ATOM     14  C   UNL     1      -2.959  -2.953   1.334  0.00  0.00    +0.037 C 
ATOM     15  C   UNL     1      -2.150  -3.839   2.314  0.00  0.00    +0.003 C 
ATOM     16  C   UNL     1      -1.720  -5.051   1.462  0.00  0.00    +0.003 C 
ATOM     17  C   UNL     1      -1.735  -4.584  -0.005  0.00  0.00    +0.037 C 
BRANCH  13  18
ATOM     18  C   UNL     1      -3.063  -2.809  -1.172  0.00  0.00    +0.379 C 
ATOM     19  O   UNL     1      -2.749  -1.942  -1.970  0.00  0.00    -0.244 OA
ATOM     20  O   UNL     1      -4.097  -3.436  -1.328  0.00  0.00    -0.244 OA
ENDBRANCH  13  18
ENDBRANCH   3  13
TORSDOF 3
