REMARK  Name = ZINC33624945
REMARK  7 active torsions:
REMARK  status: ('A' for Active; 'I' for Inactive)
REMARK    1  A    between atoms: C_1  and  C_2
REMARK    2  A    between atoms: C_5  and  N_9
REMARK    3  A    between atoms: C_14  and  C_32
REMARK    4  A    between atoms: C_17  and  C_22
REMARK    5  A    between atoms: C_17  and  C_29
REMARK    6  A    between atoms: C_22  and  C_23
REMARK    7  A    between atoms: C_37  and  O_38
REMARK                            x       y       z     vdW  Elec       q    Type
REMARK                         _______ _______ _______ _____ _____    ______ ____
ROOT
ATOM      1  N   UNL     1      -2.219   2.563  -2.021  0.00  0.00    -0.210 N 
ATOM      2  C   UNL     1      -0.993   2.851  -2.551  0.00  0.00    +0.229 C 
ATOM      3  O   UNL     1      -0.753   3.600  -3.474  0.00  0.00    -0.275 OA
ATOM      4  C   UNL     1      -0.006   2.052  -1.760  0.00  0.00    +0.077 C 
ATOM      5  C   UNL     1       1.324   2.640  -1.319  0.00  0.00    -0.023 C 
ATOM      6  N   UNL     1       1.503   2.207   0.100  0.00  0.00    +0.396 N 
ATOM      7  C   UNL     1       0.225   1.552   0.545  0.00  0.00    +0.048 C 
ATOM      8  C   UNL     1      -0.765   2.129  -0.381  0.00  0.00    +0.086 C 
ATOM      9  C   UNL     1      -2.136   1.957  -0.792  0.00  0.00    +0.229 C 
ATOM     10  O   UNL     1      -3.024   1.399  -0.183  0.00  0.00    -0.275 OA
ATOM     11  H   UNL     1       2.339   1.495   0.163  0.00  0.00    -0.083 HD
ATOM     12  H   UNL     1       1.720   3.085   0.726  0.00  0.00    -0.083 HD
ENDROOT
BRANCH   1  17
ATOM     13  C   UNL     1      -7.124   3.746  -4.622  0.00  0.00    +0.045 C 
ATOM     14  C   UNL     1      -5.822   3.432  -3.931  0.00  0.00    -0.032 A 
ATOM     15  C   UNL     1      -4.623   3.756  -4.538  0.00  0.00    +0.006 A 
ATOM     16  C   UNL     1      -3.428   3.470  -3.908  0.00  0.00    +0.024 A 
ATOM     17  C   UNL     1      -3.431   2.855  -2.663  0.00  0.00    +0.045 A 
ATOM     18  C   UNL     1      -4.636   2.526  -2.057  0.00  0.00    +0.044 A 
ATOM     19  C   UNL     1      -5.829   2.820  -2.691  0.00  0.00    +0.046 A 
ATOM     20 CL   UNL     1      -7.337   2.414  -1.931  0.00  0.00    -0.083 Cl
ENDBRANCH   1  17
BRANCH   5  21
ATOM     21  C   UNL     1       1.282   4.144  -1.404  0.00  0.00    -0.019 A 
ATOM     22  C   UNL     1       0.798   4.883  -0.341  0.00  0.00    +0.005 A 
ATOM     23  C   UNL     1       0.764   6.263  -0.416  0.00  0.00    +0.000 A 
ATOM     24  C   UNL     1       1.203   6.907  -1.559  0.00  0.00    +0.004 A 
ATOM     25  C   UNL     1       1.683   6.173  -2.626  0.00  0.00    +0.045 A 
ATOM     26  C   UNL     1       1.723   4.787  -2.551  0.00  0.00    +0.118 A 
BRANCH  26  27
ATOM     27  O   UNL     1       2.194   4.063  -3.599  0.00  0.00    -0.507 OA
ATOM     28  H   UNL     1       2.544   4.574  -4.508  0.00  0.00    +0.292 HD
ENDBRANCH  26  27
ENDBRANCH   5  21
BRANCH   7  29
ATOM     29  C   UNL     1      -0.095   1.916   1.972  0.00  0.00    +0.346 C 
ATOM     30  O   UNL     1      -1.238   2.133   2.299  0.00  0.00    -0.248 OA
ATOM     31  O   UNL     1       0.890   1.999   2.880  0.00  0.00    -0.248 OA
ENDBRANCH   7  29
BRANCH   7  32
ATOM     32  C   UNL     1       0.305   0.034   0.378  0.00  0.00    +0.003 C 
BRANCH  32  33
ATOM     33  C   UNL     1       1.367  -0.528   1.325  0.00  0.00    -0.012 C 
ATOM     34  C   UNL     1       2.750  -0.046   0.884  0.00  0.00    +0.003 C 
ATOM     35  C   UNL     1       3.812  -0.608   1.831  0.00  0.00    +0.000 C 
ATOM     36  C   UNL     1       3.770  -2.137   1.796  0.00  0.00    +0.000 C 
ATOM     37  C   UNL     1       2.386  -2.619   2.237  0.00  0.00    +0.000 C 
ATOM     38  C   UNL     1       1.324  -2.057   1.290  0.00  0.00    +0.003 C 
ENDBRANCH  32  33
ENDBRANCH   7  32
TORSDOF 6
