REMARK  Name = ZINC09514744
REMARK  6 active torsions:
REMARK  status: ('A' for Active; 'I' for Inactive)
REMARK    1  A    between atoms: C_1  and  N_50
REMARK    2  A    between atoms: C_2  and  C_3
REMARK    3  A    between atoms: C_2  and  N_50
REMARK    4  A    between atoms: C_13  and  C_14
REMARK    5  A    between atoms: C_13  and  N_50
REMARK    6  A    between atoms: N_19  and  C_20
REMARK                            x       y       z     vdW  Elec       q    Type
REMARK                         _______ _______ _______ _____ _____    ______ ____
ROOT
ATOM      1  C   UNL     1       1.242   9.395  -1.395  0.00  0.00    +0.019 C 
ENDROOT
BRANCH   1   2
ATOM      2  C   UNL     1       1.459   9.830  -2.821  0.00  0.00    +0.204 C 
ATOM      3  O   UNL     1       1.435   9.011  -3.715  0.00  0.00    -0.277 OA
ATOM      4  N   UNL     1       1.681  11.130  -3.103  0.00  0.00    -0.242 N 
ATOM      5  C   UNL     1       1.875  11.518  -4.379  0.00  0.00    +0.306 C 
ATOM      6  O   UNL     1       1.851  10.698  -5.275  0.00  0.00    -0.252 OA
ATOM      7  N   UNL     1       2.097  12.818  -4.661  0.00  0.00    -0.295 N 
ATOM      8  H   UNL     1       1.700  11.785  -2.388  0.00  0.00    +0.159 HD
ATOM      9  H   UNL     1       2.116  13.473  -3.946  0.00  0.00    +0.151 HD
BRANCH   7  10
ATOM     10  C   UNL     1       2.309  13.240  -6.048  0.00  0.00    +0.097 C 
ATOM     11  C   UNL     1       0.947  13.466  -6.726  0.00  0.00    +0.046 C 
ATOM     12  C   UNL     1       1.194  14.205  -8.072  0.00  0.00    +0.168 C 
ATOM     13  S   UNL     1       2.494  15.408  -7.563  0.00  0.00    -0.029 S 
ATOM     14  O   UNL     1       1.871  16.623  -7.172  0.00  0.00    -0.174 OA
ATOM     15  O   UNL     1       3.514  15.430  -8.552  0.00  0.00    -0.174 OA
ATOM     16  C   UNL     1       3.131  14.552  -6.065  0.00  0.00    +0.188 C 
ENDBRANCH   7  10
ENDBRANCH   1   2
BRANCH   1  18
ATOM     17  C   UNL     1      -0.231   7.580  -2.025  0.00  0.00    -0.095 C 
ATOM     18  N   UNL     1       1.045   7.931  -1.368  0.00  0.00    +0.386 N 
ATOM     19  H   UNL     1       1.816   7.481  -1.875  0.00  0.00    -0.081 HD
BRANCH  18  20
ATOM     20  C   UNL     1       1.044   7.447   0.029  0.00  0.00    -0.043 C 
BRANCH  20  21
ATOM     21  C   UNL     1       1.064   5.940   0.022  0.00  0.00    -0.063 A 
ATOM     22  C   UNL     1       2.286   5.270   0.007  0.00  0.00    +0.002 A 
ATOM     23  C   UNL     1       2.340   3.910  -0.000  0.00  0.00    +0.009 A 
ATOM     24  C   UNL     1       1.147   3.167   0.008  0.00  0.00    -0.018 A 
ATOM     25  C   UNL     1       1.163   1.762   0.000  0.00  0.00    +0.008 A 
ATOM     26  C   UNL     1      -0.013   1.076   0.008  0.00  0.00    +0.001 A 
ATOM     27  C   UNL     1      -1.235   1.746   0.017  0.00  0.00    +0.001 A 
ATOM     28  C   UNL     1      -1.288   3.106   0.031  0.00  0.00    +0.008 A 
ATOM     29  C   UNL     1      -0.096   3.849   0.023  0.00  0.00    -0.018 A 
ATOM     30  C   UNL     1      -0.111   5.254   0.030  0.00  0.00    +0.010 A 
ENDBRANCH  20  21
ENDBRANCH  18  20
ENDBRANCH   1  18
TORSDOF 5
