REMARK  Name = ZINC50350780
REMARK  5 active torsions:
REMARK  status: ('A' for Active; 'I' for Inactive)
REMARK    1  A    between atoms: C_5  and  C_8
REMARK    2  A    between atoms: C_5  and  N_10
REMARK    3  A    between atoms: C_8  and  N_9
REMARK    4  A    between atoms: N_10  and  S_11
REMARK    5  A    between atoms: S_11  and  C_14
REMARK                            x       y       z     vdW  Elec       q    Type
REMARK                         _______ _______ _______ _____ _____    ______ ____
ROOT
ATOM      1  N   UNL     1       3.436  -1.050   0.015  0.00  0.00    -0.190 NA
ATOM      2  H   UNL     1       2.741  -1.048  -0.662  0.00  0.00    +0.148 HD
ENDROOT
BRANCH   1   7
ATOM      3  C   UNL     1       0.805   0.767  -0.328  0.00  0.00    +0.000 C 
ATOM      4  C   UNL     1       2.166   1.395  -0.691  0.00  0.00    +0.000 C 
ATOM      5  C   UNL     1       2.762   1.995   0.554  0.00  0.00    +0.002 C 
ATOM      6  C   UNL     1       3.723   1.028   1.272  0.00  0.00    +0.022 C 
ATOM      7  C   UNL     1       3.194  -0.418   1.314  0.00  0.00    +0.024 C 
ATOM      8  C   UNL     1       1.723  -0.484   1.622  0.00  0.00    +0.022 C 
ATOM      9  C   UNL     1       0.946  -0.543   0.290  0.00  0.00    +0.002 C 
BRANCH   7  10
ATOM     10  C   UNL     1       3.959  -1.194   2.389  0.00  0.00    -0.062 C 
BRANCH  10  11
ATOM     11  N   UNL     1       3.382  -2.537   2.527  0.00  0.00    +0.379 N 
ATOM     12  H   UNL     1       2.516  -2.480   3.042  0.00  0.00    -0.090 HD
ATOM     13  H   UNL     1       3.204  -2.923   1.612  0.00  0.00    -0.090 HD
ATOM     14  H   UNL     1       4.029  -3.132   3.022  0.00  0.00    -0.090 HD
ENDBRANCH  10  11
ENDBRANCH   7  10
ENDBRANCH   1   7
BRANCH   1  15
ATOM     15  S   UNL     1       4.895  -1.766  -0.299  0.00  0.00    +0.033 S 
ATOM     16  O   UNL     1       5.060  -2.723   0.739  0.00  0.00    -0.158 OA
ATOM     17  O   UNL     1       4.813  -2.177  -1.657  0.00  0.00    -0.158 OA
BRANCH  15  18
ATOM     18  C   UNL     1       6.116  -0.436  -0.121  0.00  0.00    +0.151 C 
ATOM     19  C   UNL     1       5.861   0.625  -1.187  0.00  0.00    +0.050 C 
ATOM     20  C   UNL     1       6.697   1.873  -0.892  0.00  0.00    +0.168 C 
ATOM     21  S   UNL     1       8.459   1.438  -0.989  0.00  0.00    -0.031 S 
ATOM     22  O   UNL     1       8.739   0.982  -2.306  0.00  0.00    -0.174 OA
ATOM     23  O   UNL     1       9.219   2.510  -0.450  0.00  0.00    -0.174 OA
ATOM     24  C   UNL     1       8.562   0.023   0.146  0.00  0.00    +0.168 C 
ATOM     25  C   UNL     1       7.519  -1.019  -0.264  0.00  0.00    +0.050 C 
ENDBRANCH  15  18
ENDBRANCH   1  15
TORSDOF 5
