REMARK  Name = ZINC12192281
REMARK  14 active torsions:
REMARK  status: ('A' for Active; 'I' for Inactive)
REMARK    1  A    between atoms: C_1  and  C_2
REMARK    2  A    between atoms: C_5  and  C_7
REMARK    3  A    between atoms: C_7  and  C_9
REMARK    4  A    between atoms: C_7  and  C_10
REMARK    5  A    between atoms: C_10  and  C_11
REMARK    6  A    between atoms: C_11  and  N_75
REMARK    7  A    between atoms: C_14  and  C_17
REMARK    8  A    between atoms: C_17  and  C_19
REMARK    9  A    between atoms: C_17  and  N_26
REMARK   10  A    between atoms: C_19  and  C_20
REMARK   11  A    between atoms: N_26  and  C_27
REMARK   12  A    between atoms: C_28  and  C_30
REMARK   13  A    between atoms: C_32  and  C_36
REMARK   14  A    between atoms: N_34  and  C_35
REMARK                            x       y       z     vdW  Elec       q    Type
REMARK                         _______ _______ _______ _____ _____    ______ ____
ROOT
ATOM      1  C   UNL     1     -10.070  -2.108   2.862  0.00  0.00    +0.083 C 
ENDROOT
BRANCH   1   4
ATOM      2  C   UNL     1      -6.978   0.103   2.257  0.00  0.00    -0.079 C 
ATOM      3  C   UNL     1      -7.921  -1.090   2.091  0.00  0.00    -0.013 C 
ATOM      4  C   UNL     1      -9.152  -0.889   2.978  0.00  0.00    +0.006 C 
ATOM      5  C   UNL     1      -8.702  -0.725   4.432  0.00  0.00    -0.013 C 
ATOM      6  C   UNL     1      -7.737   0.459   4.531  0.00  0.00    -0.079 C 
ATOM      7  N   UNL     1      -6.562   0.193   3.673  0.00  0.00    +0.380 N 
ATOM      8  H   UNL     1      -6.141  -0.701   3.953  0.00  0.00    -0.082 HD
BRANCH   7   9
ATOM      9  C   UNL     1      -5.562   1.268   3.839  0.00  0.00    -0.078 C 
BRANCH   9  10
ATOM     10  C   UNL     1      -4.276   0.859   3.119  0.00  0.00    -0.008 C 
BRANCH  10  11
ATOM     11  C   UNL     1      -3.221   1.952   3.300  0.00  0.00    +0.050 C 
ATOM     12  C   UNL     1      -3.686   3.231   2.602  0.00  0.00    +0.015 C 
BRANCH  11  17
ATOM     13  C   UNL     1       0.182   0.374  -0.072  0.00  0.00    +0.086 C 
ATOM     14  C   UNL     1      -0.437   0.810   1.230  0.00  0.00    +0.102 A 
ATOM     15  C   UNL     1       0.201   0.909   2.411  0.00  0.00    +0.044 A 
ATOM     16  C   UNL     1      -0.753   1.351   3.356  0.00  0.00    +0.045 A 
ATOM     17  C   UNL     1      -1.917   1.496   2.697  0.00  0.00    +0.108 A 
ATOM     18  O   UNL     1      -1.718   1.173   1.408  0.00  0.00    -0.465 OA
ENDBRANCH  11  17
ENDBRANCH  10  11
ENDBRANCH   9  10
ENDBRANCH   7   9
ENDBRANCH   1   4
BRANCH   1  19
ATOM     19  N   UNL     1     -11.244  -1.918   3.718  0.00  0.00    -0.296 N 
ATOM     20  C   UNL     1     -12.138  -0.779   3.493  0.00  0.00    +0.132 C 
ATOM     21  C   UNL     1     -11.502  -2.791   4.712  0.00  0.00    +0.265 C 
ATOM     22  O   UNL     1     -10.755  -3.732   4.904  0.00  0.00    -0.268 OA
BRANCH  21  23
ATOM     23  C   UNL     1     -12.688  -2.607   5.564  0.00  0.00    +0.123 A 
ATOM     24  C   UNL     1     -13.720  -1.706   5.368  0.00  0.00    +0.057 A 
ATOM     25  C   UNL     1     -14.599  -1.912   6.433  0.00  0.00    +0.061 A 
ATOM     26  N   UNL     1     -14.104  -2.863   7.184  0.00  0.00    -0.176 NA
ATOM     27  N   UNL     1     -12.993  -3.295   6.703  0.00  0.00    -0.262 N 
ATOM     28  C   UNL     1     -12.177  -4.361   7.290  0.00  0.00    +0.173 C 
ATOM     29  C   UNL     1     -15.888  -1.170   6.677  0.00  0.00    +0.067 C 
ENDBRANCH  21  23
ENDBRANCH   1  19
BRANCH   1  30
ATOM     30  C   UNL     1     -10.520  -2.272   1.409  0.00  0.00    +0.058 C 
BRANCH  30  31
ATOM     31  C   UNL     1     -11.322  -3.540   1.271  0.00  0.00    -0.046 A 
ATOM     32  C   UNL     1     -10.689  -4.729   0.961  0.00  0.00    +0.004 A 
ATOM     33  C   UNL     1     -11.425  -5.893   0.840  0.00  0.00    +0.000 A 
ATOM     34  C   UNL     1     -12.796  -5.865   1.018  0.00  0.00    +0.000 A 
ATOM     35  C   UNL     1     -13.430  -4.675   1.322  0.00  0.00    +0.000 A 
ATOM     36  C   UNL     1     -12.693  -3.513   1.449  0.00  0.00    +0.004 A 
ENDBRANCH  30  31
ENDBRANCH   1  30
TORSDOF 9
