REMARK  Name = ZINC10203467
REMARK  14 active torsions:
REMARK  status: ('A' for Active; 'I' for Inactive)
REMARK    1  A    between atoms: C_1  and  C_2
REMARK    2  A    between atoms: C_2  and  O_3
REMARK    3  A    between atoms: O_3  and  C_4
REMARK    4  A    between atoms: C_9  and  C_10
REMARK    5  A    between atoms: C_12  and  C_15
REMARK    6  A    between atoms: C_15  and  N_60
REMARK    7  A    between atoms: C_16  and  C_17
REMARK    8  A    between atoms: C_16  and  N_60
REMARK    9  A    between atoms: C_20  and  O_26
REMARK   10  A    between atoms: C_21  and  O_23
REMARK   11  A    between atoms: O_23  and  C_24
REMARK   12  A    between atoms: C_24  and  C_25
REMARK   13  A    between atoms: O_26  and  C_27
REMARK   14  A    between atoms: C_30  and  N_60
REMARK                            x       y       z     vdW  Elec       q    Type
REMARK                         _______ _______ _______ _____ _____    ______ ____
ROOT
ATOM      1  N   UNL     1       2.370  -2.232   3.748  0.00  0.00    +0.390 N 
ATOM      2  H   UNL     1       1.550  -2.327   4.360  0.00  0.00    -0.080 HD
ENDROOT
BRANCH   1   3
ATOM      3  C   UNL     1       1.958  -2.483   2.351  0.00  0.00    -0.068 C 
ATOM      4  C   UNL     1       0.467  -2.333   2.041  0.00  0.00    -0.017 C 
ATOM      5  C   UNL     1       1.101  -3.724   2.097  0.00  0.00    -0.017 C 
ENDBRANCH   1   3
BRANCH   1   6
ATOM      6  C   UNL     1       3.392  -3.218   4.159  0.00  0.00    +0.022 C 
BRANCH   6   9
ATOM      7  C   UNL     1       1.958  -6.514   4.163  0.00  0.00    +0.206 A 
ATOM      8  N   UNL     1       2.650  -5.538   3.531  0.00  0.00    -0.193 NA
ATOM      9  C   UNL     1       2.719  -4.547   4.384  0.00  0.00    +0.211 A 
ATOM     10  O   UNL     1       2.086  -4.938   5.495  0.00  0.00    -0.340 OA
ATOM     11  N   UNL     1       1.652  -6.061   5.352  0.00  0.00    -0.056 NA
BRANCH   7  17
ATOM     12  C   UNL     1       0.888  -8.760   4.385  0.00  0.00    +0.131 A 
ATOM     13  C   UNL     1       0.569 -10.003   3.862  0.00  0.00    +0.046 A 
ATOM     14  C   UNL     1       0.965 -10.337   2.581  0.00  0.00    +0.004 A 
ATOM     15  C   UNL     1       1.681  -9.435   1.814  0.00  0.00    +0.001 A 
ATOM     16  C   UNL     1       2.001  -8.192   2.320  0.00  0.00    +0.015 A 
ATOM     17  C   UNL     1       1.612  -7.846   3.612  0.00  0.00    +0.064 A 
BRANCH  12  18
ATOM     18  O   UNL     1       0.500  -8.430   5.644  0.00  0.00    -0.492 OA
BRANCH  18  20
ATOM     19  C   UNL     1      -0.584  -8.865   7.760  0.00  0.00    +0.048 C 
ATOM     20  C   UNL     1      -0.236  -9.413   6.374  0.00  0.00    +0.226 C 
ENDBRANCH  18  20
ENDBRANCH  12  18
ENDBRANCH   7  17
ENDBRANCH   6   9
ENDBRANCH   1   6
BRANCH   1  21
ATOM     21  C   UNL     1       2.909  -0.862   3.878  0.00  0.00    -0.042 C 
BRANCH  21  22
ATOM     22  C   UNL     1       1.788   0.123   3.669  0.00  0.00    -0.060 A 
ATOM     23  C   UNL     1       1.027   0.542   4.745  0.00  0.00    +0.005 A 
ATOM     24  C   UNL     1      -0.003   1.445   4.558  0.00  0.00    +0.050 A 
ATOM     25  C   UNL     1      -0.274   1.933   3.290  0.00  0.00    +0.168 A 
ATOM     26  C   UNL     1       0.492   1.512   2.207  0.00  0.00    +0.162 A 
ATOM     27  C   UNL     1       1.519   0.603   2.400  0.00  0.00    +0.051 A 
BRANCH  26  28
ATOM     28  O   UNL     1       0.229   1.989   0.960  0.00  0.00    -0.489 OA
BRANCH  28  29
ATOM     29  C   UNL     1       1.056   1.513  -0.104  0.00  0.00    +0.226 C 
ATOM     30  C   UNL     1       0.613   2.155  -1.420  0.00  0.00    +0.048 C 
ENDBRANCH  28  29
ENDBRANCH  26  28
BRANCH  25  31
ATOM     31  O   UNL     1      -1.286   2.822   3.104  0.00  0.00    -0.431 OA
BRANCH  31  32
ATOM     32  C   UNL     1      -2.030   3.209   4.261  0.00  0.00    +0.541 C 
ATOM     33  F   UNL     1      -2.623   2.079   4.834  0.00  0.00    -0.166 F 
ATOM     34  F   UNL     1      -1.171   3.807   5.189  0.00  0.00    -0.166 F 
ENDBRANCH  31  32
ENDBRANCH  25  31
ENDBRANCH  21  22
ENDBRANCH   1  21
TORSDOF 12
