REMARK  Name = ZINC04281242
REMARK  8 active torsions:
REMARK  status: ('A' for Active; 'I' for Inactive)
REMARK    1  A    between atoms: C_1  and  C_2
REMARK    2  A    between atoms: C_2  and  C_26
REMARK    3  A    between atoms: C_5  and  C_24
REMARK    4  A    between atoms: C_6  and  N_12
REMARK    5  A    between atoms: C_9  and  C_10
REMARK    6  A    between atoms: C_9  and  C_11
REMARK    7  A    between atoms: C_13  and  C_15
REMARK    8  A    between atoms: C_18  and  N_21
REMARK                            x       y       z     vdW  Elec       q    Type
REMARK                         _______ _______ _______ _____ _____    ______ ____
ROOT
ATOM      1  C   UNL     1      -0.013   1.086   0.008  0.00  0.00    -0.010 C 
ATOM      2  C   UNL     1      -0.729   1.580   1.268  0.00  0.00    -0.069 C 
ATOM      3  C   UNL     1      -2.138   0.980   1.315  0.00  0.00    +0.024 C 
ATOM      4  C   UNL     1      -2.983   1.650   0.241  0.00  0.00    -0.021 A 
ATOM      5  C   UNL     1      -4.133   1.058  -0.411  0.00  0.00    +0.084 A 
ATOM      6  C   UNL     1      -4.797   1.828  -1.358  0.00  0.00    +0.090 A 
ATOM      7  S   UNL     1      -3.896   3.308  -1.369  0.00  0.00    -0.078 S 
ATOM      8  C   UNL     1      -2.674   2.907  -0.153  0.00  0.00    -0.015 A 
ATOM      9  C   UNL     1      -1.544   3.749   0.345  0.00  0.00    -0.041 C 
ATOM     10  C   UNL     1      -2.140   5.007   1.007  0.00  0.00    -0.005 C 
ATOM     11  C   UNL     1      -0.678   4.203  -0.835  0.00  0.00    -0.005 C 
ATOM     12  C   UNL     1       0.049   1.047   2.488  0.00  0.00    -0.010 C 
ATOM     13  N   UNL     1      -0.716   3.061   1.376  0.00  0.00    +0.389 N 
ATOM     14  H   UNL     1       0.254   3.383   1.279  0.00  0.00    -0.084 HD
ATOM     15  H   UNL     1      -1.073   3.320   2.303  0.00  0.00    -0.084 HD
ENDROOT
BRANCH   6  16
ATOM     16  N   UNL     1      -5.913   1.492  -2.110  0.00  0.00    -0.275 N 
ATOM     17  C   UNL     1      -6.425   2.377  -2.989  0.00  0.00    +0.249 C 
ATOM     18  O   UNL     1      -5.908   3.469  -3.122  0.00  0.00    -0.270 OA
ATOM     19  H   UNL     1      -6.325   0.620  -2.004  0.00  0.00    +0.156 HD
BRANCH  17  20
ATOM     20  C   UNL     1      -7.613   2.018  -3.791  0.00  0.00    +0.037 A 
ATOM     21  C   UNL     1      -8.205   0.762  -3.644  0.00  0.00    +0.015 A 
ATOM     22  C   UNL     1      -9.317   0.436  -4.393  0.00  0.00    +0.033 A 
ATOM     23  C   UNL     1      -9.840   1.347  -5.294  0.00  0.00    +0.126 A 
ATOM     24  C   UNL     1      -9.255   2.591  -5.447  0.00  0.00    +0.033 A 
ATOM     25  C   UNL     1      -8.146   2.932  -4.702  0.00  0.00    +0.015 A 
BRANCH  23  26
ATOM     26  N   UNL     1     -11.031   0.988  -6.097  0.00  0.00    +0.056 N 
ATOM     27  O   UNL     1     -11.493   1.788  -6.891  0.00  0.00    -0.126 OA
ATOM     28  O   UNL     1     -11.548  -0.106  -5.964  0.00  0.00    -0.126 OA
ENDBRANCH  23  26
ENDBRANCH  17  20
ENDBRANCH   6  16
BRANCH   5  29
ATOM     29  C   UNL     1      -4.578  -0.266  -0.098  0.00  0.00    +0.102 C 
ATOM     30  N   UNL     1      -4.931  -1.317   0.150  0.00  0.00    -0.191 NA
ENDBRANCH   5  29
TORSDOF 4
