REMARK  Name = ZINC02743581
REMARK  6 active torsions:
REMARK  status: ('A' for Active; 'I' for Inactive)
REMARK    1  A    between atoms: C_4  and  C_7
REMARK    2  A    between atoms: C_17  and  C_19
REMARK    3  A    between atoms: C_19  and  S_20
REMARK    4  A    between atoms: S_20  and  C_21
REMARK    5  A    between atoms: C_24  and  C_32
REMARK    6  A    between atoms: N_25  and  C_26
REMARK                            x       y       z     vdW  Elec       q    Type
REMARK                         _______ _______ _______ _____ _____    ______ ____
ROOT
ATOM      1  C   UNL     1       2.508  -3.947   1.564  0.00  0.00    +0.032 C 
ATOM      2  C   UNL     1       2.678  -2.435   1.699  0.00  0.00    +0.065 C 
ATOM      3  C   UNL     1       1.345  -1.741   1.736  0.00  0.00    +0.057 A 
ATOM      4  C   UNL     1       0.178  -2.414   2.113  0.00  0.00    +0.057 A 
ATOM      5  C   UNL     1      -1.034  -1.713   2.134  0.00  0.00    +0.127 A 
ATOM      6  N   UNL     1      -1.031  -0.436   1.794  0.00  0.00    -0.222 NA
ATOM      7  C   UNL     1       0.094   0.169   1.440  0.00  0.00    +0.222 A 
ATOM      8  N   UNL     1       1.258  -0.465   1.404  0.00  0.00    -0.218 NA
ATOM      9  N   UNL     1       0.051   1.508   1.091  0.00  0.00    -0.254 N 
ATOM     10  C   UNL     1      -1.122   2.172   1.109  0.00  0.00    +0.230 C 
ATOM     11  O   UNL     1      -2.139   1.596   1.431  0.00  0.00    -0.274 OA
ATOM     12  C   UNL     1       0.227  -3.838   2.477  0.00  0.00    +0.167 C 
ATOM     13  O   UNL     1      -0.788  -4.489   2.607  0.00  0.00    -0.292 OA
ATOM     14  C   UNL     1       1.593  -4.461   2.684  0.00  0.00    +0.088 C 
ATOM     15  H   UNL     1       0.864   1.967   0.829  0.00  0.00    +0.158 HD
ENDROOT
BRANCH   1  19
ATOM     16  C   UNL     1       6.325  -5.840   1.862  0.00  0.00    +0.000 A 
ATOM     17  C   UNL     1       5.567  -5.990   0.716  0.00  0.00    +0.000 A 
ATOM     18  C   UNL     1       4.332  -5.377   0.620  0.00  0.00    +0.004 A 
ATOM     19  C   UNL     1       3.854  -4.615   1.669  0.00  0.00    -0.044 A 
ATOM     20  C   UNL     1       4.615  -4.460   2.813  0.00  0.00    +0.004 A 
ATOM     21  C   UNL     1       5.849  -5.077   2.912  0.00  0.00    +0.000 A 
ENDBRANCH   1  19
BRANCH  10  22
ATOM     22  C   UNL     1      -1.169   3.629   0.728  0.00  0.00    +0.173 C 
BRANCH  22  23
ATOM     23  S   UNL     1      -2.871   4.231   0.852  0.00  0.00    -0.077 S 
BRANCH  23  24
ATOM     24  C   UNL     1      -2.639   5.908   0.366  0.00  0.00    +0.193 A 
ATOM     25  N   UNL     1      -1.501   6.471   0.026  0.00  0.00    -0.122 NA
ATOM     26  N   UNL     1      -1.692   7.707  -0.271  0.00  0.00    -0.128 NA
ATOM     27  C   UNL     1      -2.962   8.009  -0.140  0.00  0.00    +0.167 A 
ATOM     28  N   UNL     1      -3.609   6.864   0.267  0.00  0.00    -0.299 N 
BRANCH  28  29
ATOM     29  C   UNL     1      -5.040   6.706   0.539  0.00  0.00    +0.091 C 
ATOM     30  C   UNL     1      -5.231   6.144   1.950  0.00  0.00    +0.025 C 
ATOM     31  C   UNL     1      -6.725   5.979   2.235  0.00  0.00    +0.002 C 
ATOM     32  C   UNL     1      -7.335   5.014   1.216  0.00  0.00    +0.000 C 
ATOM     33  C   UNL     1      -7.144   5.576  -0.195  0.00  0.00    +0.002 C 
ATOM     34  C   UNL     1      -5.650   5.742  -0.480  0.00  0.00    +0.025 C 
ENDBRANCH  28  29
BRANCH  27  35
ATOM     35  C   UNL     1      -3.583   9.328  -0.388  0.00  0.00    +0.037 A 
ATOM     36  C   UNL     1      -4.900   9.419  -0.853  0.00  0.00    +0.014 A 
ATOM     37  C   UNL     1      -5.435  10.677  -1.063  0.00  0.00    +0.020 A 
ATOM     38  C   UNL     1      -4.656  11.794  -0.821  0.00  0.00    +0.111 A 
ATOM     39  N   UNL     1      -3.415  11.678  -0.388  0.00  0.00    -0.263 NA
ATOM     40  C   UNL     1      -2.863  10.503  -0.168  0.00  0.00    +0.122 A 
ENDBRANCH  27  35
ENDBRANCH  23  24
ENDBRANCH  22  23
ENDBRANCH  10  22
TORSDOF 6
