REMARK  Name = ZINC04835703
REMARK  8 active torsions:
REMARK  status: ('A' for Active; 'I' for Inactive)
REMARK    1  A    between atoms: C_1  and  C_2
REMARK    2  A    between atoms: C_2  and  C_3
REMARK    3  A    between atoms: C_2  and  N_4
REMARK    4  A    between atoms: C_8  and  C_10
REMARK    5  A    between atoms: C_10  and  S_11
REMARK    6  A    between atoms: S_11  and  C_12
REMARK    7  A    between atoms: C_15  and  C_23
REMARK    8  A    between atoms: N_16  and  C_17
REMARK                            x       y       z     vdW  Elec       q    Type
REMARK                         _______ _______ _______ _____ _____    ______ ____
ROOT
ATOM      1  C   UNL     1       0.676  -2.914  -0.951  0.00  0.00    +0.197 A 
ATOM      2  N   UNL     1       0.968  -4.145  -0.597  0.00  0.00    -0.122 NA
ATOM      3  N   UNL     1       1.633  -4.144   0.502  0.00  0.00    -0.128 NA
ATOM      4  C   UNL     1       1.813  -2.911   0.917  0.00  0.00    +0.169 A 
ATOM      5  N   UNL     1       1.200  -2.083   0.002  0.00  0.00    -0.270 N 
ENDROOT
BRANCH   5   6
ATOM      6  C   UNL     1       1.133  -0.684   0.036  0.00  0.00    +0.051 A 
ATOM      7  C   UNL     1      -0.084  -0.051   0.247  0.00  0.00    +0.026 A 
ATOM      8  C   UNL     1      -0.147   1.329   0.280  0.00  0.00    +0.002 A 
ATOM      9  C   UNL     1       1.001   2.079   0.104  0.00  0.00    +0.000 A 
ATOM     10  C   UNL     1       2.215   1.451  -0.106  0.00  0.00    +0.002 A 
ATOM     11  C   UNL     1       2.284   0.072  -0.140  0.00  0.00    +0.026 A 
ENDBRANCH   5   6
BRANCH   4  12
ATOM     12  C   UNL     1       2.533  -2.490   2.138  0.00  0.00    +0.020 A 
ATOM     13  C   UNL     1       3.405  -3.373   2.776  0.00  0.00    +0.011 A 
ATOM     14  C   UNL     1       4.079  -2.973   3.911  0.00  0.00    +0.001 A 
ATOM     15  C   UNL     1       3.882  -1.703   4.424  0.00  0.00    +0.000 A 
ATOM     16  C   UNL     1       3.014  -0.825   3.800  0.00  0.00    +0.001 A 
ATOM     17  C   UNL     1       2.339  -1.211   2.660  0.00  0.00    +0.011 A 
ENDBRANCH   4  12
BRANCH   1  18
ATOM     18  S   UNL     1      -0.224  -2.423  -2.385  0.00  0.00    -0.076 S 
BRANCH  18  19
ATOM     19  C   UNL     1      -0.562  -4.045  -3.113  0.00  0.00    +0.173 C 
BRANCH  19  24
ATOM     20  N   UNL     1      -2.781  -5.870  -6.968  0.00  0.00    -0.297 N 
ATOM     21  C   UNL     1      -2.414  -4.791  -6.248  0.00  0.00    +0.306 C 
ATOM     22  O   UNL     1      -2.714  -3.677  -6.628  0.00  0.00    -0.252 OA
ATOM     23  N   UNL     1      -1.713  -4.949  -5.108  0.00  0.00    -0.239 N 
ATOM     24  C   UNL     1      -1.346  -3.870  -4.388  0.00  0.00    +0.231 C 
ATOM     25  O   UNL     1      -1.646  -2.758  -4.767  0.00  0.00    -0.274 OA
ATOM     26  H   UNL     1      -2.541  -6.760  -6.665  0.00  0.00    +0.151 HD
ATOM     27  H   UNL     1      -1.473  -5.838  -4.805  0.00  0.00    +0.159 HD
BRANCH  20  29
ATOM     28  C   UNL     1      -2.579  -5.437  -9.366  0.00  0.00    +0.027 C 
ATOM     29  C   UNL     1      -3.542  -5.699  -8.207  0.00  0.00    +0.068 C 
ATOM     30  C   UNL     1      -4.347  -6.970  -8.491  0.00  0.00    +0.027 C 
ENDBRANCH  20  29
ENDBRANCH  19  24
ENDBRANCH  18  19
ENDBRANCH   1  18
TORSDOF 6
