REMARK  Name = ZINC37319387
REMARK  5 active torsions:
REMARK  status: ('A' for Active; 'I' for Inactive)
REMARK    1  A    between atoms: C_4  and  N_18
REMARK    2  A    between atoms: C_6  and  C_7
REMARK    3  A    between atoms: C_7  and  N_8
REMARK    4  A    between atoms: N_8  and  C_9
REMARK    5  A    between atoms: C_12  and  C_15
REMARK                            x       y       z     vdW  Elec       q    Type
REMARK                         _______ _______ _______ _____ _____    ______ ____
ROOT
ATOM      1  N   UNL     1      -1.727  -1.018  -1.371  0.00  0.00    +0.384 N 
ATOM      2  H   UNL     1      -1.864  -0.136  -1.841  0.00  0.00    -0.085 HD
ATOM      3  H   UNL     1      -1.022  -1.551  -1.857  0.00  0.00    -0.085 HD
ENDROOT
BRANCH   1   4
ATOM      4  C   UNL     1      -2.989  -1.770  -1.363  0.00  0.00    -0.071 C 
ATOM      5  C   UNL     1      -4.090  -0.910  -0.738  0.00  0.00    -0.015 C 
ATOM      6  C   UNL     1      -5.405  -1.693  -0.729  0.00  0.00    +0.011 C 
ATOM      7  C   UNL     1      -5.793  -2.054  -2.164  0.00  0.00    +0.075 C 
ATOM      8  C   UNL     1      -4.692  -2.914  -2.789  0.00  0.00    +0.011 C 
ATOM      9  C   UNL     1      -3.377  -2.131  -2.798  0.00  0.00    -0.015 C 
BRANCH   7  10
ATOM     10  C   UNL     1      -7.088  -2.825  -2.155  0.00  0.00    +0.214 C 
ATOM     11  O   UNL     1      -7.645  -3.063  -1.105  0.00  0.00    -0.276 OA
ATOM     12  N   UNL     1      -7.626  -3.251  -3.315  0.00  0.00    -0.329 N 
ATOM     13  H   UNL     1      -7.180  -3.062  -4.156  0.00  0.00    +0.145 HD
ATOM     14  H   UNL     1      -8.460  -3.748  -3.310  0.00  0.00    +0.145 HD
ENDBRANCH   7  10
ENDBRANCH   1   4
BRANCH   1  15
ATOM     15  C   UNL     1      -1.293  -0.775   0.011  0.00  0.00    -0.046 C 
BRANCH  15  21
ATOM     16  C   UNL     1      -0.017   1.378   0.010  0.00  0.00    +0.003 A 
ATOM     17  C   UNL     1       1.171   2.086   0.002  0.00  0.00    +0.018 A 
ATOM     18  C   UNL     1       2.378   1.411  -0.013  0.00  0.00    +0.048 A 
ATOM     19  C   UNL     1       2.396   0.027  -0.021  0.00  0.00    +0.140 A 
ATOM     20  C   UNL     1       1.208  -0.679  -0.013  0.00  0.00    +0.035 A 
ATOM     21  C   UNL     1       0.002  -0.004   0.002  0.00  0.00    -0.062 A 
ATOM     22 BR   UNL     1       4.003   2.378  -0.024  0.00  0.00    -0.048 Br
BRANCH  19  23
ATOM     23  N   UNL     1       3.687  -0.696  -0.037  0.00  0.00    +0.058 N 
ATOM     24  O   UNL     1       3.703  -1.905  -0.044  0.00  0.00    -0.126 OA
ATOM     25  O   UNL     1       4.726  -0.078  -0.044  0.00  0.00    -0.126 OA
ENDBRANCH  19  23
ENDBRANCH  15  21
ENDBRANCH   1  15
TORSDOF 5
