REMARK  Name = ZINC33068911
REMARK  7 active torsions:
REMARK  status: ('A' for Active; 'I' for Inactive)
REMARK    1  A    between atoms: C_1  and  C_2
REMARK    2  A    between atoms: C_8  and  C_12
REMARK    3  A    between atoms: C_12  and  N_13
REMARK    4  A    between atoms: N_13  and  C_14
REMARK    5  A    between atoms: N_13  and  C_21
REMARK    6  A    between atoms: C_14  and  C_15
REMARK    7  A    between atoms: C_21  and  C_22
REMARK                            x       y       z     vdW  Elec       q    Type
REMARK                         _______ _______ _______ _____ _____    ______ ____
ROOT
ATOM      1  N   UNL     1       0.922  -6.694  -1.507  0.00  0.00    -0.288 NA
ENDROOT
BRANCH   1   2
ATOM      2  C   UNL     1       0.368  -6.867  -0.158  0.00  0.00    +0.138 C 
BRANCH   2  10
ATOM      3  C   UNL     1      -1.337   0.464   2.001  0.00  0.00    +0.053 C 
ATOM      4  C   UNL     1      -1.061  -0.960   1.592  0.00  0.00    +0.007 A 
ATOM      5  C   UNL     1      -1.909  -1.982   1.483  0.00  0.00    +0.107 A 
ATOM      6  N   UNL     1      -1.474  -3.226   1.091  0.00  0.00    -0.263 N 
ATOM      7  C   UNL     1      -2.238  -4.349   0.942  0.00  0.00    +0.259 A 
ATOM      8  O   UNL     1      -3.438  -4.306   1.165  0.00  0.00    -0.267 OA
ATOM      9  C   UNL     1      -1.646  -5.545   0.534  0.00  0.00    +0.093 A 
ATOM     10  C   UNL     1      -0.291  -5.586   0.283  0.00  0.00    +0.037 A 
ATOM     11  N   UNL     1       0.425  -4.475   0.438  0.00  0.00    -0.337 N 
ATOM     12  C   UNL     1      -0.138  -3.356   0.822  0.00  0.00    +0.158 A 
ATOM     13  S   UNL     1       0.487  -1.716   1.119  0.00  0.00    -0.056 S 
ATOM     14  H   UNL     1       1.379  -4.494   0.264  0.00  0.00    +0.168 HD
ENDBRANCH   2  10
ENDBRANCH   1   2
BRANCH   1  15
ATOM     15  C   UNL     1       2.198  -5.966  -1.463  0.00  0.00    +0.120 C 
BRANCH  15  16
ATOM     16  C   UNL     1       3.144  -6.667  -0.524  0.00  0.00    -0.033 A 
ATOM     17  C   UNL     1       3.187  -6.309   0.810  0.00  0.00    +0.005 A 
ATOM     18  C   UNL     1       4.055  -6.952   1.672  0.00  0.00    +0.000 A 
ATOM     19  C   UNL     1       4.881  -7.955   1.200  0.00  0.00    +0.000 A 
ATOM     20  C   UNL     1       4.838  -8.314  -0.134  0.00  0.00    +0.000 A 
ATOM     21  C   UNL     1       3.967  -7.674  -0.995  0.00  0.00    +0.005 A 
ENDBRANCH  15  16
ENDBRANCH   1  15
BRANCH   1  22
ATOM     22  C   UNL     1       1.079  -7.989  -2.183  0.00  0.00    +0.120 C 
BRANCH  22  23
ATOM     23  C   UNL     1       1.217  -7.768  -3.667  0.00  0.00    -0.033 A 
ATOM     24  C   UNL     1       0.088  -7.620  -4.452  0.00  0.00    +0.008 A 
ATOM     25  C   UNL     1       0.214  -7.416  -5.813  0.00  0.00    +0.038 A 
ATOM     26  C   UNL     1       1.471  -7.361  -6.391  0.00  0.00    +0.123 A 
ATOM     27  C   UNL     1       2.601  -7.509  -5.604  0.00  0.00    +0.038 A 
ATOM     28  C   UNL     1       2.473  -7.707  -4.242  0.00  0.00    +0.008 A 
ATOM     29  F   UNL     1       1.595  -7.162  -7.721  0.00  0.00    -0.205 F 
ENDBRANCH  22  23
ENDBRANCH   1  22
TORSDOF 6
