REMARK  Name = ZINC17838027
REMARK  9 active torsions:
REMARK  status: ('A' for Active; 'I' for Inactive)
REMARK    1  A    between atoms: C_1  and  C_2
REMARK    2  A    between atoms: C_5  and  C_8
REMARK    3  A    between atoms: N_16  and  C_19
REMARK    4  A    between atoms: C_20  and  C_26
REMARK    5  A    between atoms: C_21  and  C_25
REMARK    6  A    between atoms: C_22  and  C_24
REMARK    7  A    between atoms: C_26  and  O_28
REMARK    8  A    between atoms: O_28  and  C_29
REMARK    9  A    between atoms: N_31  and  C_32
REMARK                            x       y       z     vdW  Elec       q    Type
REMARK                         _______ _______ _______ _____ _____    ______ ____
ROOT
ATOM      1  C   UNL     1       0.161  -4.338  -0.177  0.00  0.00    +0.157 C 
ATOM      2  C   UNL     1       1.542  -4.865   0.277  0.00  0.00    +0.145 C 
ATOM      3  C   UNL     1       1.376  -5.038   1.812  0.00  0.00    +0.249 C 
ATOM      4  C   UNL     1       2.356  -4.035   2.381  0.00  0.00    +0.259 C 
ATOM      5  O   UNL     1       2.569  -3.856   3.561  0.00  0.00    -0.272 OA
ATOM      6  N   UNL     1       2.952  -3.378   1.379  0.00  0.00    -0.201 N 
ATOM      7  C   UNL     1       2.567  -3.764   0.139  0.00  0.00    +0.235 C 
ATOM      8  O   UNL     1       2.969  -3.309  -0.911  0.00  0.00    -0.274 OA
ATOM      9  O   UNL     1       0.032  -4.617   2.106  0.00  0.00    -0.257 OA
ATOM     10  N   UNL     1      -0.738  -4.783   0.916  0.00  0.00    -0.244 N 
ENDROOT
BRANCH   1  15
ATOM     11  C   UNL     1       0.195   1.426  -0.580  0.00  0.00    +0.044 C 
ATOM     12  C   UNL     1       0.186  -0.077  -0.474  0.00  0.00    -0.050 A 
ATOM     13  C   UNL     1       0.270  -0.850  -1.617  0.00  0.00    +0.004 A 
ATOM     14  C   UNL     1       0.262  -2.229  -1.521  0.00  0.00    +0.006 A 
ATOM     15  C   UNL     1       0.171  -2.835  -0.282  0.00  0.00    -0.022 A 
ATOM     16  C   UNL     1       0.087  -2.062   0.861  0.00  0.00    +0.006 A 
ATOM     17  C   UNL     1       0.100  -0.683   0.765  0.00  0.00    +0.004 A 
ENDBRANCH   1  15
BRANCH   6  18
ATOM     18  C   UNL     1       3.898  -2.381   1.591  0.00  0.00    +0.096 A 
ATOM     19  C   UNL     1       5.276  -2.518   1.678  0.00  0.00    +0.091 A 
ATOM     20  C   UNL     1       6.032  -1.308   1.906  0.00  0.00    -0.025 A 
ATOM     21  C   UNL     1       5.310  -0.176   2.009  0.00  0.00    -0.008 A 
ATOM     22  S   UNL     1       3.635  -0.737   1.795  0.00  0.00    -0.077 S 
ATOM     23  C   UNL     1       5.803   1.229   2.244  0.00  0.00    +0.052 C 
ATOM     24  C   UNL     1       7.534  -1.312   2.020  0.00  0.00    +0.045 C 
BRANCH  19  25
ATOM     25  C   UNL     1       5.931  -3.822   1.546  0.00  0.00    +0.342 C 
ATOM     26  O   UNL     1       6.282  -4.217   0.451  0.00  0.00    -0.245 OA
BRANCH  25  27
ATOM     27  O   UNL     1       6.144  -4.583   2.638  0.00  0.00    -0.464 OA
ATOM     28  C   UNL     1       6.788  -5.843   2.435  0.00  0.00    +0.280 C 
ENDBRANCH  25  27
ENDBRANCH  19  25
ENDBRANCH   6  18
BRANCH  10  29
ATOM     29  C   UNL     1      -2.043  -5.270   0.805  0.00  0.00    +0.065 A 
ATOM     30  C   UNL     1      -2.638  -5.386  -0.445  0.00  0.00    +0.029 A 
ATOM     31  C   UNL     1      -3.928  -5.868  -0.552  0.00  0.00    +0.022 A 
ATOM     32  C   UNL     1      -4.628  -6.235   0.584  0.00  0.00    +0.041 A 
ATOM     33  C   UNL     1      -4.037  -6.120   1.830  0.00  0.00    +0.022 A 
ATOM     34  C   UNL     1      -2.746  -5.644   1.943  0.00  0.00    +0.029 A 
ATOM     35 CL   UNL     1      -6.249  -6.839   0.446  0.00  0.00    -0.084 Cl
ENDBRANCH  10  29
TORSDOF 5
