REMARK  Name = ZINC12053026
REMARK  11 active torsions:
REMARK  status: ('A' for Active; 'I' for Inactive)
REMARK    1  A    between atoms: C_1  and  C_2
REMARK    2  A    between atoms: C_2  and  C_10
REMARK    3  A    between atoms: C_3  and  C_4
REMARK    4  A    between atoms: C_10  and  N_70
REMARK    5  A    between atoms: C_22  and  N_30
REMARK    6  A    between atoms: C_24  and  O_26
REMARK    7  A    between atoms: O_26  and  C_27
REMARK    8  A    between atoms: C_27  and  C_28
REMARK    9  A    between atoms: C_31  and  C_33
REMARK   10  A    between atoms: C_33  and  O_34
REMARK   11  A    between atoms: O_34  and  C_35
REMARK                            x       y       z     vdW  Elec       q    Type
REMARK                         _______ _______ _______ _____ _____    ______ ____
ROOT
ATOM      1  C   UNL     1       1.184  -0.938  -0.140  0.00  0.00    -0.077 C 
ATOM      2  C   UNL     1       1.141  -2.322  -0.793  0.00  0.00    -0.005 C 
ATOM      3  C   UNL     1      -0.186  -2.997  -0.457  0.00  0.00    +0.021 C 
ATOM      4  C   UNL     1      -1.354  -2.119  -0.899  0.00  0.00    -0.005 C 
ATOM      5  C   UNL     1      -1.230  -0.742  -0.243  0.00  0.00    -0.077 C 
ATOM      6  C   UNL     1      -0.269  -4.353  -1.116  0.00  0.00    -0.034 A 
ATOM      7  C   UNL     1      -0.550  -4.704  -2.426  0.00  0.00    +0.004 A 
ATOM      8  C   UNL     1      -0.570  -6.033  -2.801  0.00  0.00    +0.000 A 
ATOM      9  C   UNL     1      -0.309  -7.018  -1.867  0.00  0.00    +0.000 A 
ATOM     10  C   UNL     1      -0.028  -6.670  -0.560  0.00  0.00    +0.006 A 
ATOM     11  C   UNL     1      -0.007  -5.339  -0.181  0.00  0.00    -0.021 A 
ATOM     12  C   UNL     1       0.270  -4.706   1.166  0.00  0.00    +0.133 C 
ATOM     13  C   UNL     1      -0.273  -3.265   1.056  0.00  0.00    +0.154 C 
ATOM     14  N   UNL     1       0.054  -0.132  -0.650  0.00  0.00    +0.382 N 
ATOM     15  H   UNL     1       0.100  -0.106  -1.675  0.00  0.00    -0.081 HD
ENDROOT
BRANCH  12  16
ATOM     16  N   UNL     1       1.711  -4.688   1.432  0.00  0.00    -0.304 N 
ATOM     17  C   UNL     1       2.296  -5.734   2.049  0.00  0.00    +0.239 C 
ATOM     18  O   UNL     1       1.630  -6.691   2.383  0.00  0.00    -0.273 OA
ATOM     19  H   UNL     1       2.244  -3.923   1.165  0.00  0.00    +0.149 HD
BRANCH  17  20
ATOM     20  C   UNL     1       3.778  -5.715   2.322  0.00  0.00    +0.255 C 
BRANCH  20  21
ATOM     21  O   UNL     1       4.156  -6.926   2.979  0.00  0.00    -0.374 OA
ATOM     22  C   UNL     1       5.550  -7.010   3.286  0.00  0.00    +0.194 C 
ENDBRANCH  20  21
ENDBRANCH  17  20
ENDBRANCH  12  16
BRANCH  14  23
ATOM     23  C   UNL     1       0.144   1.248  -0.130  0.00  0.00    -0.048 C 
BRANCH  23  25
ATOM     24  C   UNL     1       2.658   1.567   0.496  0.00  0.00    +0.037 C 
ATOM     25  C   UNL     1       1.508   1.805  -0.448  0.00  0.00    -0.089 C 
ATOM     26  C   UNL     1       1.696   2.504  -1.559  0.00  0.00    +0.005 C 
BRANCH  26  27
ATOM     27  C   UNL     1       2.989   3.179  -1.797  0.00  0.00    -0.025 A 
ATOM     28  C   UNL     1       3.713   3.704  -0.726  0.00  0.00    +0.008 A 
ATOM     29  C   UNL     1       4.922   4.329  -0.955  0.00  0.00    +0.001 A 
ATOM     30  C   UNL     1       5.411   4.444  -2.244  0.00  0.00    +0.000 A 
ATOM     31  C   UNL     1       4.696   3.931  -3.311  0.00  0.00    +0.001 A 
ATOM     32  C   UNL     1       3.488   3.299  -3.095  0.00  0.00    +0.008 A 
ENDBRANCH  26  27
ENDBRANCH  23  25
ENDBRANCH  14  23
BRANCH  13  33
ATOM     33  O   UNL     1      -1.626  -3.191   1.510  0.00  0.00    -0.370 OA
BRANCH  33  34
ATOM     34  C   UNL     1      -1.762  -2.756   2.864  0.00  0.00    +0.187 C 
BRANCH  34  35
ATOM     35  C   UNL     1      -3.223  -2.716   3.234  0.00  0.00    -0.007 C 
ATOM     36  C   UNL     1      -3.622  -3.208   4.380  0.00  0.00    +0.006 C 
ENDBRANCH  34  35
ENDBRANCH  33  34
ENDBRANCH  13  33
TORSDOF 9
