REMARK  Name = ZINC12497387
REMARK  10 active torsions:
REMARK  status: ('A' for Active; 'I' for Inactive)
REMARK    1  A    between atoms: C_1  and  C_2
REMARK    2  A    between atoms: C_5  and  N_8
REMARK    3  A    between atoms: C_13  and  C_30
REMARK    4  A    between atoms: C_15  and  C_20
REMARK    5  A    between atoms: C_15  and  C_26
REMARK    6  A    between atoms: C_26  and  O_28
REMARK    7  A    between atoms: O_28  and  C_29
REMARK    8  A    between atoms: C_33  and  O_38
REMARK    9  A    between atoms: C_34  and  O_36
REMARK   10  A    between atoms: O_36  and  C_37
REMARK                            x       y       z     vdW  Elec       q    Type
REMARK                         _______ _______ _______ _____ _____    ______ ____
ROOT
ATOM      1  N   UNL     1       6.870   0.875  -0.908  0.00  0.00    -0.210 N 
ATOM      2  C   UNL     1       6.913  -0.334  -1.555  0.00  0.00    +0.229 C 
ATOM      3  O   UNL     1       7.704  -0.691  -2.401  0.00  0.00    -0.275 OA
ATOM      4  C   UNL     1       5.788  -1.102  -1.018  0.00  0.00    +0.078 C 
ATOM      5  C   UNL     1       4.907  -2.171  -1.552  0.00  0.00    -0.026 C 
ATOM      6  C   UNL     1       3.711  -0.707  -0.039  0.00  0.00    +0.070 C 
ATOM      7  C   UNL     1       4.752   0.072  -0.808  0.00  0.00    +0.090 C 
ATOM      8  C   UNL     1       5.684   1.078  -0.251  0.00  0.00    +0.229 C 
ATOM      9  O   UNL     1       5.449   1.904   0.605  0.00  0.00    -0.275 OA
ATOM     10  N   UNL     1       3.614  -1.969  -0.832  0.00  0.00    +0.398 N 
ATOM     11  H   UNL     1       3.439  -2.762  -0.203  0.00  0.00    -0.083 HD
ATOM     12  H   UNL     1       2.846  -1.895  -1.510  0.00  0.00    -0.083 HD
ENDROOT
BRANCH   1  17
ATOM     13  C   UNL     1      11.129   4.627  -0.949  0.00  0.00    +0.044 C 
ATOM     14  C   UNL     1       9.998   3.631  -0.939  0.00  0.00    -0.050 A 
ATOM     15  C   UNL     1      10.126   2.434  -1.618  0.00  0.00    +0.005 A 
ATOM     16  C   UNL     1       9.091   1.519  -1.610  0.00  0.00    +0.024 A 
ATOM     17  C   UNL     1       7.921   1.802  -0.918  0.00  0.00    +0.044 A 
ATOM     18  C   UNL     1       7.793   3.007  -0.241  0.00  0.00    +0.024 A 
ATOM     19  C   UNL     1       8.834   3.916  -0.249  0.00  0.00    +0.005 A 
ENDBRANCH   1  17
BRANCH   6  20
ATOM     20  C   UNL     1       2.396   0.029  -0.022  0.00  0.00    -0.047 A 
ATOM     21  C   UNL     1       1.208  -0.679  -0.014  0.00  0.00    +0.003 A 
ATOM     22  C   UNL     1       0.002  -0.004   0.002  0.00  0.00    +0.000 A 
ATOM     23  C   UNL     1      -0.017   1.378   0.010  0.00  0.00    +0.000 A 
ATOM     24  C   UNL     1       1.171   2.086   0.002  0.00  0.00    +0.000 A 
ATOM     25  C   UNL     1       2.377   1.411  -0.014  0.00  0.00    +0.003 A 
ENDBRANCH   6  20
BRANCH   5  26
ATOM     26  C   UNL     1       4.721  -2.006  -3.038  0.00  0.00    -0.057 A 
ATOM     27  C   UNL     1       3.815  -1.080  -3.522  0.00  0.00    +0.006 A 
ATOM     28  C   UNL     1       3.641  -0.924  -4.884  0.00  0.00    +0.049 A 
ATOM     29  C   UNL     1       4.376  -1.697  -5.769  0.00  0.00    +0.158 A 
ATOM     30  C   UNL     1       5.288  -2.629  -5.283  0.00  0.00    +0.161 A 
ATOM     31  C   UNL     1       5.461  -2.776  -3.916  0.00  0.00    +0.051 A 
BRANCH  30  32
ATOM     32  O   UNL     1       6.011  -3.390  -6.147  0.00  0.00    -0.491 OA
ATOM     33  C   UNL     1       6.928  -4.326  -5.576  0.00  0.00    +0.277 C 
ENDBRANCH  30  32
BRANCH  29  34
ATOM     34  O   UNL     1       4.207  -1.545  -7.110  0.00  0.00    -0.503 OA
ATOM     35  H   UNL     1       4.793  -0.886  -7.508  0.00  0.00    +0.292 HD
ENDBRANCH  29  34
ENDBRANCH   5  26
BRANCH   6  36
ATOM     36  C   UNL     1       4.183  -0.991   1.364  0.00  0.00    +0.301 C 
ATOM     37  O   UNL     1       4.965  -0.242   1.901  0.00  0.00    -0.252 OA
BRANCH  36  38
ATOM     38  O   UNL     1       3.734  -2.074   2.017  0.00  0.00    -0.469 OA
ATOM     39  C   UNL     1       4.230  -2.284   3.365  0.00  0.00    +0.280 C 
ENDBRANCH  36  38
ENDBRANCH   6  36
TORSDOF 7
