REMARK  Name = ZINC33253280
REMARK  11 active torsions:
REMARK  status: ('A' for Active; 'I' for Inactive)
REMARK    1  A    between atoms: C_1  and  C_2
REMARK    2  A    between atoms: C_2  and  C_3
REMARK    3  A    between atoms: C_3  and  N_4
REMARK    4  A    between atoms: C_5  and  C_7
REMARK    5  A    between atoms: C_7  and  N_8
REMARK    6  A    between atoms: N_11  and  C_14
REMARK    7  A    between atoms: C_17  and  C_31
REMARK    8  A    between atoms: C_19  and  N_20
REMARK    9  A    between atoms: N_20  and  S_21
REMARK   10  A    between atoms: S_21  and  C_24
REMARK   11  A    between atoms: C_28  and  C_30
REMARK                            x       y       z     vdW  Elec       q    Type
REMARK                         _______ _______ _______ _____ _____    ______ ____
ROOT
ATOM      1  C   UNL     1       4.537  -6.932  -5.463  0.00  0.00    +0.052 A 
ATOM      2  C   UNL     1       5.043  -7.709  -4.427  0.00  0.00    +0.026 A 
ATOM      3  C   UNL     1       6.028  -8.638  -4.676  0.00  0.00    +0.017 A 
ATOM      4  C   UNL     1       6.524  -8.802  -5.974  0.00  0.00    +0.065 A 
ATOM      5  C   UNL     1       6.015  -8.021  -7.019  0.00  0.00    +0.041 A 
ATOM      6  C   UNL     1       5.022  -7.096  -6.764  0.00  0.00    +0.070 A 
ENDROOT
BRANCH   1  10
ATOM      7  N   UNL     1       1.688  -4.492  -3.765  0.00  0.00    -0.291 NA
ATOM      8  C   UNL     1       3.121  -4.236  -3.570  0.00  0.00    +0.104 C 
ATOM      9  C   UNL     1       3.882  -4.610  -4.847  0.00  0.00    +0.120 C 
ATOM     10  N   UNL     1       3.541  -5.995  -5.206  0.00  0.00    -0.326 N 
ATOM     11  C   UNL     1       2.119  -6.363  -5.286  0.00  0.00    +0.120 C 
ATOM     12  C   UNL     1       1.428  -5.920  -3.992  0.00  0.00    +0.104 C 
BRANCH   7  13
ATOM     13  C   UNL     1       0.904  -3.988  -2.630  0.00  0.00    +0.180 C 
BRANCH  13  15
ATOM     14  N   UNL     1       0.360  -1.799  -1.613  0.00  0.00    -0.314 N 
ATOM     15  C   UNL     1       1.004  -2.485  -2.579  0.00  0.00    +0.227 C 
ATOM     16  O   UNL     1       1.663  -1.892  -3.407  0.00  0.00    -0.274 OA
ATOM     17  H   UNL     1      -0.167  -2.273  -0.951  0.00  0.00    +0.149 HD
BRANCH  14  18
ATOM     18  C   UNL     1       0.457  -0.339  -1.563  0.00  0.00    +0.104 C 
BRANCH  18  20
ATOM     19  C   UNL     1      -0.258   1.713  -0.329  0.00  0.00    +0.005 C 
ATOM     20  C   UNL     1      -0.359   0.187  -0.381  0.00  0.00    +0.015 C 
ENDBRANCH  18  20
ENDBRANCH  14  18
ENDBRANCH  13  15
ENDBRANCH   7  13
ENDBRANCH   1  10
BRANCH   4  21
ATOM     21  C   UNL     1       7.577  -9.794  -6.241  0.00  0.00    +0.387 C 
ATOM     22  O   UNL     1       8.021 -10.476  -5.327  0.00  0.00    -0.241 OA
ATOM     23  O   UNL     1       8.010  -9.937  -7.376  0.00  0.00    -0.241 OA
ENDBRANCH   4  21
BRANCH   6  24
ATOM     24  N   UNL     1       4.507  -6.316  -7.807  0.00  0.00    -0.214 N 
ATOM     25  H   UNL     1       4.245  -5.397  -7.642  0.00  0.00    +0.174 HD
BRANCH  24  26
ATOM     26  S   UNL     1       4.343  -6.964  -9.322  0.00  0.00    +0.072 S 
ATOM     27  O   UNL     1       3.680  -5.987 -10.113  0.00  0.00    -0.150 OA
ATOM     28  O   UNL     1       5.613  -7.496  -9.675  0.00  0.00    -0.150 OA
BRANCH  26  29
ATOM     29  C   UNL     1       3.244  -8.334  -9.187  0.00  0.00    +0.109 A 
ATOM     30  C   UNL     1       3.740  -9.596  -8.918  0.00  0.00    +0.029 A 
ATOM     31  C   UNL     1       2.878 -10.670  -8.812  0.00  0.00    +0.002 A 
ATOM     32  C   UNL     1       1.517 -10.483  -8.975  0.00  0.00    +0.003 A 
ATOM     33  C   UNL     1       1.020  -9.222  -9.243  0.00  0.00    -0.049 A 
ATOM     34  C   UNL     1       1.883  -8.146  -9.344  0.00  0.00    +0.032 A 
ATOM     35  C   UNL     1      -0.462  -9.018  -9.420  0.00  0.00    +0.044 C 
ENDBRANCH  26  29
ENDBRANCH  24  26
ENDBRANCH   6  24
TORSDOF 9
