REMARK  Name = ZINC20572771
REMARK  6 active torsions:
REMARK  status: ('A' for Active; 'I' for Inactive)
REMARK    1  A    between atoms: C_1  and  C_2
REMARK    2  A    between atoms: C_4  and  C_31
REMARK    3  A    between atoms: C_6  and  C_8
REMARK    4  A    between atoms: N_10  and  C_11
REMARK    5  A    between atoms: C_11  and  C_13
REMARK    6  A    between atoms: C_11  and  C_14
REMARK                            x       y       z     vdW  Elec       q    Type
REMARK                         _______ _______ _______ _____ _____    ______ ____
ROOT
ATOM      1  C   UNL     1      -0.590  -2.007   5.893  0.00  0.00    +0.236 C 
ATOM      2  O   UNL     1      -1.082  -0.962   5.523  0.00  0.00    -0.274 OA
ATOM      3  N   UNL     1      -0.629  -2.346   7.197  0.00  0.00    -0.300 N 
ATOM      4  C   UNL     1       0.062  -3.550   7.678  0.00  0.00    +0.110 C 
ATOM      5  C   UNL     1       0.993  -3.158   8.830  0.00  0.00    +0.047 C 
ATOM      6  C   UNL     1       0.190  -2.421   9.902  0.00  0.00    +0.064 C 
ATOM      7  C   UNL     1      -0.416  -1.147   9.311  0.00  0.00    +0.047 C 
ATOM      8  C   UNL     1      -1.357  -1.516   8.165  0.00  0.00    +0.110 C 
ATOM      9  C   UNL     1       1.088  -2.068  11.057  0.00  0.00    +0.057 A 
ATOM     10  C   UNL     1       0.742  -2.234  12.355  0.00  0.00    +0.039 A 
ATOM     11  N   UNL     1       1.762  -1.827  13.110  0.00  0.00    -0.349 N 
ATOM     12  C   UNL     1       2.731  -1.412  12.333  0.00  0.00    +0.171 A 
ATOM     13  N   UNL     1       2.343  -1.548  11.043  0.00  0.00    -0.348 N 
ATOM     14  H   UNL     1       2.864  -1.318  10.258  0.00  0.00    +0.166 HD
ATOM     15  C   UNL     1      -0.594  -2.789  12.784  0.00  0.00    +0.070 C 
ATOM     16  C   UNL     1      -1.544  -2.718  11.580  0.00  0.00    +0.088 C 
ATOM     17  N   UNL     1      -0.887  -3.294  10.398  0.00  0.00    -0.305 NA
ATOM     18  H   UNL     1      -1.558  -3.488   9.670  0.00  0.00    +0.123 HD
ATOM     19  H   UNL     1       1.784  -1.837  14.079  0.00  0.00    +0.166 HD
ENDROOT
BRANCH   1  20
ATOM     20  C   UNL     1       0.064  -2.927   4.894  0.00  0.00    +0.156 C 
ATOM     21  C   UNL     1       1.563  -2.627   4.830  0.00  0.00    +0.038 C 
BRANCH  20  24
ATOM     22  C   UNL     1      -0.505  -3.704   2.656  0.00  0.00    +0.245 C 
ATOM     23  O   UNL     1       0.014  -4.769   2.926  0.00  0.00    -0.270 OA
ATOM     24  N   UNL     1      -0.533  -2.716   3.573  0.00  0.00    -0.300 N 
ATOM     25  H   UNL     1      -0.947  -1.866   3.358  0.00  0.00    +0.150 HD
BRANCH  22  31
ATOM     26  C   UNL     1      -2.912  -0.760  -0.575  0.00  0.00    +0.044 C 
ATOM     27  C   UNL     1      -2.266  -2.079  -0.236  0.00  0.00    -0.049 A 
ATOM     28  C   UNL     1      -2.237  -3.095  -1.175  0.00  0.00    +0.006 A 
ATOM     29  C   UNL     1      -1.645  -4.308  -0.871  0.00  0.00    -0.049 A 
ATOM     30  C   UNL     1      -1.081  -4.513   0.371  0.00  0.00    +0.016 A 
ATOM     31  C   UNL     1      -1.108  -3.492   1.323  0.00  0.00    +0.037 A 
ATOM     32  C   UNL     1      -1.701  -2.268   1.008  0.00  0.00    +0.016 A 
ATOM     33  C   UNL     1      -1.618  -5.409  -1.900  0.00  0.00    +0.044 C 
ENDBRANCH  22  31
ENDBRANCH  20  24
ENDBRANCH   1  20
TORSDOF 3
