REMARK  Name = ZINC36490921
REMARK  16 active torsions:
REMARK  status: ('A' for Active; 'I' for Inactive)
REMARK    1  A    between atoms: C_1  and  C_2
REMARK    2  A    between atoms: C_2  and  C_3
REMARK    3  A    between atoms: C_2  and  C_4
REMARK    4  A    between atoms: C_2  and  C_5
REMARK    5  A    between atoms: C_5  and  C_6
REMARK    6  A    between atoms: C_6  and  C_7
REMARK    7  A    between atoms: C_6  and  C_8
REMARK    8  A    between atoms: C_6  and  N_9
REMARK    9  A    between atoms: C_10  and  C_12
REMARK   10  A    between atoms: C_12  and  C_14
REMARK   11  A    between atoms: C_12  and  N_23
REMARK   12  A    between atoms: C_17  and  N_20
REMARK   13  A    between atoms: N_20  and  C_21
REMARK   14  A    between atoms: N_20  and  C_22
REMARK   15  A    between atoms: N_23  and  C_24
REMARK   16  A    between atoms: C_30  and  C_32
REMARK                            x       y       z     vdW  Elec       q    Type
REMARK                         _______ _______ _______ _____ _____    ______ ____
ROOT
ATOM      1  C   UNL     1       5.190   0.324  -4.598  0.00  0.00    +0.192 C 
ENDROOT
BRANCH   1   2
ATOM      2  C   UNL     1       5.668  -1.046  -5.007  0.00  0.00    -0.018 A 
ATOM      3  C   UNL     1       6.884  -1.517  -4.549  0.00  0.00    +0.008 A 
ATOM      4  C   UNL     1       7.325  -2.772  -4.922  0.00  0.00    +0.023 A 
ATOM      5  C   UNL     1       6.545  -3.560  -5.757  0.00  0.00    +0.029 A 
ATOM      6  C   UNL     1       5.323  -3.084  -6.215  0.00  0.00    +0.023 A 
ATOM      7  C   UNL     1       4.886  -1.831  -5.834  0.00  0.00    +0.008 A 
BRANCH   5   8
ATOM      8  N   UNL     1       6.987  -4.830  -6.137  0.00  0.00    -0.336 N 
ATOM      9  C   UNL     1       8.276  -5.330  -5.653  0.00  0.00    +0.129 C 
ATOM     10  C   UNL     1       6.163  -5.660  -7.018  0.00  0.00    +0.129 C 
ENDBRANCH   5   8
ENDBRANCH   1   2
BRANCH   1  12
ATOM     11  N   UNL     1       3.820  -0.270  -2.626  0.00  0.00    -0.308 N 
ATOM     12  C   UNL     1       4.918   0.340  -3.116  0.00  0.00    +0.239 C 
ATOM     13  O   UNL     1       5.687   0.900  -2.364  0.00  0.00    -0.273 OA
ATOM     14  H   UNL     1       3.251  -0.790  -3.214  0.00  0.00    +0.149 HD
BRANCH  11  15
ATOM     15  C   UNL     1       3.486  -0.146  -1.205  0.00  0.00    +0.030 C 
ATOM     16  C   UNL     1       3.616   1.317  -0.776  0.00  0.00    +0.031 C 
ATOM     17  C   UNL     1       4.445  -1.006  -0.379  0.00  0.00    +0.031 C 
BRANCH  15  18
ATOM     18  C   UNL     1       2.050  -0.620  -0.975  0.00  0.00    +0.031 C 
BRANCH  18  20
ATOM     19  C   UNL     1       1.228  -0.962  -3.309  0.00  0.00    +0.010 C 
ATOM     20  C   UNL     1       1.146  -0.061  -2.076  0.00  0.00    -0.036 C 
ATOM     21  C   UNL     1       1.606   1.351  -2.445  0.00  0.00    +0.010 C 
ATOM     22  C   UNL     1      -0.298  -0.012  -1.574  0.00  0.00    +0.010 C 
ENDBRANCH  18  20
ENDBRANCH  15  18
ENDBRANCH  11  15
ENDBRANCH   1  12
BRANCH   1  23
ATOM     23  N   UNL     1       6.221   1.315  -4.916  0.00  0.00    -0.281 N 
ATOM     24  C   UNL     1       6.030   2.185  -5.928  0.00  0.00    +0.237 C 
ATOM     25  O   UNL     1       6.923   2.936  -6.258  0.00  0.00    -0.274 OA
BRANCH  24  26
ATOM     26  C   UNL     1       4.707   2.223  -6.650  0.00  0.00    +0.159 C 
ATOM     27  C   UNL     1       4.688   1.177  -7.786  0.00  0.00    +0.041 C 
ATOM     28  C   UNL     1       5.148   2.019  -8.998  0.00  0.00    +0.098 C 
ATOM     29  C   UNL     1       4.773   3.437  -8.628  0.00  0.00    +0.214 C 
ATOM     30  O   UNL     1       4.704   4.363  -9.408  0.00  0.00    -0.276 OA
ATOM     31  N   UNL     1       4.526   3.522  -7.308  0.00  0.00    -0.304 N 
ATOM     32  H   UNL     1       4.261   4.335  -6.850  0.00  0.00    +0.149 HD
ENDBRANCH  24  26
BRANCH  23  33
ATOM     33  C   UNL     1       7.458   1.362  -4.133  0.00  0.00    +0.077 C 
ATOM     34  C   UNL     1       7.603   2.743  -3.490  0.00  0.00    +0.022 C 
ATOM     35  C   UNL     1       8.896   2.792  -2.673  0.00  0.00    +0.002 C 
ATOM     36  C   UNL     1      10.090   2.529  -3.592  0.00  0.00    +0.000 C 
ATOM     37  C   UNL     1       9.945   1.148  -4.235  0.00  0.00    +0.002 C 
ATOM     38  C   UNL     1       8.653   1.099  -5.052  0.00  0.00    +0.022 C 
ENDBRANCH  23  33
ENDBRANCH   1  23
TORSDOF 9
