REMARK  Name = ZINC43549332
REMARK  13 active torsions:
REMARK  status: ('A' for Active; 'I' for Inactive)
REMARK    1  A    between atoms: C_1  and  C_2
REMARK    2  A    between atoms: C_7  and  C_9
REMARK    3  A    between atoms: C_9  and  O_10
REMARK    4  A    between atoms: O_10  and  C_11
REMARK    5  A    between atoms: C_11  and  C_13
REMARK    6  A    between atoms: C_13  and  C_14
REMARK    7  A    between atoms: C_13  and  C_15
REMARK    8  A    between atoms: C_13  and  C_16
REMARK    9  A    between atoms: C_18  and  C_38
REMARK   10  A    between atoms: C_21  and  O_37
REMARK   11  A    between atoms: C_23  and  C_27
REMARK   12  A    between atoms: C_27  and  C_29
REMARK   13  A    between atoms: C_27  and  C_30
REMARK                            x       y       z     vdW  Elec       q    Type
REMARK                         _______ _______ _______ _____ _____    ______ ____
ROOT
ATOM      1  C   UNL     1       0.821   1.519  -0.734  0.00  0.00    +0.014 C 
ATOM      2  C   UNL     1       0.420   0.084  -0.389  0.00  0.00    +0.042 C 
ATOM      3  C   UNL     1      -1.082   0.016  -0.168  0.00  0.00    +0.055 A 
ATOM      4  C   UNL     1      -1.599  -0.732   0.843  0.00  0.00    +0.014 A 
ATOM      5  S   UNL     1      -3.342  -0.474   0.659  0.00  0.00    -0.073 S 
ATOM      6  C   UNL     1      -3.269   0.555  -0.674  0.00  0.00    +0.116 A 
ATOM      7  N   UNL     1      -1.985   0.650  -0.908  0.00  0.00    -0.245 NA
ATOM      8  C   UNL     1      -0.853  -1.550   1.839  0.00  0.00    +0.051 C 
ATOM      9  C   UNL     1       0.594  -1.706   1.367  0.00  0.00    -0.022 C 
ATOM     10  C   UNL     1       1.141  -0.356   0.890  0.00  0.00    +0.033 C 
ATOM     11  C   UNL     1       2.630  -0.546   0.553  0.00  0.00    +0.123 C 
ATOM     12  C   UNL     1       2.748  -1.556  -0.591  0.00  0.00    +0.029 C 
ATOM     13  C   UNL     1       2.152  -2.898  -0.168  0.00  0.00    +0.007 C 
ATOM     14  C   UNL     1       0.683  -2.714   0.223  0.00  0.00    +0.008 C 
ATOM     15  C   UNL     1       1.455  -2.192   2.534  0.00  0.00    +0.012 C 
ENDROOT
BRANCH  12  16
ATOM     16  C   UNL     1       4.224  -1.748  -0.948  0.00  0.00    +0.078 C 
ATOM     17  C   UNL     1       4.821  -0.408  -1.384  0.00  0.00    +0.017 C 
BRANCH  16  18
ATOM     18  C   UNL     1       4.343  -2.742  -2.074  0.00  0.00    +0.219 C 
ATOM     19  O   UNL     1       3.500  -2.776  -2.945  0.00  0.00    -0.275 OA
ATOM     20  N   UNL     1       5.387  -3.593  -2.114  0.00  0.00    -0.301 N 
ATOM     21  C   UNL     1       6.525  -3.597  -1.183  0.00  0.00    +0.108 C 
ATOM     22  C   UNL     1       7.479  -4.724  -1.631  0.00  0.00    +0.020 C 
ATOM     23  C   UNL     1       7.106  -4.923  -3.123  0.00  0.00    +0.020 C 
ATOM     24  C   UNL     1       5.574  -4.678  -3.094  0.00  0.00    +0.108 C 
ENDBRANCH  16  18
ENDBRANCH  12  16
BRANCH  11  25
ATOM     25  O   UNL     1       3.323  -1.036   1.702  0.00  0.00    -0.391 OA
ATOM     26  H   UNL     1       4.269  -1.178   1.560  0.00  0.00    +0.210 HD
ENDBRANCH  11  25
BRANCH   6  27
ATOM     27  C   UNL     1      -4.407   1.207  -1.417  0.00  0.00    +0.294 C 
BRANCH  27  28
ATOM     28  O   UNL     1      -4.837   0.350  -2.476  0.00  0.00    -0.457 OA
BRANCH  28  29
ATOM     29  C   UNL     1      -5.851   0.786  -3.240  0.00  0.00    +0.313 C 
ATOM     30  O   UNL     1      -6.356   1.861  -3.016  0.00  0.00    -0.250 OA
BRANCH  29  31
ATOM     31  C   UNL     1      -6.359  -0.064  -4.376  0.00  0.00    +0.059 C 
ATOM     32  C   UNL     1      -7.508   0.660  -5.080  0.00  0.00    +0.022 C 
ATOM     33  C   UNL     1      -5.226  -0.312  -5.373  0.00  0.00    +0.022 C 
ATOM     34  C   UNL     1      -6.859  -1.402  -3.828  0.00  0.00    +0.022 C 
ENDBRANCH  29  31
ENDBRANCH  28  29
ENDBRANCH  27  28
ENDBRANCH   6  27
TORSDOF 7
