REMARK  Name = ZINC08157239
REMARK  9 active torsions:
REMARK  status: ('A' for Active; 'I' for Inactive)
REMARK    1  A    between atoms: C_1  and  O_2
REMARK    2  A    between atoms: O_2  and  C_3
REMARK    3  A    between atoms: C_6  and  C_9
REMARK    4  A    between atoms: C_16  and  C_17
REMARK    5  A    between atoms: C_16  and  N_59
REMARK    6  A    between atoms: N_19  and  C_20
REMARK    7  A    between atoms: C_25  and  S_26
REMARK    8  A    between atoms: S_26  and  C_27
REMARK    9  A    between atoms: C_27  and  C_28
REMARK                            x       y       z     vdW  Elec       q    Type
REMARK                         _______ _______ _______ _____ _____    ______ ____
ROOT
ATOM      1  C   UNL     1      -1.502   0.433  -1.849  0.00  0.00    +0.020 C 
ENDROOT
BRANCH   1   8
ATOM      2  C   UNL     1      -0.033   0.020   0.039  0.00  0.00    -0.037 C 
ATOM      3  C   UNL     1      -0.184  -0.517   1.440  0.00  0.00    -0.011 C 
ATOM      4  C   UNL     1       0.652  -1.790   1.651  0.00  0.00    -0.001 C 
ATOM      5  C   UNL     1       0.589  -2.732   0.432  0.00  0.00    -0.002 C 
ATOM      6  C   UNL     1      -0.798  -2.834  -0.150  0.00  0.00    -0.019 C 
ATOM      7  C   UNL     1      -0.948  -1.792  -1.280  0.00  0.00    -0.077 C 
ATOM      8  N   UNL     1      -1.197  -0.498  -0.751  0.00  0.00    +0.390 N 
ATOM      9  H   UNL     1      -2.011  -0.556  -0.129  0.00  0.00    -0.080 HD
BRANCH   2  13
ATOM     10  C   UNL     1      -0.181   4.291   0.106  0.00  0.00    +0.120 A 
ATOM     11  C   UNL     1       0.957   3.642  -0.351  0.00  0.00    +0.046 A 
ATOM     12  C   UNL     1       1.002   2.262  -0.371  0.00  0.00    +0.005 A 
ATOM     13  C   UNL     1      -0.085   1.526   0.063  0.00  0.00    -0.061 A 
ATOM     14  C   UNL     1      -1.223   2.170   0.513  0.00  0.00    +0.005 A 
ATOM     15  C   UNL     1      -1.271   3.551   0.541  0.00  0.00    +0.046 A 
BRANCH  10  17
ATOM     16  C   UNL     1      -1.431   6.249   0.612  0.00  0.00    +0.277 C 
ATOM     17  O   UNL     1      -0.228   5.649   0.128  0.00  0.00    -0.495 OA
ENDBRANCH  10  17
ENDBRANCH   2  13
ENDBRANCH   1   8
BRANCH   1  18
ATOM     18  C   UNL     1      -2.862   0.081  -2.395  0.00  0.00    +0.201 C 
ATOM     19  O   UNL     1      -3.523  -0.785  -1.862  0.00  0.00    -0.278 OA
ATOM     20  N   UNL     1      -3.343   0.728  -3.474  0.00  0.00    -0.286 N 
ATOM     21  H   UNL     1      -2.846   1.468  -3.858  0.00  0.00    +0.155 HD
BRANCH  20  22
ATOM     22  C   UNL     1      -4.562   0.333  -4.043  0.00  0.00    +0.047 A 
ATOM     23  C   UNL     1      -5.581  -0.149  -3.236  0.00  0.00    +0.024 A 
ATOM     24  C   UNL     1      -6.784  -0.534  -3.799  0.00  0.00    +0.002 A 
ATOM     25  C   UNL     1      -6.972  -0.449  -5.166  0.00  0.00    +0.001 A 
ATOM     26  C   UNL     1      -5.960   0.025  -5.979  0.00  0.00    +0.016 A 
ATOM     27  C   UNL     1      -4.750   0.418  -5.423  0.00  0.00    +0.030 A 
BRANCH  27  28
ATOM     28  S   UNL     1      -3.457   1.022  -6.456  0.00  0.00    -0.114 S 
BRANCH  28  29
ATOM     29  C   UNL     1      -4.159   0.947  -8.127  0.00  0.00    +0.169 C 
BRANCH  29  30
ATOM     30  C   UNL     1      -3.142   1.442  -9.122  0.00  0.00    +0.221 C 
ATOM     31  O   UNL     1      -2.050   1.810  -8.741  0.00  0.00    -0.275 OA
ATOM     32  N   UNL     1      -3.444   1.477 -10.435  0.00  0.00    -0.329 N 
ATOM     33  H   UNL     1      -4.317   1.183 -10.739  0.00  0.00    +0.145 HD
ATOM     34  H   UNL     1      -2.789   1.796 -11.075  0.00  0.00    +0.145 HD
ENDBRANCH  29  30
ENDBRANCH  28  29
ENDBRANCH  27  28
ENDBRANCH  20  22
ENDBRANCH   1  18
TORSDOF 8
