REMARK  Name = ZINC32169131
REMARK  8 active torsions:
REMARK  status: ('A' for Active; 'I' for Inactive)
REMARK    1  A    between atoms: C_1  and  C_2
REMARK    2  A    between atoms: C_2  and  C_3
REMARK    3  A    between atoms: C_3  and  C_5
REMARK    4  A    between atoms: C_3  and  N_23
REMARK    5  A    between atoms: C_5  and  N_6
REMARK    6  A    between atoms: C_7  and  C_9
REMARK    7  A    between atoms: C_12  and  N_18
REMARK    8  A    between atoms: C_13  and  N_15
REMARK                            x       y       z     vdW  Elec       q    Type
REMARK                         _______ _______ _______ _____ _____    ______ ____
ROOT
ATOM      1  N   UNL     1       0.331  -0.361  -2.024  0.00  0.00    -0.313 N 
ATOM      2  C   UNL     1       1.057  -0.972  -2.981  0.00  0.00    +0.244 C 
ATOM      3  O   UNL     1       1.876  -0.339  -3.619  0.00  0.00    -0.270 OA
ATOM      4  H   UNL     1      -0.411  -0.934  -1.447  0.00  0.00    +0.149 HD
ENDROOT
BRANCH   2   5
ATOM      5  C   UNL     1       0.857  -2.408  -3.256  0.00  0.00    +0.039 A 
ATOM      6  C   UNL     1      -0.084  -3.137  -2.525  0.00  0.00    +0.015 A 
ATOM      7  C   UNL     1      -0.268  -4.477  -2.784  0.00  0.00    +0.029 A 
ATOM      8  C   UNL     1       0.483  -5.105  -3.772  0.00  0.00    +0.078 A 
ATOM      9  C   UNL     1       1.420  -4.383  -4.502  0.00  0.00    +0.151 A 
ATOM     10  C   UNL     1       1.605  -3.041  -4.252  0.00  0.00    +0.048 A 
BRANCH   8  11
ATOM     11  N   UNL     1       0.294  -6.466  -4.032  0.00  0.00    -0.304 N 
ATOM     12  C   UNL     1       0.392  -7.491  -3.126  0.00  0.00    +0.112 A 
ATOM     13  C   UNL     1       0.132  -8.630  -3.795  0.00  0.00    +0.130 A 
ATOM     14  N   UNL     1      -0.109  -8.317  -5.077  0.00  0.00    -0.244 NA
ATOM     15  C   UNL     1      -0.015  -7.024  -5.232  0.00  0.00    +0.204 A 
ENDBRANCH   8  11
BRANCH   9  16
ATOM     16  N   UNL     1       2.216  -5.056  -5.553  0.00  0.00    +0.058 N 
ATOM     17  O   UNL     1       2.601  -6.199  -5.388  0.00  0.00    -0.126 OA
ATOM     18  O   UNL     1       2.486  -4.466  -6.584  0.00  0.00    -0.126 OA
ENDBRANCH   9  16
ENDBRANCH   2   5
BRANCH   1  19
ATOM     19  C   UNL     1       0.528   1.064  -1.751  0.00  0.00    +0.089 C 
BRANCH  19  20
ATOM     20  C   UNL     1      -0.317   1.475  -0.544  0.00  0.00    -0.051 C 
BRANCH  20  21
ATOM     21  N   UNL     1      -0.240   2.931  -0.365  0.00  0.00    +0.385 N 
ATOM     22  C   UNL     1      -0.942   3.634  -1.450  0.00  0.00    -0.073 C 
ATOM     23  C   UNL     1      -1.149   5.090  -1.032  0.00  0.00    +0.017 C 
ATOM     24  C   UNL     1       0.154   5.678  -0.554  0.00  0.00    -0.048 A 
ATOM     25  C   UNL     1       0.265   7.057  -0.469  0.00  0.00    +0.004 A 
ATOM     26  C   UNL     1       1.440   7.637  -0.033  0.00  0.00    +0.000 A 
ATOM     27  C   UNL     1       2.511   6.837   0.322  0.00  0.00    +0.000 A 
ATOM     28  C   UNL     1       2.401   5.464   0.236  0.00  0.00    +0.002 A 
ATOM     29  C   UNL     1       1.222   4.880  -0.204  0.00  0.00    -0.061 A 
ATOM     30  C   UNL     1       1.154   3.378  -0.289  0.00  0.00    -0.042 C 
ATOM     31  H   UNL     1      -0.733   3.176   0.588  0.00  0.00    -0.081 HD
ENDBRANCH  20  21
BRANCH  20  33
ATOM     32  C   UNL     1      -0.706   1.089   1.894  0.00  0.00    +0.002 C 
ATOM     33  C   UNL     1       0.213   0.778   0.711  0.00  0.00    -0.017 C 
ENDBRANCH  20  33
ENDBRANCH  19  20
ENDBRANCH   1  19
TORSDOF 7
