REMARK  Name = ZINC43254369
REMARK  6 active torsions:
REMARK  status: ('A' for Active; 'I' for Inactive)
REMARK    1  A    between atoms: C_1  and  N_2
REMARK    2  A    between atoms: C_3  and  C_16
REMARK    3  A    between atoms: N_12  and  C_15
REMARK    4  A    between atoms: C_19  and  O_24
REMARK    5  A    between atoms: C_20  and  O_23
REMARK    6  A    between atoms: O_24  and  C_25
REMARK                            x       y       z     vdW  Elec       q    Type
REMARK                         _______ _______ _______ _____ _____    ______ ____
ROOT
ATOM      1  C   UNL     1      -0.018   1.465   0.010  0.00  0.00    +0.138 C 
ATOM      2  N   UNL     1       0.002  -0.004   0.002  0.00  0.00    -0.182 NA
ATOM      3  C   UNL     1      -1.387  -0.559   0.036  0.00  0.00    +0.130 C 
ATOM      4  C   UNL     1      -1.454  -1.272   1.379  0.00  0.00    +0.139 C 
ATOM      5  C   UNL     1       0.059  -1.705   1.475  0.00  0.00    +0.241 C 
ATOM      6  O   UNL     1       0.722  -0.537   1.201  0.00  0.00    -0.283 OA
ATOM      7  C   UNL     1      -0.006  -2.733   2.499  0.00  0.00    +0.253 C 
ATOM      8  O   UNL     1       0.836  -2.997   3.330  0.00  0.00    -0.272 OA
ATOM      9  N   UNL     1      -1.221  -3.341   2.324  0.00  0.00    -0.243 N 
ATOM     10  C   UNL     1      -2.065  -2.632   1.499  0.00  0.00    +0.230 C 
ATOM     11  O   UNL     1      -3.085  -3.023   0.974  0.00  0.00    -0.275 OA
ATOM     12  C   UNL     1      -1.592  -4.609   2.958  0.00  0.00    +0.141 C 
ENDROOT
BRANCH   3  13
ATOM     13  C   UNL     1      -1.597  -1.533  -1.095  0.00  0.00    -0.010 A 
ATOM     14  C   UNL     1      -0.512  -2.172  -1.666  0.00  0.00    +0.010 A 
ATOM     15  C   UNL     1      -0.700  -3.065  -2.704  0.00  0.00    +0.050 A 
ATOM     16  C   UNL     1      -1.978  -3.322  -3.175  0.00  0.00    +0.162 A 
ATOM     17  C   UNL     1      -3.070  -2.680  -2.601  0.00  0.00    +0.173 A 
ATOM     18  C   UNL     1      -2.876  -1.789  -1.556  0.00  0.00    +0.068 A 
ATOM     19 BR   UNL     1      -4.358  -0.919  -0.767  0.00  0.00    -0.046 Br
BRANCH  17  20
ATOM     20  O   UNL     1      -4.326  -2.929  -3.060  0.00  0.00    -0.503 OA
ATOM     21  H   UNL     1      -4.771  -3.660  -2.611  0.00  0.00    +0.292 HD
ENDBRANCH  17  20
BRANCH  16  22
ATOM     22  O   UNL     1      -2.163  -4.200  -4.197  0.00  0.00    -0.491 OA
ATOM     23  C   UNL     1      -0.996  -4.821  -4.739  0.00  0.00    +0.277 C 
ENDBRANCH  16  22
ENDBRANCH   3  13
TORSDOF 3
