REMARK  Name = ZINC58918271
REMARK  10 active torsions:
REMARK  status: ('A' for Active; 'I' for Inactive)
REMARK    1  A    between atoms: C_1  and  S_2
REMARK    2  A    between atoms: S_2  and  C_3
REMARK    3  A    between atoms: C_6  and  C_9
REMARK    4  A    between atoms: N_10  and  N_11
REMARK    5  A    between atoms: C_12  and  C_14
REMARK    6  A    between atoms: C_14  and  N_15
REMARK    7  A    between atoms: N_15  and  C_16
REMARK    8  A    between atoms: N_15  and  S_25
REMARK    9  A    between atoms: C_20  and  N_22
REMARK   10  A    between atoms: S_25  and  C_28
REMARK                            x       y       z     vdW  Elec       q    Type
REMARK                         _______ _______ _______ _____ _____    ______ ____
ROOT
ATOM      1  N   UNL     1      -9.389  -6.268   0.049  0.00  0.00    -0.194 N 
ENDROOT
BRANCH   1   2
ATOM      2  C   UNL     1      -9.437  -6.800   1.339  0.00  0.00    +0.054 A 
ATOM      3  C   UNL     1      -9.308  -8.170   1.532  0.00  0.00    +0.025 A 
ATOM      4  C   UNL     1      -9.356  -8.694   2.809  0.00  0.00    +0.004 A 
ATOM      5  C   UNL     1      -9.532  -7.856   3.895  0.00  0.00    +0.033 A 
ATOM      6  C   UNL     1      -9.661  -6.492   3.707  0.00  0.00    +0.128 A 
ATOM      7  C   UNL     1      -9.608  -5.961   2.433  0.00  0.00    +0.057 A 
BRANCH   6   8
ATOM      8  N   UNL     1      -9.850  -5.600   4.872  0.00  0.00    +0.056 N 
ATOM      9  O   UNL     1      -9.892  -6.063   5.988  0.00  0.00    -0.126 OA
ATOM     10  O   UNL     1      -9.963  -4.407   4.708  0.00  0.00    -0.126 OA
ENDBRANCH   6   8
ENDBRANCH   1   2
BRANCH   1  11
ATOM     11  S   UNL     1     -10.605  -6.593  -1.027  0.00  0.00    +0.075 S 
ATOM     12  O   UNL     1     -11.711  -7.055  -0.263  0.00  0.00    -0.150 OA
ATOM     13  O   UNL     1     -10.693  -5.469  -1.892  0.00  0.00    -0.150 OA
BRANCH  11  14
ATOM     14  C   UNL     1     -10.075  -7.950  -2.017  0.00  0.00    +0.109 A 
ATOM     15  C   UNL     1      -9.258  -7.731  -3.111  0.00  0.00    +0.029 A 
ATOM     16  C   UNL     1      -8.842  -8.796  -3.887  0.00  0.00    +0.002 A 
ATOM     17  C   UNL     1      -9.242 -10.081  -3.571  0.00  0.00    +0.000 A 
ATOM     18  C   UNL     1     -10.059 -10.300  -2.477  0.00  0.00    +0.002 A 
ATOM     19  C   UNL     1     -10.471  -9.236  -1.698  0.00  0.00    +0.029 A 
ENDBRANCH  11  14
ENDBRANCH   1  11
BRANCH   1  20
ATOM     20  C   UNL     1      -8.263  -5.421  -0.352  0.00  0.00    +0.228 C 
BRANCH  20  22
ATOM     21  N   UNL     1      -5.976  -5.724  -1.245  0.00  0.00    -0.206 N 
ATOM     22  C   UNL     1      -7.125  -6.289  -0.824  0.00  0.00    +0.251 C 
ATOM     23  O   UNL     1      -7.243  -7.496  -0.825  0.00  0.00    -0.272 OA
ATOM     24  H   UNL     1      -5.881  -4.758  -1.244  0.00  0.00    +0.177 HD
BRANCH  21  26
ATOM     25  C   UNL     1      -3.811  -5.987  -2.089  0.00  0.00    +0.138 C 
ATOM     26  N   UNL     1      -4.918  -6.531  -1.683  0.00  0.00    -0.188 NA
BRANCH  25  30
ATOM     27  C   UNL     1      -0.605  -8.432  -3.416  0.00  0.00    +0.008 A 
ATOM     28  C   UNL     1      -0.468  -7.047  -3.417  0.00  0.00    +0.015 A 
ATOM     29  C   UNL     1      -1.506  -6.251  -2.987  0.00  0.00    +0.010 A 
ATOM     30  C   UNL     1      -2.698  -6.835  -2.550  0.00  0.00    -0.005 A 
ATOM     31  C   UNL     1      -2.833  -8.227  -2.551  0.00  0.00    +0.010 A 
ATOM     32  C   UNL     1      -1.793  -9.017  -2.987  0.00  0.00    +0.015 A 
BRANCH  27  34
ATOM     33  C   UNL     1       2.026  -8.263  -4.413  0.00  0.00    +0.090 C 
ATOM     34  S   UNL     1       0.726  -9.447  -3.967  0.00  0.00    -0.129 S 
ENDBRANCH  27  34
ENDBRANCH  25  30
ENDBRANCH  21  26
ENDBRANCH  20  22
ENDBRANCH   1  20
TORSDOF 9
