REMARK  Name = ZINC20434663
REMARK  4 active torsions:
REMARK  status: ('A' for Active; 'I' for Inactive)
REMARK    1  A    between atoms: N_3  and  C_10
REMARK    2  A    between atoms: C_10  and  C_11
REMARK    3  A    between atoms: N_13  and  C_14
REMARK    4  A    between atoms: C_15  and  N_22
REMARK                            x       y       z     vdW  Elec       q    Type
REMARK                         _______ _______ _______ _____ _____    ______ ____
ROOT
ATOM      1  C   UNL     1       1.073   6.594  -0.173  0.00  0.00    +0.237 C 
ATOM      2  O   UNL     1       2.094   6.003  -0.458  0.00  0.00    -0.274 OA
ATOM      3  N   UNL     1      -0.067   5.907   0.036  0.00  0.00    -0.281 N 
ATOM      4  H   UNL     1      -1.009   6.445   0.213  0.00  0.00    +0.155 HD
ENDROOT
BRANCH   3   5
ATOM      5  C   UNL     1      -0.052   4.504   0.027  0.00  0.00    +0.073 A 
ATOM      6  C   UNL     1      -0.268   3.810  -1.163  0.00  0.00    +0.049 A 
ATOM      7  C   UNL     1      -0.248   2.423  -1.167  0.00  0.00    +0.044 A 
ATOM      8  C   UNL     1      -0.024   1.732   0.011  0.00  0.00    +0.044 A 
ATOM      9  C   UNL     1       0.192   2.420   1.191  0.00  0.00    +0.042 A 
ATOM     10  C   UNL     1       0.178   3.804   1.202  0.00  0.00    +0.065 A 
ATOM     11 CL   UNL     1       0.447   4.663   2.686  0.00  0.00    -0.082 Cl
ATOM     12 CL   UNL     1      -0.005  -0.004   0.005  0.00  0.00    -0.083 Cl
BRANCH   6  13
ATOM     13  N   UNL     1      -0.501   4.511  -2.351  0.00  0.00    -0.356 N 
ATOM     14  H   UNL     1      -0.671   3.962  -3.289  0.00  0.00    +0.142 HD
ATOM     15  H   UNL     1      -0.513   5.611  -2.348  0.00  0.00    +0.142 HD
ENDBRANCH   6  13
ENDBRANCH   3   5
BRANCH   1  16
ATOM     16  C   UNL     1       1.081   8.096  -0.053  0.00  0.00    +0.222 C 
BRANCH  16  19
ATOM     17  C   UNL     1       4.563   9.207   0.453  0.00  0.00    +0.088 A 
ATOM     18  C   UNL     1       3.319   8.746   0.705  0.00  0.00    +0.096 A 
ATOM     19  N   UNL     1       2.429   8.601  -0.325  0.00  0.00    -0.292 N 
ATOM     20  C   UNL     1       2.778   8.924  -1.583  0.00  0.00    +0.330 A 
ATOM     21  O   UNL     1       1.970   8.791  -2.482  0.00  0.00    -0.246 OA
ATOM     22  N   UNL     1       4.009   9.391  -1.861  0.00  0.00    -0.275 N 
ATOM     23  H   UNL     1       4.279   9.650  -2.896  0.00  0.00    +0.173 HD
ATOM     24  C   UNL     1       4.917   9.543  -0.876  0.00  0.00    +0.254 A 
ATOM     25  O   UNL     1       6.032   9.965  -1.127  0.00  0.00    -0.268 OA
ENDBRANCH  16  19
ENDBRANCH   1  16
TORSDOF 4
