REMARK  Name = ZINC12469719
REMARK  6 active torsions:
REMARK  status: ('A' for Active; 'I' for Inactive)
REMARK    1  A    between atoms: C_1  and  C_2
REMARK    2  A    between atoms: C_9  and  C_18
REMARK    3  A    between atoms: C_20  and  O_27
REMARK    4  A    between atoms: C_21  and  O_25
REMARK    5  A    between atoms: O_25  and  C_26
REMARK    6  A    between atoms: O_27  and  C_28
REMARK                            x       y       z     vdW  Elec       q    Type
REMARK                         _______ _______ _______ _____ _____    ______ ____
ROOT
ATOM      1  C   UNL     1      -4.278   1.076  -2.549  0.00  0.00    +0.046 C 
ATOM      2  C   UNL     1      -3.403   0.889  -1.336  0.00  0.00    -0.028 A 
ATOM      3  C   UNL     1      -3.657  -0.147  -0.461  0.00  0.00    +0.025 A 
ATOM      4  C   UNL     1      -2.852  -0.319   0.651  0.00  0.00    +0.042 A 
ATOM      5  C   UNL     1      -1.800   0.546   0.883  0.00  0.00    +0.026 A 
ATOM      6  C   UNL     1      -1.538   1.591   0.008  0.00  0.00    -0.018 A 
ATOM      7  C   UNL     1      -2.342   1.763  -1.105  0.00  0.00    +0.034 A 
ATOM      8  N   UNL     1      -2.133   2.794  -2.022  0.00  0.00    -0.336 N 
ATOM      9  C   UNL     1      -0.747   3.242  -2.035  0.00  0.00    +0.105 C 
ATOM     10  C   UNL     1      -0.335   3.705  -0.636  0.00  0.00    +0.029 C 
ATOM     11  C   UNL     1      -0.381   2.494   0.318  0.00  0.00    +0.049 C 
ATOM     12  C   UNL     1       0.931   1.782   0.077  0.00  0.00    -0.023 C 
ATOM     13  C   UNL     1       1.800   2.596  -0.468  0.00  0.00    -0.030 C 
ATOM     14  C   UNL     1       1.196   3.973  -0.655  0.00  0.00    +0.033 C 
ATOM     15 CL   UNL     1      -3.166  -1.620   1.757  0.00  0.00    -0.084 Cl
ATOM     16  H   UNL     1      -2.439   2.525  -2.945  0.00  0.00    +0.147 HD
ENDROOT
BRANCH   9  17
ATOM     17  C   UNL     1       0.138   2.102  -2.469  0.00  0.00    -0.022 A 
ATOM     18  C   UNL     1       1.404   2.361  -2.961  0.00  0.00    +0.055 A 
ATOM     19  C   UNL     1       2.222   1.314  -3.355  0.00  0.00    +0.163 A 
ATOM     20  C   UNL     1       1.762   0.003  -3.264  0.00  0.00    +0.175 A 
ATOM     21  C   UNL     1       0.490  -0.249  -2.775  0.00  0.00    +0.063 A 
ATOM     22  C   UNL     1      -0.319   0.801  -2.378  0.00  0.00    +0.024 A 
ATOM     23 BR   UNL     1      -0.139  -2.028  -2.649  0.00  0.00    -0.046 Br
BRANCH  20  24
ATOM     24  O   UNL     1       2.559  -1.027  -3.655  0.00  0.00    -0.490 OA
ATOM     25  C   UNL     1       2.468  -1.435  -5.021  0.00  0.00    +0.277 C 
ENDBRANCH  20  24
BRANCH  19  26
ATOM     26  O   UNL     1       3.469   1.566  -3.834  0.00  0.00    -0.491 OA
ATOM     27  C   UNL     1       3.874   2.935  -3.899  0.00  0.00    +0.277 C 
ENDBRANCH  19  26
ENDBRANCH   9  17
TORSDOF 3
