REMARK  Name = ZINC67273351
REMARK  2 active torsions:
REMARK  status: ('A' for Active; 'I' for Inactive)
REMARK    1  A    between atoms: C_7  and  N_13
REMARK    2  A    between atoms: C_14  and  C_16
REMARK                            x       y       z     vdW  Elec       q    Type
REMARK                         _______ _______ _______ _____ _____    ______ ____
ROOT
ATOM      1  N   UNL     1      -0.112  -2.699   0.257  0.00  0.00    -0.308 N 
ATOM      2  C   UNL     1      -0.587  -2.808   1.514  0.00  0.00    +0.217 C 
ATOM      3  O   UNL     1       0.105  -2.480   2.454  0.00  0.00    -0.275 OA
ATOM      4  H   UNL     1      -0.665  -2.961  -0.495  0.00  0.00    +0.149 HD
ENDROOT
BRANCH   2   5
ATOM      5  C   UNL     1      -1.978  -3.336   1.750  0.00  0.00    +0.075 C 
ATOM      6  C   UNL     1      -2.993  -2.432   1.046  0.00  0.00    +0.015 C 
ATOM      7  C   UNL     1      -4.405  -2.975   1.277  0.00  0.00    +0.036 C 
ATOM      8  C   UNL     1      -4.694  -3.022   2.773  0.00  0.00    +0.112 C 
ATOM      9  C   UNL     1      -3.677  -3.903   3.492  0.00  0.00    +0.036 C 
ATOM     10  C   UNL     1      -2.268  -3.356   3.252  0.00  0.00    +0.015 C 
ATOM     11  C   UNL     1      -6.097  -3.523   3.025  0.00  0.00    +0.244 C 
ATOM     12  O   UNL     1      -6.556  -4.604   2.723  0.00  0.00    -0.273 OA
ATOM     13  N   UNL     1      -6.733  -2.514   3.656  0.00  0.00    -0.238 N 
ATOM     14  C   UNL     1      -5.928  -1.459   3.833  0.00  0.00    +0.307 C 
ATOM     15  O   UNL     1      -6.274  -0.430   4.379  0.00  0.00    -0.252 OA
ATOM     16  N   UNL     1      -4.692  -1.667   3.340  0.00  0.00    -0.285 N 
ATOM     17  H   UNL     1      -7.658  -2.549   3.945  0.00  0.00    +0.159 HD
ATOM     18  H   UNL     1      -3.948  -1.045   3.356  0.00  0.00    +0.151 HD
ENDBRANCH   2   5
BRANCH   1  25
ATOM     19  C   UNL     1      -0.017   1.380   0.010  0.00  0.00    +0.001 A 
ATOM     20  C   UNL     1       1.170   2.089   0.002  0.00  0.00    +0.004 A 
ATOM     21  C   UNL     1       2.380   1.421  -0.022  0.00  0.00    +0.046 A 
ATOM     22  C   UNL     1       2.398   0.032  -0.033  0.00  0.00    +0.125 A 
ATOM     23  C   UNL     1       1.211  -0.670  -0.010  0.00  0.00    +0.014 A 
ATOM     24  C   UNL     1       0.002  -0.004   0.002  0.00  0.00    +0.009 A 
ATOM     25  C   UNL     1       1.241  -2.186   0.028  0.00  0.00    +0.107 C 
ATOM     26  C   UNL     1       1.768  -2.699  -1.313  0.00  0.00    +0.030 C 
ATOM     27  C   UNL     1       3.289  -2.684  -1.338  0.00  0.00    +0.043 C 
ATOM     28  C   UNL     1       3.878  -1.290  -1.317  0.00  0.00    +0.229 C 
ATOM     29  O   UNL     1       3.587  -0.629  -0.081  0.00  0.00    -0.492 OA
ENDBRANCH   1  25
TORSDOF 2
