REMARK  Name = ZINC14093713
REMARK  8 active torsions:
REMARK  status: ('A' for Active; 'I' for Inactive)
REMARK    1  A    between atoms: C_1  and  C_2
REMARK    2  A    between atoms: C_2  and  C_4
REMARK    3  A    between atoms: C_2  and  S_16
REMARK    4  A    between atoms: N_6  and  C_7
REMARK    5  A    between atoms: N_6  and  C_8
REMARK    6  A    between atoms: C_8  and  C_14
REMARK    7  A    between atoms: S_16  and  C_17
REMARK    8  A    between atoms: N_22  and  C_23
REMARK                            x       y       z     vdW  Elec       q    Type
REMARK                         _______ _______ _______ _____ _____    ______ ____
ROOT
ATOM      1  C   UNL     1       3.079   4.223   1.303  0.00  0.00    +0.029 C 
ATOM      2  C   UNL     1       3.734   3.800  -0.013  0.00  0.00    +0.136 C 
ENDROOT
BRANCH   2   3
ATOM      3  C   UNL     1       5.074   4.475  -0.147  0.00  0.00    +0.230 C 
ATOM      4  O   UNL     1       6.089   3.866   0.119  0.00  0.00    -0.274 OA
ATOM      5  N   UNL     1       5.146   5.755  -0.562  0.00  0.00    -0.285 N 
ATOM      6  C   UNL     1       3.921   6.491  -0.883  0.00  0.00    +0.133 C 
BRANCH   5   7
ATOM      7  C   UNL     1       6.450   6.412  -0.691  0.00  0.00    +0.124 C 
ATOM      8  C   UNL     1       7.152   6.424   0.668  0.00  0.00    +0.041 C 
ATOM      9  C   UNL     1       8.513   7.109   0.532  0.00  0.00    +0.003 C 
ATOM     10  C   UNL     1       8.315   8.547   0.048  0.00  0.00    +0.000 C 
ATOM     11  C   UNL     1       7.612   8.535  -1.311  0.00  0.00    +0.003 C 
ATOM     12  C   UNL     1       6.251   7.849  -1.176  0.00  0.00    +0.041 C 
BRANCH   7  13
ATOM     13  C   UNL     1       7.275   5.676  -1.663  0.00  0.00    +0.089 C 
ATOM     14  N   UNL     1       7.911   5.108  -2.414  0.00  0.00    -0.194 NA
ENDBRANCH   7  13
ENDBRANCH   5   7
ENDBRANCH   2   3
BRANCH   2  15
ATOM     15  S   UNL     1       3.959   2.000  -0.025  0.00  0.00    -0.084 S 
BRANCH  15  16
ATOM     16  C   UNL     1       2.316   1.365  -0.013  0.00  0.00    +0.161 A 
ATOM     17  N   UNL     1       1.168   2.015   0.002  0.00  0.00    -0.133 NA
ATOM     18  N   UNL     1      -0.016   1.314   0.009  0.00  0.00    -0.125 NA
ATOM     19  C   UNL     1       0.002  -0.004   0.002  0.00  0.00    +0.183 A 
ATOM     20  S   UNL     1       1.758  -0.332  -0.017  0.00  0.00    -0.025 S 
ATOM     21  N   UNL     1      -1.061  -0.899   0.008  0.00  0.00    -0.319 N 
ATOM     22  H   UNL     1      -0.891  -1.854   0.002  0.00  0.00    +0.148 HD
BRANCH  21  23
ATOM     23  C   UNL     1      -2.439  -0.401   0.024  0.00  0.00    +0.072 C 
ATOM     24  C   UNL     1      -3.427  -1.087   0.969  0.00  0.00    +0.024 C 
ATOM     25  C   UNL     1      -3.527  -1.315  -0.541  0.00  0.00    +0.024 C 
ENDBRANCH  21  23
ENDBRANCH  15  16
ENDBRANCH   2  15
TORSDOF 6
