REMARK  Name = ZINC05214450
REMARK  5 active torsions:
REMARK  status: ('A' for Active; 'I' for Inactive)
REMARK    1  A    between atoms: C_1  and  C_2
REMARK    2  A    between atoms: C_5  and  S_8
REMARK    3  A    between atoms: S_8  and  N_11
REMARK    4  A    between atoms: N_11  and  C_12
REMARK    5  A    between atoms: C_22  and  C_26
REMARK                            x       y       z     vdW  Elec       q    Type
REMARK                         _______ _______ _______ _____ _____    ______ ____
ROOT
ATOM      1  C   UNL     1       5.603   2.772  -2.429  0.00  0.00    +0.049 A 
ATOM      2  C   UNL     1       5.999   1.845  -3.386  0.00  0.00    +0.028 A 
ATOM      3  C   UNL     1       5.232   0.737  -3.702  0.00  0.00    +0.049 A 
ATOM      4  C   UNL     1       4.031   0.578  -3.018  0.00  0.00    +0.136 A 
ATOM      5  C   UNL     1       3.625   1.522  -2.042  0.00  0.00    +0.025 A 
ATOM      6  C   UNL     1       4.408   2.635  -1.732  0.00  0.00    +0.036 A 
ATOM      7  C   UNL     1       2.348   1.042  -1.549  0.00  0.00    +0.001 A 
ATOM      8  C   UNL     1       2.083  -0.096  -2.221  0.00  0.00    +0.110 A 
ATOM      9  O   UNL     1       3.080  -0.361  -3.086  0.00  0.00    -0.459 OA
ATOM     10  C   UNL     1       0.836  -0.922  -2.005  0.00  0.00    +0.078 C 
ATOM     11  C   UNL     1       0.199  -0.510  -0.674  0.00  0.00    -0.007 C 
ATOM     12  C   UNL     1       0.059   1.015  -0.627  0.00  0.00    +0.008 C 
ATOM     13  C   UNL     1       1.451   1.647  -0.502  0.00  0.00    +0.039 C 
ATOM     14  C   UNL     1      -1.183  -1.153  -0.549  0.00  0.00    +0.008 C 
ENDROOT
BRANCH   1  15
ATOM     15  N   UNL     1       6.428   3.870  -2.160  0.00  0.00    -0.216 N 
ATOM     16  H   UNL     1       6.477   4.605  -2.790  0.00  0.00    +0.174 HD
BRANCH  15  17
ATOM     17  S   UNL     1       7.320   3.913  -0.765  0.00  0.00    +0.072 S 
ATOM     18  O   UNL     1       8.084   5.110  -0.809  0.00  0.00    -0.150 OA
ATOM     19  O   UNL     1       6.426   3.618   0.298  0.00  0.00    -0.150 OA
BRANCH  17  24
ATOM     20  C   UNL     1      11.256  -0.653  -1.023  0.00  0.00    +0.044 C 
ATOM     21  C   UNL     1      10.273   0.487  -0.958  0.00  0.00    -0.050 A 
ATOM     22  C   UNL     1      10.642   1.743  -1.403  0.00  0.00    +0.005 A 
ATOM     23  C   UNL     1       9.740   2.789  -1.344  0.00  0.00    +0.029 A 
ATOM     24  C   UNL     1       8.470   2.579  -0.841  0.00  0.00    +0.109 A 
ATOM     25  C   UNL     1       8.103   1.325  -0.391  0.00  0.00    +0.029 A 
ATOM     26  C   UNL     1       9.003   0.278  -0.455  0.00  0.00    +0.005 A 
ENDBRANCH  17  24
ENDBRANCH  15  17
ENDBRANCH   1  15
TORSDOF 3
