REMARK  Name = ZINC28571593
REMARK  6 active torsions:
REMARK  status: ('A' for Active; 'I' for Inactive)
REMARK    1  A    between atoms: C_1  and  C_2
REMARK    2  A    between atoms: C_2  and  C_3
REMARK    3  A    between atoms: C_3  and  C_4
REMARK    4  A    between atoms: C_4  and  N_5
REMARK    5  A    between atoms: N_12  and  C_16
REMARK    6  A    between atoms: C_16  and  C_17
REMARK                            x       y       z     vdW  Elec       q    Type
REMARK                         _______ _______ _______ _____ _____    ______ ____
ROOT
ATOM      1  N   UNL     1       3.836   6.484  -3.436  0.00  0.00    -0.313 N 
ATOM      2  C   UNL     1       2.450   6.494  -3.425  0.00  0.00    +0.219 A 
ATOM      3  N   UNL     1       1.804   6.885  -4.516  0.00  0.00    -0.198 NA
ATOM      4  C   UNL     1       0.476   6.911  -4.554  0.00  0.00    +0.147 A 
ATOM      5  C   UNL     1      -0.238   6.515  -3.411  0.00  0.00    +0.126 A 
ATOM      6  C   UNL     1       0.488   6.115  -2.279  0.00  0.00    +0.168 A 
ATOM      7  N   UNL     1       1.816   6.112  -2.328  0.00  0.00    -0.195 NA
ATOM      8  N   UNL     1      -0.445   5.781  -1.325  0.00  0.00    -0.272 N 
ATOM      9  C   UNL     1      -1.681   5.986  -1.872  0.00  0.00    +0.329 A 
ATOM     10  N   UNL     1      -1.556   6.417  -3.099  0.00  0.00    -0.302 N 
ATOM     11  O   UNL     1      -2.858   5.773  -1.237  0.00  0.00    -0.246 OA
ATOM     12  N   UNL     1      -0.191   7.320  -5.698  0.00  0.00    -0.341 N 
ATOM     13  H   UNL     1       4.391   6.164  -2.541  0.00  0.00    +0.149 HD
ATOM     14  H   UNL     1      -1.290   7.337  -5.717  0.00  0.00    +0.144 HD
ATOM     15  H   UNL     1       0.380   7.627  -6.586  0.00  0.00    +0.144 HD
ATOM     16  H   UNL     1      -2.319   6.687  -3.845  0.00  0.00    +0.171 HD
ENDROOT
BRANCH   1  17
ATOM     17  C   UNL     1       4.562   6.901  -4.638  0.00  0.00    +0.104 C 
BRANCH  17  18
ATOM     18  C   UNL     1       6.068   6.798  -4.385  0.00  0.00    +0.018 C 
BRANCH  18  20
ATOM     19  C   UNL     1       8.332   7.130  -5.388  0.00  0.00    +0.004 C 
ATOM     20  C   UNL     1       6.826   7.233  -5.641  0.00  0.00    -0.002 C 
ENDBRANCH  18  20
ENDBRANCH  17  18
ENDBRANCH   1  17
BRANCH   8  21
ATOM     21  C   UNL     1      -0.165   5.300   0.030  0.00  0.00    +0.166 C 
BRANCH  21  22
ATOM     22  C   UNL     1      -0.082   3.796   0.022  0.00  0.00    +0.009 A 
ATOM     23  C   UNL     1       1.151   3.161   0.008  0.00  0.00    +0.010 A 
ATOM     24  C   UNL     1       1.179   1.775   0.000  0.00  0.00    +0.020 A 
ATOM     25  C   UNL     1      -0.013   1.076   0.008  0.00  0.00    +0.112 A 
ATOM     26  N   UNL     1      -1.168   1.712   0.017  0.00  0.00    -0.243 NA
ATOM     27  C   UNL     1      -1.234   3.030   0.029  0.00  0.00    +0.134 A 
ATOM     28 CL   UNL     1      -2.784   3.811   0.048  0.00  0.00    -0.062 Cl
ENDBRANCH  21  22
ENDBRANCH   8  21
TORSDOF 5
