REMARK  Name = ZINC04959594
REMARK  3 active torsions:
REMARK  status: ('A' for Active; 'I' for Inactive)
REMARK    1  A    between atoms: C_1  and  C_2
REMARK    2  A    between atoms: C_4  and  C_28
REMARK    3  A    between atoms: C_9  and  C_18
REMARK                            x       y       z     vdW  Elec       q    Type
REMARK                         _______ _______ _______ _____ _____    ______ ____
ROOT
ATOM      1  C   UNL     1      -0.738   1.461   0.186  0.00  0.00    +0.044 C 
ATOM      2  C   UNL     1      -0.386  -0.003   0.124  0.00  0.00    -0.048 A 
ATOM      3  C   UNL     1      -0.341  -0.650  -1.098  0.00  0.00    +0.007 A 
ATOM      4  C   UNL     1      -0.027  -1.995  -1.156  0.00  0.00    -0.045 A 
ATOM      5  C   UNL     1       0.246  -2.696  -0.001  0.00  0.00    -0.016 A 
ATOM      6  C   UNL     1       0.216  -2.045   1.237  0.00  0.00    +0.032 A 
ATOM      7  C   UNL     1      -0.105  -0.693   1.284  0.00  0.00    +0.026 A 
ATOM      8  N   UNL     1       0.529  -2.717   2.425  0.00  0.00    -0.336 N 
ATOM      9  C   UNL     1       0.869  -4.156   2.424  0.00  0.00    +0.106 C 
ATOM     10  C   UNL     1       1.609  -4.402   1.121  0.00  0.00    +0.029 C 
ATOM     11  C   UNL     1       0.566  -4.140  -0.005  0.00  0.00    +0.049 C 
ATOM     12  C   UNL     1       1.166  -4.809  -1.188  0.00  0.00    -0.023 C 
ATOM     13  C   UNL     1       1.933  -5.807  -0.766  0.00  0.00    -0.030 C 
ATOM     14  C   UNL     1       1.954  -5.857   0.776  0.00  0.00    +0.033 C 
ATOM     15  C   UNL     1       0.018  -2.698  -2.488  0.00  0.00    +0.044 C 
ATOM     16  H   UNL     1       0.523  -2.229   3.263  0.00  0.00    +0.147 HD
ENDROOT
BRANCH   9  17
ATOM     17  C   UNL     1       1.756  -4.482   3.599  0.00  0.00    -0.009 A 
ATOM     18  C   UNL     1       3.113  -4.665   3.409  0.00  0.00    +0.056 A 
ATOM     19  C   UNL     1       3.929  -4.965   4.487  0.00  0.00    +0.167 A 
ATOM     20  C   UNL     1       3.380  -5.081   5.762  0.00  0.00    +0.167 A 
ATOM     21  C   UNL     1       2.019  -4.896   5.945  0.00  0.00    +0.065 A 
ATOM     22  C   UNL     1       1.210  -4.591   4.865  0.00  0.00    +0.027 A 
ATOM     23 BR   UNL     1      -0.645  -4.332   5.119  0.00  0.00    -0.050 Br
ATOM     24  O   UNL     1       4.380  -5.378   6.643  0.00  0.00    -0.453 OA
ATOM     25  C   UNL     1       5.477  -5.845   5.835  0.00  0.00    +0.466 C 
ATOM     26  O   UNL     1       5.273  -5.189   4.569  0.00  0.00    -0.453 OA
ENDBRANCH   9  17
TORSDOF 1
