REMARK  Name = ZINC21161373
REMARK  9 active torsions:
REMARK  status: ('A' for Active; 'I' for Inactive)
REMARK    1  A    between atoms: C_1  and  C_2
REMARK    2  A    between atoms: C_5  and  C_38
REMARK    3  A    between atoms: N_8  and  C_10
REMARK    4  A    between atoms: C_10  and  C_11
REMARK    5  A    between atoms: C_11  and  C_12
REMARK    6  A    between atoms: C_12  and  N_13
REMARK    7  A    between atoms: C_22  and  C_23
REMARK    8  A    between atoms: C_22  and  C_24
REMARK    9  A    between atoms: N_26  and  C_27
REMARK                            x       y       z     vdW  Elec       q    Type
REMARK                         _______ _______ _______ _____ _____    ______ ____
ROOT
ATOM      1  N   UNL     1      -2.298   1.327  -0.771  0.00  0.00    -0.281 N 
ATOM      2  C   UNL     1      -2.953   0.252  -0.273  0.00  0.00    +0.264 C 
ATOM      3  O   UNL     1      -3.611  -0.485  -0.984  0.00  0.00    -0.268 OA
ATOM      4  C   UNL     1      -2.825   0.022   1.171  0.00  0.00    +0.106 A 
ATOM      5  C   UNL     1      -3.201  -1.038   1.940  0.00  0.00    +0.048 A 
ATOM      6  C   UNL     1      -2.844  -0.742   3.250  0.00  0.00    +0.038 A 
ATOM      7  C   UNL     1      -2.245   0.526   3.298  0.00  0.00    +0.057 A 
ATOM      8  N   UNL     1      -2.255   0.988   1.995  0.00  0.00    -0.333 N 
ATOM      9  C   UNL     1      -1.779   2.270   1.469  0.00  0.00    +0.157 C 
ATOM     10  C   UNL     1      -1.331   2.079   0.020  0.00  0.00    +0.128 C 
ATOM     11  C   UNL     1      -1.133   3.455  -0.620  0.00  0.00    +0.043 C 
ATOM     12  C   UNL     1      -1.828   0.952   4.568  0.00  0.00    +0.034 A 
ATOM     13  C   UNL     1      -2.016   0.161   5.645  0.00  0.00    +0.048 A 
ATOM     14  S   UNL     1      -2.808  -1.276   4.942  0.00  0.00    -0.095 S 
ENDROOT
BRANCH  10  15
ATOM     15  C   UNL     1      -0.016   1.344   0.009  0.00  0.00    +0.238 C 
ATOM     16  O   UNL     1       1.026   1.964   0.003  0.00  0.00    -0.273 OA
ATOM     17  N   UNL     1       0.002  -0.004   0.002  0.00  0.00    -0.311 N 
ATOM     18  H   UNL     1      -0.943  -0.567   0.008  0.00  0.00    +0.149 HD
BRANCH  17  19
ATOM     19  C   UNL     1       1.281  -0.719  -0.014  0.00  0.00    +0.073 C 
ATOM     20  C   UNL     1       1.773  -0.851  -1.457  0.00  0.00    +0.022 C 
ATOM     21  C   UNL     1       3.256  -1.226  -1.456  0.00  0.00    +0.002 C 
ATOM     22  C   UNL     1       3.999  -0.375  -0.424  0.00  0.00    +0.000 C 
ATOM     23  C   UNL     1       4.494  -1.271   0.713  0.00  0.00    +0.000 C 
ATOM     24  C   UNL     1       3.319  -1.637   1.622  0.00  0.00    +0.000 C 
ATOM     25  C   UNL     1       2.460  -2.704   0.941  0.00  0.00    +0.002 C 
ATOM     26  C   UNL     1       1.093  -2.112   0.590  0.00  0.00    +0.022 C 
ENDBRANCH  17  19
ENDBRANCH  10  15
BRANCH   1  27
ATOM     27  C   UNL     1      -2.570   1.748  -2.148  0.00  0.00    +0.107 C 
BRANCH  27  28
ATOM     28  C   UNL     1      -1.608   1.033  -3.099  0.00  0.00    +0.000 C 
BRANCH  28  29
ATOM     29  C   UNL     1      -1.891   1.472  -4.537  0.00  0.00    -0.077 C 
BRANCH  29  35
ATOM     30  C   UNL     1       2.806   0.832  -5.851  0.00  0.00    +0.005 C 
ATOM     31  C   UNL     1       1.364   0.374  -6.079  0.00  0.00    -0.031 C 
ATOM     32  C   UNL     1       0.997   0.556  -7.554  0.00  0.00    +0.003 C 
ATOM     33  C   UNL     1      -0.466   0.152  -7.762  0.00  0.00    -0.031 C 
ATOM     34  C   UNL     1      -1.358   0.996  -6.850  0.00  0.00    -0.076 C 
ATOM     35  N   UNL     1      -0.968   0.786  -5.450  0.00  0.00    +0.380 N 
ATOM     36  C   UNL     1       0.418   1.212  -5.215  0.00  0.00    -0.076 C 
ATOM     37  C   UNL     1      -0.640  -1.329  -7.419  0.00  0.00    +0.005 C 
ATOM     38  H   UNL     1      -1.026  -0.293  -5.244  0.00  0.00    -0.082 HD
ENDBRANCH  29  35
ENDBRANCH  28  29
ENDBRANCH  27  28
ENDBRANCH   1  27
TORSDOF 6
