REMARK  Name = ZINC39696544
REMARK  10 active torsions:
REMARK  status: ('A' for Active; 'I' for Inactive)
REMARK    1  A    between atoms: C_1  and  C_2
REMARK    2  A    between atoms: C_2  and  C_3
REMARK    3  A    between atoms: C_2  and  C_4
REMARK    4  A    between atoms: C_2  and  S_5
REMARK    5  A    between atoms: S_5  and  C_6
REMARK    6  A    between atoms: C_6  and  C_7
REMARK    7  A    between atoms: C_7  and  N_8
REMARK    8  A    between atoms: C_9  and  C_11
REMARK    9  A    between atoms: C_22  and  C_24
REMARK   10  A    between atoms: C_27  and  C_29
REMARK                            x       y       z     vdW  Elec       q    Type
REMARK                         _______ _______ _______ _____ _____    ______ ____
ROOT
ATOM      1  C   UNL     1       6.994   0.612  -3.300  0.00  0.00    +0.100 C 
ATOM      2  C   UNL     1       6.941   2.149  -3.449  0.00  0.00    +0.121 C 
ATOM      3  N   UNL     1       8.164   2.493  -4.213  0.00  0.00    -0.294 N 
ATOM      4  C   UNL     1       8.286   1.411  -5.220  0.00  0.00    +0.115 C 
ATOM      5  C   UNL     1       7.877   0.132  -4.464  0.00  0.00    -0.004 C 
ATOM      6  C   UNL     1       9.114  -0.583  -3.929  0.00  0.00    -0.010 C 
ATOM      7  C   UNL     1       9.947  -1.101  -5.105  0.00  0.00    -0.082 C 
ATOM      8  N   UNL     1       9.137  -2.020  -5.913  0.00  0.00    +0.379 N 
ATOM      9  C   UNL     1       7.999  -1.302  -6.500  0.00  0.00    -0.082 C 
ATOM     10  C   UNL     1       7.084  -0.792  -5.383  0.00  0.00    -0.010 C 
ATOM     11  C   UNL     1       8.980   3.550  -4.033  0.00  0.00    +0.282 C 
ATOM     12  O   UNL     1       9.954   3.696  -4.749  0.00  0.00    -0.267 OA
ATOM     13  H   UNL     1       9.705  -2.407  -6.652  0.00  0.00    -0.086 HD
ATOM     14  H   UNL     1       8.795  -2.768  -5.329  0.00  0.00    -0.086 HD
ENDROOT
BRANCH  11  15
ATOM     15  C   UNL     1       8.696   4.523  -2.976  0.00  0.00    +0.190 A 
ATOM     16  C   UNL     1       9.441   5.646  -2.688  0.00  0.00    +0.055 A 
ATOM     17  C   UNL     1       8.813   6.282  -1.613  0.00  0.00    +0.050 A 
ATOM     18  C   UNL     1       7.719   5.534  -1.286  0.00  0.00    +0.136 A 
ATOM     19  O   UNL     1       7.655   4.480  -2.117  0.00  0.00    -0.450 OA
BRANCH  18  20
ATOM     20  C   UNL     1       6.762   5.835  -0.203  0.00  0.00    +0.017 A 
ATOM     21  C   UNL     1       6.934   6.974   0.587  0.00  0.00    +0.014 A 
ATOM     22  C   UNL     1       6.036   7.250   1.597  0.00  0.00    +0.039 A 
ATOM     23  C   UNL     1       4.965   6.401   1.828  0.00  0.00    +0.123 A 
ATOM     24  C   UNL     1       4.790   5.269   1.047  0.00  0.00    +0.039 A 
ATOM     25  C   UNL     1       5.678   4.986   0.031  0.00  0.00    +0.014 A 
ATOM     26  F   UNL     1       4.089   6.677   2.819  0.00  0.00    -0.205 F 
ENDBRANCH  18  20
ENDBRANCH  11  15
BRANCH   1  28
ATOM     27  N   UNL     1       5.311  -1.125  -2.780  0.00  0.00    -0.314 N 
ATOM     28  C   UNL     1       5.610   0.026  -3.414  0.00  0.00    +0.218 C 
ATOM     29  O   UNL     1       4.766   0.590  -4.077  0.00  0.00    -0.275 OA
ATOM     30  H   UNL     1       5.987  -1.576  -2.249  0.00  0.00    +0.149 HD
BRANCH  27  31
ATOM     31  C   UNL     1       3.966  -1.695  -2.891  0.00  0.00    +0.115 C 
BRANCH  31  32
ATOM     32  C   UNL     1       3.893  -2.992  -2.082  0.00  0.00    +0.088 C 
BRANCH  32  33
ATOM     33  S   UNL     1       2.228  -3.697  -2.220  0.00  0.00    -0.153 S 
BRANCH  33  35
ATOM     34  C   UNL     1       2.662  -4.846   0.224  0.00  0.00    +0.022 C 
ATOM     35  C   UNL     1       2.307  -5.208  -1.220  0.00  0.00    +0.008 C 
ATOM     36  C   UNL     1       3.377  -6.141  -1.789  0.00  0.00    +0.022 C 
ATOM     37  C   UNL     1       0.949  -5.911  -1.250  0.00  0.00    +0.022 C 
ENDBRANCH  33  35
ENDBRANCH  32  33
ENDBRANCH  31  32
ENDBRANCH  27  31
ENDBRANCH   1  28
TORSDOF 7
