REMARK  Name = ZINC01440820
REMARK  8 active torsions:
REMARK  status: ('A' for Active; 'I' for Inactive)
REMARK    1  A    between atoms: C_5  and  C_7
REMARK    2  A    between atoms: C_7  and  O_8
REMARK    3  A    between atoms: O_8  and  C_9
REMARK    4  A    between atoms: C_14  and  C_15
REMARK    5  A    between atoms: C_22  and  C_24
REMARK    6  A    between atoms: C_24  and  O_25
REMARK    7  A    between atoms: C_27  and  N_31
REMARK    8  A    between atoms: C_28  and  C_29
REMARK                            x       y       z     vdW  Elec       q    Type
REMARK                         _______ _______ _______ _____ _____    ______ ____
ROOT
ATOM      1  C   UNL     1      -0.059   5.351   0.029  0.00  0.00    +0.138 C 
ATOM      2  C   UNL     1       0.635   5.863  -1.208  0.00  0.00    +0.164 A 
ATOM      3  C   UNL     1       1.891   6.348  -1.133  0.00  0.00    +0.215 A 
ATOM      4  C   UNL     1       2.523   6.823  -2.318  0.00  0.00    +0.228 A 
ATOM      5  O   UNL     1       3.660   7.269  -2.291  0.00  0.00    -0.284 OA
ATOM      6  C   UNL     1       1.789   6.761  -3.529  0.00  0.00    +0.098 A 
ATOM      7  C   UNL     1       0.539   6.260  -3.500  0.00  0.00    +0.134 A 
ATOM      8  O   UNL     1      -0.024   5.825  -2.376  0.00  0.00    -0.457 OA
ATOM      9  O   UNL     1       2.569   6.394   0.040  0.00  0.00    -0.434 OA
ATOM     10  C   UNL     1       1.899   6.339   1.204  0.00  0.00    +0.199 C 
ATOM     11  C   UNL     1       0.637   5.849   1.264  0.00  0.00    +0.101 C 
ENDROOT
BRANCH   1  17
ATOM     12  C   UNL     1      -1.236   3.137   0.030  0.00  0.00    +0.125 A 
ATOM     13  C   UNL     1      -1.218   1.750   0.017  0.00  0.00    +0.046 A 
ATOM     14  C   UNL     1      -0.013   1.076   0.008  0.00  0.00    +0.004 A 
ATOM     15  C   UNL     1       1.176   1.783   0.000  0.00  0.00    +0.001 A 
ATOM     16  C   UNL     1       1.161   3.165   0.007  0.00  0.00    +0.008 A 
ATOM     17  C   UNL     1      -0.043   3.844   0.022  0.00  0.00    +0.010 A 
BRANCH  12  18
ATOM     18  O   UNL     1      -2.421   3.802   0.046  0.00  0.00    -0.487 OA
BRANCH  18  19
ATOM     19  C   UNL     1      -3.610   3.009   0.053  0.00  0.00    +0.266 C 
BRANCH  19  24
ATOM     20  C   UNL     1      -5.758   6.114   0.092  0.00  0.00    +0.000 A 
ATOM     21  C   UNL     1      -7.030   5.571   0.101  0.00  0.00    +0.001 A 
ATOM     22  C   UNL     1      -7.195   4.199   0.095  0.00  0.00    +0.020 A 
ATOM     23  C   UNL     1      -6.088   3.369   0.074  0.00  0.00    +0.047 A 
ATOM     24  C   UNL     1      -4.816   3.913   0.070  0.00  0.00    +0.008 A 
ATOM     25  C   UNL     1      -4.652   5.285   0.076  0.00  0.00    +0.008 A 
ATOM     26 CL   UNL     1      -6.295   1.645   0.059  0.00  0.00    -0.083 Cl
ENDBRANCH  19  24
ENDBRANCH  18  19
ENDBRANCH  12  18
ENDBRANCH   1  17
BRANCH  10  27
ATOM     27  N   UNL     1       2.505   6.785   2.353  0.00  0.00    -0.328 N 
ATOM     28  H   UNL     1       3.409   7.136   2.319  0.00  0.00    +0.145 HD
ATOM     29  H   UNL     1       2.029   6.749   3.197  0.00  0.00    +0.145 HD
ENDBRANCH  10  27
BRANCH  11  30
ATOM     30  C   UNL     1      -0.045   5.808   2.523  0.00  0.00    +0.101 C 
ATOM     31  N   UNL     1      -0.585   5.776   3.522  0.00  0.00    -0.191 NA
ENDBRANCH  11  30
BRANCH   7  32
ATOM     32  C   UNL     1      -0.247   6.192  -4.784  0.00  0.00    +0.230 C 
BRANCH  32  33
ATOM     33  O   UNL     1      -0.007   4.936  -5.423  0.00  0.00    -0.387 OA
ATOM     34  H   UNL     1      -0.483   4.822  -6.257  0.00  0.00    +0.210 HD
ENDBRANCH  32  33
ENDBRANCH   7  32
TORSDOF 8
