REMARK  Name = ZINC58993960
REMARK  7 active torsions:
REMARK  status: ('A' for Active; 'I' for Inactive)
REMARK    1  A    between atoms: C_3  and  C_8
REMARK    2  A    between atoms: N_9  and  N_10
REMARK    3  A    between atoms: C_13  and  S_16
REMARK    4  A    between atoms: S_16  and  C_17
REMARK    5  A    between atoms: C_17  and  C_18
REMARK    6  A    between atoms: N_20  and  C_21
REMARK    7  A    between atoms: C_22  and  C_30
REMARK                            x       y       z     vdW  Elec       q    Type
REMARK                         _______ _______ _______ _____ _____    ______ ____
ROOT
ATOM      1  N   UNL     1       5.991   2.237  -0.044  0.00  0.00    -0.205 N 
ATOM      2  C   UNL     1       7.196   1.560  -0.059  0.00  0.00    +0.232 A 
ATOM      3  N   UNL     1       7.349   0.252  -0.073  0.00  0.00    -0.186 NA
ATOM      4  C   UNL     1       8.652  -0.049  -0.086  0.00  0.00    +0.211 A 
ATOM      5  N   UNL     1       9.346   1.065  -0.080  0.00  0.00    -0.144 NA
ATOM      6  N   UNL     1       8.423   2.123  -0.068  0.00  0.00    -0.245 N 
ATOM      7  H   UNL     1       5.980   3.207  -0.039  0.00  0.00    +0.177 HD
ATOM      8  H   UNL     1       8.627   3.071  -0.065  0.00  0.00    +0.192 HD
ENDROOT
BRANCH   1  10
ATOM      9  C   UNL     1       3.654   2.159  -0.022  0.00  0.00    +0.138 C 
ATOM     10  N   UNL     1       4.786   1.523  -0.036  0.00  0.00    -0.188 NA
BRANCH   9  13
ATOM     11  C   UNL     1      -0.017   1.379   0.010  0.00  0.00    +0.002 A 
ATOM     12  C   UNL     1       1.166   2.089   0.002  0.00  0.00    +0.009 A 
ATOM     13  C   UNL     1       2.386   1.407  -0.013  0.00  0.00    -0.004 A 
ATOM     14  C   UNL     1       2.398   0.010  -0.021  0.00  0.00    +0.024 A 
ATOM     15  C   UNL     1       1.207  -0.687  -0.013  0.00  0.00    +0.018 A 
ATOM     16  C   UNL     1       0.002  -0.004   0.002  0.00  0.00    +0.015 A 
ATOM     17 BR   UNL     1       1.220  -2.578  -0.024  0.00  0.00    -0.050 Br
ENDBRANCH   9  13
ENDBRANCH   1  10
BRANCH   4  18
ATOM     18  S   UNL     1       9.327  -1.676  -0.106  0.00  0.00    -0.075 S 
BRANCH  18  19
ATOM     19  C   UNL     1      11.121  -1.407  -0.117  0.00  0.00    +0.173 C 
BRANCH  19  20
ATOM     20  C   UNL     1      11.828  -2.738  -0.135  0.00  0.00    +0.228 C 
ATOM     21  O   UNL     1      11.185  -3.766  -0.140  0.00  0.00    -0.275 OA
ATOM     22  N   UNL     1      13.175  -2.785  -0.146  0.00  0.00    -0.278 N 
ATOM     23  H   UNL     1      13.689  -1.962  -0.141  0.00  0.00    +0.155 HD
BRANCH  22  24
ATOM     24  C   UNL     1      13.826  -4.010  -0.162  0.00  0.00    +0.090 A 
ATOM     25  C   UNL     1      15.191  -4.249  -0.169  0.00  0.00    +0.084 A 
ATOM     26  C   UNL     1      15.623  -5.635  -0.186  0.00  0.00    -0.018 A 
ATOM     27  C   UNL     1      14.610  -6.529  -0.194  0.00  0.00    -0.004 A 
ATOM     28  S   UNL     1      13.142  -5.543  -0.172  0.00  0.00    -0.077 S 
ATOM     29  C   UNL     1      14.728  -8.022  -0.214  0.00  0.00    +0.043 C 
ATOM     30  C   UNL     1      16.168  -8.387  -0.604  0.00  0.00    +0.005 C 
ATOM     31  C   UNL     1      17.136  -7.553   0.239  0.00  0.00    +0.005 C 
ATOM     32  C   UNL     1      17.076  -6.087  -0.195  0.00  0.00    +0.037 C 
BRANCH  25  33
ATOM     33  C   UNL     1      16.136  -3.174  -0.160  0.00  0.00    +0.102 C 
ATOM     34  N   UNL     1      16.886  -2.321  -0.153  0.00  0.00    -0.191 NA
ENDBRANCH  25  33
ENDBRANCH  22  24
ENDBRANCH  19  20
ENDBRANCH  18  19
ENDBRANCH   4  18
TORSDOF 7
