REMARK  Name = ZINC30757707
REMARK  8 active torsions:
REMARK  status: ('A' for Active; 'I' for Inactive)
REMARK    1  A    between atoms: C_1  and  C_2
REMARK    2  A    between atoms: C_5  and  C_8
REMARK    3  A    between atoms: C_8  and  C_10
REMARK    4  A    between atoms: C_8  and  N_11
REMARK    5  A    between atoms: C_12  and  C_14
REMARK    6  A    between atoms: C_17  and  C_20
REMARK    7  A    between atoms: N_22  and  C_27
REMARK    8  A    between atoms: C_27  and  C_28
REMARK                            x       y       z     vdW  Elec       q    Type
REMARK                         _______ _______ _______ _____ _____    ______ ____
ROOT
ATOM      1  C   UNL     1      -1.234   3.143   0.029  0.00  0.00    +0.037 A 
ATOM      2  C   UNL     1      -1.217   1.748   0.017  0.00  0.00    +0.013 A 
ATOM      3  C   UNL     1      -0.013   1.076   0.008  0.00  0.00    +0.007 A 
ATOM      4  C   UNL     1       1.177   1.782   0.000  0.00  0.00    -0.017 A 
ATOM      5  C   UNL     1       1.167   3.166   0.008  0.00  0.00    +0.007 A 
ATOM      6  C   UNL     1      -0.031   3.850   0.022  0.00  0.00    +0.013 A 
ENDROOT
BRANCH   4   7
ATOM      7  C   UNL     1       2.489   1.042  -0.016  0.00  0.00    +0.165 C 
ATOM      8  N   UNL     1       3.577   1.879   0.525  0.00  0.00    -0.280 N 
ATOM      9  C   UNL     1       4.724   1.957  -0.137  0.00  0.00    +0.227 C 
ATOM     10  O   UNL     1       5.644   2.631   0.277  0.00  0.00    -0.275 OA
ATOM     11  C   UNL     1       4.844   1.172  -1.433  0.00  0.00    +0.167 C 
ATOM     12  S   UNL     1       3.072   0.763  -1.743  0.00  0.00    -0.124 S 
BRANCH   8  13
ATOM     13  C   UNL     1       3.393   2.616   1.778  0.00  0.00    +0.144 C 
BRANCH  13  14
ATOM     14  C   UNL     1       3.825   1.754   2.936  0.00  0.00    -0.030 A 
ATOM     15  C   UNL     1       2.910   0.928   3.562  0.00  0.00    +0.006 A 
ATOM     16  C   UNL     1       3.308   0.133   4.620  0.00  0.00    +0.020 A 
ATOM     17  C   UNL     1       4.619   0.172   5.060  0.00  0.00    +0.041 A 
ATOM     18  C   UNL     1       5.533   1.003   4.437  0.00  0.00    +0.020 A 
ATOM     19  C   UNL     1       5.135   1.793   3.375  0.00  0.00    +0.006 A 
ATOM     20 CL   UNL     1       5.118  -0.821   6.394  0.00  0.00    -0.084 Cl
ENDBRANCH  13  14
ENDBRANCH   8  13
ENDBRANCH   4   7
BRANCH   1  22
ATOM     21  N   UNL     1      -3.683   3.185   0.051  0.00  0.00    -0.305 N 
ATOM     22  C   UNL     1      -2.522   3.870   0.044  0.00  0.00    +0.245 C 
ATOM     23  O   UNL     1      -2.534   5.085   0.050  0.00  0.00    -0.270 OA
ATOM     24  H   UNL     1      -3.672   2.085   0.046  0.00  0.00    +0.150 HD
BRANCH  21  25
ATOM     25  C   UNL     1      -4.958   3.905   0.066  0.00  0.00    +0.100 C 
ATOM     26  C   UNL     1      -5.328   4.258   1.508  0.00  0.00    +0.033 C 
BRANCH  25  31
ATOM     27  C   UNL     1      -9.083   0.562  -2.216  0.00  0.00    +0.044 C 
ATOM     28  C   UNL     1      -8.007   1.434  -1.622  0.00  0.00    -0.050 A 
ATOM     29  C   UNL     1      -7.976   2.786  -1.908  0.00  0.00    +0.004 A 
ATOM     30  C   UNL     1      -6.989   3.585  -1.362  0.00  0.00    +0.006 A 
ATOM     31  C   UNL     1      -6.034   3.033  -0.530  0.00  0.00    -0.027 A 
ATOM     32  C   UNL     1      -6.062   1.680  -0.247  0.00  0.00    +0.006 A 
ATOM     33  C   UNL     1      -7.051   0.881  -0.790  0.00  0.00    +0.004 A 
ENDBRANCH  25  31
ENDBRANCH  21  25
ENDBRANCH   1  22
TORSDOF 6
