REMARK  Name = ZINC44886516
REMARK  8 active torsions:
REMARK  status: ('A' for Active; 'I' for Inactive)
REMARK    1  A    between atoms: C_1  and  C_2
REMARK    2  A    between atoms: N_6  and  C_7
REMARK    3  A    between atoms: C_12  and  C_13
REMARK    4  A    between atoms: C_13  and  N_14
REMARK    5  A    between atoms: C_15  and  C_17
REMARK    6  A    between atoms: C_20  and  C_23
REMARK    7  A    between atoms: N_25  and  C_30
REMARK    8  A    between atoms: C_30  and  C_31
REMARK                            x       y       z     vdW  Elec       q    Type
REMARK                         _______ _______ _______ _____ _____    ______ ____
ROOT
ATOM      1  N   UNL     1      -3.094  -0.619   1.998  0.00  0.00    -0.307 N 
ATOM      2  C   UNL     1      -4.226  -0.600   1.266  0.00  0.00    +0.244 C 
ATOM      3  O   UNL     1      -4.554   0.413   0.681  0.00  0.00    -0.270 OA
ATOM      4  H   UNL     1      -2.832  -1.428   2.465  0.00  0.00    +0.149 HD
ENDROOT
BRANCH   2   5
ATOM      5  C   UNL     1      -5.068  -1.812   1.176  0.00  0.00    +0.037 A 
ATOM      6  C   UNL     1      -4.697  -2.975   1.851  0.00  0.00    +0.013 A 
ATOM      7  C   UNL     1      -5.488  -4.102   1.763  0.00  0.00    +0.007 A 
ATOM      8  C   UNL     1      -6.646  -4.081   1.006  0.00  0.00    -0.017 A 
ATOM      9  C   UNL     1      -7.019  -2.931   0.334  0.00  0.00    +0.007 A 
ATOM     10  C   UNL     1      -6.241  -1.795   0.419  0.00  0.00    +0.013 A 
BRANCH   8  11
ATOM     11  C   UNL     1      -7.505  -5.316   0.914  0.00  0.00    +0.165 C 
ATOM     12  N   UNL     1      -8.271  -5.335  -0.346  0.00  0.00    -0.277 N 
ATOM     13  C   UNL     1      -9.567  -5.617  -0.312  0.00  0.00    +0.227 C 
ATOM     14  O   UNL     1     -10.231  -5.648  -1.326  0.00  0.00    -0.275 OA
ATOM     15  C   UNL     1     -10.190  -5.901   1.046  0.00  0.00    +0.167 C 
ATOM     16  S   UNL     1      -8.861  -5.275   2.164  0.00  0.00    -0.124 S 
BRANCH  12  17
ATOM     17  C   UNL     1      -7.610  -5.046  -1.621  0.00  0.00    +0.183 C 
BRANCH  17  18
ATOM     18  C   UNL     1      -7.086  -6.327  -2.217  0.00  0.00    +0.122 A 
ATOM     19  C   UNL     1      -7.757  -7.136  -3.056  0.00  0.00    +0.046 A 
ATOM     20  C   UNL     1      -6.895  -8.214  -3.364  0.00  0.00    +0.041 A 
ATOM     21  C   UNL     1      -5.749  -7.999  -2.693  0.00  0.00    +0.195 A 
ATOM     22  O   UNL     1      -5.868  -6.852  -2.005  0.00  0.00    -0.466 OA
ENDBRANCH  17  18
ENDBRANCH  12  17
ENDBRANCH   8  11
ENDBRANCH   2   5
BRANCH   1  23
ATOM     23  C   UNL     1      -2.259   0.581   2.088  0.00  0.00    +0.142 C 
BRANCH  23  29
ATOM     24  C   UNL     1       0.030  -0.381   2.438  0.00  0.00    +0.052 A 
ATOM     25  C   UNL     1       1.133  -0.636   3.242  0.00  0.00    +0.026 A 
ATOM     26  C   UNL     1       1.137  -0.220   4.559  0.00  0.00    +0.002 A 
ATOM     27  C   UNL     1       0.044   0.452   5.076  0.00  0.00    +0.000 A 
ATOM     28  C   UNL     1      -1.055   0.707   4.278  0.00  0.00    +0.007 A 
ATOM     29  C   UNL     1      -1.063   0.297   2.959  0.00  0.00    -0.006 A 
BRANCH  24  35
ATOM     30  C   UNL     1      -0.018   1.503   0.010  0.00  0.00    +0.084 C 
ATOM     31  C   UNL     1       0.002  -0.004   0.002  0.00  0.00    +0.088 A 
ATOM     32  N   UNL     1       0.008  -0.760  -1.062  0.00  0.00    -0.350 N 
ATOM     33  C   UNL     1       0.027  -2.049  -0.691  0.00  0.00    +0.102 A 
ATOM     34  C   UNL     1       0.033  -2.099   0.655  0.00  0.00    +0.110 A 
ATOM     35  N   UNL     1       0.023  -0.803   1.100  0.00  0.00    -0.305 N 
ATOM     36  H   UNL     1      -0.000  -0.440  -1.978  0.00  0.00    +0.166 HD
ENDBRANCH  24  35
ENDBRANCH  23  29
ENDBRANCH   1  23
TORSDOF 7
