REMARK  Name = ZINC42007980
REMARK  4 active torsions:
REMARK  status: ('A' for Active; 'I' for Inactive)
REMARK    1  A    between atoms: C_5  and  N_16
REMARK    2  A    between atoms: C_6  and  S_7
REMARK    3  A    between atoms: S_7  and  C_8
REMARK    4  A    between atoms: C_8  and  C_13
REMARK                            x       y       z     vdW  Elec       q    Type
REMARK                         _______ _______ _______ _____ _____    ______ ____
ROOT
ATOM      1  C   UNL     1      -0.017   1.388   0.010  0.00  0.00    +0.036 A 
ATOM      2  C   UNL     1       1.180   2.077   0.002  0.00  0.00    +0.112 A 
ATOM      3  N   UNL     1       2.332   1.435  -0.013  0.00  0.00    -0.261 NA
ATOM      4  C   UNL     1       2.398   0.116  -0.020  0.00  0.00    +0.134 A 
ATOM      5  C   UNL     1       1.245  -0.650  -0.014  0.00  0.00    +0.057 A 
ATOM      6  C   UNL     1       0.002  -0.004   0.002  0.00  0.00    +0.032 A 
ENDROOT
BRANCH   5   7
ATOM      7  N   UNL     1       1.320  -2.048  -0.023  0.00  0.00    -0.356 N 
ATOM      8  H   UNL     1       2.185  -2.487  -0.034  0.00  0.00    +0.142 HD
ATOM      9  H   UNL     1       0.508  -2.578  -0.018  0.00  0.00    +0.142 HD
ENDBRANCH   5   7
BRANCH   6  10
ATOM     10  S   UNL     1      -1.498  -0.929   0.012  0.00  0.00    -0.104 S 
BRANCH  10  11
ATOM     11  C   UNL     1      -2.795   0.339   0.032  0.00  0.00    +0.131 C 
ATOM     12  C   UNL     1      -4.151  -0.351   0.178  0.00  0.00    +0.041 C 
ATOM     13  C   UNL     1      -5.266   0.508  -0.482  0.00  0.00    +0.071 C 
ATOM     14  S   UNL     1      -4.359   1.091  -1.981  0.00  0.00    -0.159 S 
ATOM     15  C   UNL     1      -2.673   1.190  -1.248  0.00  0.00    +0.098 C 
BRANCH  11  16
ATOM     16  C   UNL     1      -2.579   1.230   1.227  0.00  0.00    +0.373 C 
ATOM     17  O   UNL     1      -1.651   1.015   1.988  0.00  0.00    -0.245 OA
ATOM     18  O   UNL     1      -3.332   2.167   1.433  0.00  0.00    -0.245 OA
ENDBRANCH  11  16
ENDBRANCH  10  11
ENDBRANCH   6  10
TORSDOF 4
