REMARK  Name = ZINC54478976
REMARK  8 active torsions:
REMARK  status: ('A' for Active; 'I' for Inactive)
REMARK    1  A    between atoms: C_1  and  C_2
REMARK    2  A    between atoms: C_2  and  C_3
REMARK    3  A    between atoms: C_3  and  C_5
REMARK    4  A    between atoms: C_3  and  N_6
REMARK    5  A    between atoms: C_7  and  C_9
REMARK    6  A    between atoms: C_12  and  N_15
REMARK    7  A    between atoms: C_22  and  C_24
REMARK    8  A    between atoms: C_29  and  C_30
REMARK                            x       y       z     vdW  Elec       q    Type
REMARK                         _______ _______ _______ _____ _____    ______ ____
ROOT
ATOM      1  N   UNL     1       8.280   1.595   2.034  0.00  0.00    -0.269 N 
ATOM      2  C   UNL     1       8.975   1.819   3.167  0.00  0.00    +0.307 C 
ATOM      3  O   UNL     1       8.463   1.595   4.247  0.00  0.00    -0.252 OA
ATOM      4  N   UNL     1      10.236   2.290   3.104  0.00  0.00    -0.278 N 
ATOM      5  C   UNL     1      10.972   2.610   1.867  0.00  0.00    +0.110 C 
ATOM      6  C   UNL     1      12.040   3.646   2.298  0.00  0.00    +0.021 C 
ATOM      7  C   UNL     1      12.437   3.118   3.702  0.00  0.00    +0.029 C 
ATOM      8  C   UNL     1      11.102   2.577   4.256  0.00  0.00    +0.108 C 
ATOM      9  H   UNL     1       8.713   1.700   1.172  0.00  0.00    +0.156 HD
ENDROOT
BRANCH   8  10
ATOM     10  C   UNL     1      11.350   1.313   5.038  0.00  0.00    -0.024 A 
ATOM     11  C   UNL     1      11.232   0.083   4.419  0.00  0.00    +0.006 A 
ATOM     12  C   UNL     1      11.459  -1.077   5.137  0.00  0.00    +0.000 A 
ATOM     13  C   UNL     1      11.805  -1.006   6.474  0.00  0.00    +0.000 A 
ATOM     14  C   UNL     1      11.923   0.225   7.092  0.00  0.00    +0.004 A 
ATOM     15  C   UNL     1      11.700   1.384   6.373  0.00  0.00    -0.046 A 
ATOM     16  C   UNL     1      11.835   2.726   7.047  0.00  0.00    +0.044 C 
ENDBRANCH   8  10
BRANCH   1  20
ATOM     17  C   UNL     1       4.279   0.457   2.232  0.00  0.00    +0.037 A 
ATOM     18  C   UNL     1       4.809   1.324   3.192  0.00  0.00    +0.015 A 
ATOM     19  C   UNL     1       6.131   1.698   3.123  0.00  0.00    +0.024 A 
ATOM     20  C   UNL     1       6.941   1.214   2.100  0.00  0.00    +0.035 A 
ATOM     21  C   UNL     1       6.417   0.351   1.143  0.00  0.00    +0.024 A 
ATOM     22  C   UNL     1       5.096  -0.032   1.209  0.00  0.00    +0.015 A 
BRANCH  17  24
ATOM     23  N   UNL     1       2.074   0.525   3.290  0.00  0.00    -0.309 N 
ATOM     24  C   UNL     1       2.861   0.053   2.303  0.00  0.00    +0.244 C 
ATOM     25  O   UNL     1       2.403  -0.706   1.470  0.00  0.00    -0.270 OA
ATOM     26  H   UNL     1       2.440   1.130   3.954  0.00  0.00    +0.149 HD
BRANCH  23  27
ATOM     27  C   UNL     1       0.667   0.124   3.360  0.00  0.00    +0.070 C 
ATOM     28  C   UNL     1      -0.169   1.035   2.458  0.00  0.00    +0.028 C 
BRANCH  27  30
ATOM     29  C   UNL     1       0.924  -0.758   5.684  0.00  0.00    +0.005 C 
ATOM     30  C   UNL     1       0.174   0.244   4.803  0.00  0.00    +0.018 C 
ENDBRANCH  27  30
ENDBRANCH  23  27
ENDBRANCH  17  24
ENDBRANCH   1  20
TORSDOF 5
