REMARK  Name = ZINC23630016
REMARK  7 active torsions:
REMARK  status: ('A' for Active; 'I' for Inactive)
REMARK    1  A    between atoms: C_1  and  C_2
REMARK    2  A    between atoms: C_2  and  C_4
REMARK    3  A    between atoms: C_2  and  O_16
REMARK    4  A    between atoms: O_16  and  C_17
REMARK    5  A    between atoms: C_17  and  C_19
REMARK    6  A    between atoms: C_19  and  C_20
REMARK    7  A    between atoms: C_20  and  N_21
REMARK                            x       y       z     vdW  Elec       q    Type
REMARK                         _______ _______ _______ _____ _____    ______ ____
ROOT
ATOM      1  C   UNL     1       5.515   1.922   0.662  0.00  0.00    +0.309 C 
ATOM      2  O   UNL     1       5.668   2.255   1.814  0.00  0.00    -0.251 OA
ENDROOT
BRANCH   1   3
ATOM      3  O   UNL     1       6.391   1.085   0.084  0.00  0.00    -0.454 OA
BRANCH   3   5
ATOM      4  C   UNL     1       8.677   1.582   0.758  0.00  0.00    +0.060 C 
ATOM      5  C   UNL     1       7.496   0.620   0.902  0.00  0.00    +0.239 C 
BRANCH   5   6
ATOM      6  C   UNL     1       7.912  -0.756   0.448  0.00  0.00    +0.151 A 
ATOM      7  N   UNL     1       7.125  -1.811   0.785  0.00  0.00    -0.307 N 
ATOM      8  H   UNL     1       6.212  -1.649   1.378  0.00  0.00    +0.170 HD
ATOM      9  C   UNL     1       7.451  -3.066   0.397  0.00  0.00    +0.259 A 
ATOM     10  O   UNL     1       6.752  -4.019   0.688  0.00  0.00    -0.267 OA
ATOM     11  C   UNL     1       8.686  -3.233  -0.384  0.00  0.00    +0.065 A 
ATOM     12  C   UNL     1       9.114  -4.483  -0.826  0.00  0.00    +0.015 A 
ATOM     13  C   UNL     1      10.280  -4.583  -1.554  0.00  0.00    +0.001 A 
ATOM     14  C   UNL     1      11.027  -3.450  -1.848  0.00  0.00    +0.002 A 
ATOM     15  C   UNL     1      10.621  -2.206  -1.421  0.00  0.00    +0.028 A 
ATOM     16  C   UNL     1       9.444  -2.079  -0.681  0.00  0.00    +0.078 A 
ATOM     17  N   UNL     1       9.007  -0.874  -0.239  0.00  0.00    -0.230 NA
ENDBRANCH   5   6
ENDBRANCH   3   5
ENDBRANCH   1   3
BRANCH   1  18
ATOM     18  C   UNL     1       4.342   2.447  -0.124  0.00  0.00    +0.140 C 
BRANCH  18  19
ATOM     19  C   UNL     1       3.507   3.373   0.762  0.00  0.00    +0.122 C 
BRANCH  19  20
ATOM     20  N   UNL     1       2.366   3.883  -0.003  0.00  0.00    -0.298 N 
ATOM     21  C   UNL     1       1.165   3.166   0.007  0.00  0.00    +0.048 A 
ATOM     22  C   UNL     1       1.179   1.780   0.000  0.00  0.00    +0.024 A 
ATOM     23  C   UNL     1      -0.013   1.076   0.008  0.00  0.00    +0.002 A 
ATOM     24  C   UNL     1      -1.221   1.746   0.017  0.00  0.00    +0.001 A 
ATOM     25  C   UNL     1      -1.247   3.131   0.030  0.00  0.00    +0.017 A 
ATOM     26  C   UNL     1      -0.059   3.838   0.023  0.00  0.00    +0.034 A 
ATOM     27  S   UNL     1      -0.060   5.604   0.034  0.00  0.00    -0.086 S 
ATOM     28  C   UNL     1       1.451   5.986  -0.796  0.00  0.00    +0.034 A 
ATOM     29  C   UNL     1       2.508   5.075  -0.722  0.00  0.00    +0.048 A 
ATOM     30  C   UNL     1       3.700   5.363  -1.369  0.00  0.00    +0.024 A 
ATOM     31  C   UNL     1       3.833   6.543  -2.080  0.00  0.00    +0.002 A 
ATOM     32  C   UNL     1       2.784   7.440  -2.150  0.00  0.00    +0.001 A 
ATOM     33  C   UNL     1       1.589   7.163  -1.506  0.00  0.00    +0.017 A 
ENDBRANCH  19  20
ENDBRANCH  18  19
ENDBRANCH   1  18
TORSDOF 6
