REMARK  Name = ZINC39974618
REMARK  9 active torsions:
REMARK  status: ('A' for Active; 'I' for Inactive)
REMARK    1  A    between atoms: C_1  and  C_2
REMARK    2  A    between atoms: C_5  and  N_9
REMARK    3  A    between atoms: N_9  and  C_10
REMARK    4  A    between atoms: C_10  and  N_12
REMARK    5  A    between atoms: N_12  and  C_13
REMARK    6  A    between atoms: C_16  and  S_19
REMARK    7  A    between atoms: S_19  and  N_22
REMARK    8  A    between atoms: C_24  and  C_31
REMARK    9  A    between atoms: C_27  and  C_30
REMARK                            x       y       z     vdW  Elec       q    Type
REMARK                         _______ _______ _______ _____ _____    ______ ____
ROOT
ATOM      1  C   UNL     1      -0.007  -7.031  -2.317  0.00  0.00    +0.033 A 
ATOM      2  C   UNL     1      -0.013  -6.335  -3.519  0.00  0.00    +0.025 A 
ATOM      3  C   UNL     1      -0.003  -7.025  -4.715  0.00  0.00    +0.030 A 
ATOM      4  C   UNL     1       0.013  -8.408  -4.717  0.00  0.00    +0.106 A 
ATOM      5  C   UNL     1       0.019  -9.104  -3.522  0.00  0.00    +0.030 A 
ATOM      6  C   UNL     1       0.015  -8.419  -2.322  0.00  0.00    +0.025 A 
ENDROOT
BRANCH   4   7
ATOM      7  S   UNL     1       0.026  -9.285  -6.245  0.00  0.00    +0.061 S 
ATOM      8  O   UNL     1      -0.510 -10.573  -5.978  0.00  0.00    -0.153 OA
ATOM      9  O   UNL     1      -0.534  -8.413  -7.218  0.00  0.00    -0.153 OA
BRANCH   7  10
ATOM     10  N   UNL     1       1.611  -9.510  -6.667  0.00  0.00    -0.176 NA
ATOM     11  C   UNL     1       2.317  -8.512  -7.483  0.00  0.00    +0.112 C 
ATOM     12  C   UNL     1       3.604  -8.105  -6.758  0.00  0.00    +0.002 C 
ATOM     13  C   UNL     1       4.427  -9.357  -6.445  0.00  0.00    +0.009 C 
ATOM     14  C   UNL     1       3.625 -10.279  -5.524  0.00  0.00    +0.002 C 
ATOM     15  C   UNL     1       2.340 -10.708  -6.229  0.00  0.00    +0.112 C 
ATOM     16  C   UNL     1       4.461 -11.515  -5.184  0.00  0.00    +0.009 C 
ATOM     17  C   UNL     1       3.251  -7.386  -5.455  0.00  0.00    +0.009 C 
ENDBRANCH   7  10
ENDBRANCH   4   7
BRANCH   1  18
ATOM     18  N   UNL     1      -0.018  -6.334  -1.104  0.00  0.00    -0.297 N 
ATOM     19  H   UNL     1       0.552  -6.623  -0.374  0.00  0.00    +0.154 HD
BRANCH  18  20
ATOM     20  C   UNL     1      -0.820  -5.263  -0.949  0.00  0.00    +0.139 C 
ATOM     21  S   UNL     1      -1.944  -4.850  -2.173  0.00  0.00    -0.018 S 
BRANCH  20  22
ATOM     22  N   UNL     1      -0.738  -4.515   0.170  0.00  0.00    -0.296 N 
ATOM     23  H   UNL     1      -0.065  -4.715   0.838  0.00  0.00    +0.154 HD
BRANCH  22  28
ATOM     24  C   UNL     1      -4.333  -0.199   0.969  0.00  0.00    +0.044 C 
ATOM     25  C   UNL     1      -3.378  -1.345   0.756  0.00  0.00    -0.049 A 
ATOM     26  C   UNL     1      -3.841  -2.544   0.247  0.00  0.00    +0.005 A 
ATOM     27  C   UNL     1      -2.969  -3.597   0.051  0.00  0.00    +0.024 A 
ATOM     28  C   UNL     1      -1.624  -3.450   0.366  0.00  0.00    +0.047 A 
ATOM     29  C   UNL     1      -1.161  -2.244   0.877  0.00  0.00    +0.039 A 
ATOM     30  C   UNL     1      -2.039  -1.193   1.066  0.00  0.00    +0.020 A 
ATOM     31 BR   UNL     1       0.668  -2.039   1.309  0.00  0.00    -0.048 Br
ENDBRANCH  22  28
ENDBRANCH  20  22
ENDBRANCH  18  20
ENDBRANCH   1  18
TORSDOF 6
