REMARK  Name = ZINC63280772
REMARK  7 active torsions:
REMARK  status: ('A' for Active; 'I' for Inactive)
REMARK    1  A    between atoms: C_1  and  O_2
REMARK    2  A    between atoms: O_2  and  C_3
REMARK    3  A    between atoms: C_8  and  N_9
REMARK    4  A    between atoms: C_19  and  N_20
REMARK    5  A    between atoms: N_20  and  C_21
REMARK    6  A    between atoms: C_21  and  C_22
REMARK    7  A    between atoms: C_22  and  C_23
REMARK                            x       y       z     vdW  Elec       q    Type
REMARK                         _______ _______ _______ _____ _____    ______ ____
ROOT
ATOM      1  N   UNL     1      -0.034  -2.780   0.023  0.00  0.00    -0.199 N 
ATOM      2  C   UNL     1       0.572  -3.071   1.185  0.00  0.00    +0.258 C 
ATOM      3  O   UNL     1       0.062  -2.718   2.231  0.00  0.00    -0.269 OA
ATOM      4  C   UNL     1       1.842  -3.809   1.214  0.00  0.00    +0.046 A 
ATOM      5  C   UNL     1       2.477  -4.116   2.418  0.00  0.00    +0.014 A 
ATOM      6  C   UNL     1       3.667  -4.810   2.403  0.00  0.00    +0.001 A 
ATOM      7  C   UNL     1       4.241  -5.207   1.204  0.00  0.00    +0.001 A 
ATOM      8  C   UNL     1       3.629  -4.914   0.003  0.00  0.00    +0.009 A 
ATOM      9  C   UNL     1       2.428  -4.215  -0.003  0.00  0.00    +0.000 A 
ATOM     10  C   UNL     1       1.731  -3.876  -1.261  0.00  0.00    +0.059 C 
ATOM     11  C   UNL     1       2.252  -4.244  -2.482  0.00  0.00    +0.081 C 
ATOM     12  C   UNL     1       0.465  -3.140  -1.171  0.00  0.00    +0.259 C 
ATOM     13  O   UNL     1      -0.137  -2.850  -2.188  0.00  0.00    -0.269 OA
ENDROOT
BRANCH   1  19
ATOM     14  C   UNL     1      -1.243  -0.681   0.013  0.00  0.00    +0.142 A 
ATOM     15  C   UNL     1      -2.443   0.012   0.042  0.00  0.00    +0.047 A 
ATOM     16  C   UNL     1      -3.638  -0.678   0.119  0.00  0.00    +0.004 A 
ATOM     17  C   UNL     1      -3.641  -2.060   0.168  0.00  0.00    +0.002 A 
ATOM     18  C   UNL     1      -2.449  -2.759   0.140  0.00  0.00    +0.027 A 
ATOM     19  C   UNL     1      -1.245  -2.073   0.057  0.00  0.00    +0.086 A 
BRANCH  14  21
ATOM     20  C   UNL     1      -0.141   1.423  -0.104  0.00  0.00    +0.277 C 
ATOM     21  O   UNL     1      -0.067  -0.004  -0.063  0.00  0.00    -0.493 OA
ENDBRANCH  14  21
ENDBRANCH   1  19
BRANCH  11  22
ATOM     22  N   UNL     1       3.050  -5.339  -2.577  0.00  0.00    -0.349 N 
ATOM     23  H   UNL     1       3.172  -5.919  -1.809  0.00  0.00    +0.146 HD
BRANCH  22  24
ATOM     24  C   UNL     1       3.727  -5.645  -3.841  0.00  0.00    +0.105 C 
BRANCH  24  25
ATOM     25  C   UNL     1       4.556  -6.920  -3.679  0.00  0.00    +0.052 C 
BRANCH  25  26
ATOM     26  C   UNL     1       5.252  -7.235  -4.979  0.00  0.00    -0.040 C 
ATOM     27  C   UNL     1       6.514  -6.896  -5.328  0.00  0.00    -0.001 A 
ATOM     28  C   UNL     1       7.575  -6.161  -4.630  0.00  0.00    +0.010 A 
ATOM     29  C   UNL     1       8.762  -5.974  -5.252  0.00  0.00    +0.001 A 
ATOM     30  C   UNL     1       9.002  -6.464  -6.543  0.00  0.00    +0.002 A 
ATOM     31  C   UNL     1       8.077  -7.149  -7.247  0.00  0.00    +0.026 A 
ATOM     32  C   UNL     1       6.793  -7.403  -6.690  0.00  0.00    +0.043 A 
ATOM     33  N   UNL     1       5.745  -8.031  -7.165  0.00  0.00    -0.380 N 
ATOM     34  C   UNL     1       4.682  -7.998  -6.153  0.00  0.00    +0.144 C 
ATOM     35  H   UNL     1       5.683  -8.451  -8.037  0.00  0.00    +0.160 HD
ENDBRANCH  25  26
ENDBRANCH  24  25
ENDBRANCH  22  24
ENDBRANCH  11  22
TORSDOF 6
