REMARK  Name = ZINC35640769
REMARK  9 active torsions:
REMARK  status: ('A' for Active; 'I' for Inactive)
REMARK    1  A    between atoms: C_1  and  C_2
REMARK    2  A    between atoms: C_2  and  N_3
REMARK    3  A    between atoms: C_4  and  C_24
REMARK    4  A    between atoms: C_5  and  C_19
REMARK    5  A    between atoms: C_6  and  C_11
REMARK    6  A    between atoms: C_19  and  O_21
REMARK    7  A    between atoms: O_21  and  C_22
REMARK    8  A    between atoms: C_22  and  C_23
REMARK    9  A    between atoms: C_24  and  N_25
REMARK                            x       y       z     vdW  Elec       q    Type
REMARK                         _______ _______ _______ _____ _____    ______ ____
ROOT
ATOM      1  N   UNL     1      -1.452  -0.331   0.170  0.00  0.00    -0.258 N 
ATOM      2  C   UNL     1      -2.134  -0.596   1.323  0.00  0.00    +0.041 C 
ATOM      3  C   UNL     1      -3.363  -1.155   1.292  0.00  0.00    +0.080 C 
ATOM      4  C   UNL     1      -3.958  -1.476  -0.064  0.00  0.00    +0.145 C 
ATOM      5  N   UNL     1      -3.141  -1.150  -1.245  0.00  0.00    -0.288 N 
ATOM      6  C   UNL     1      -1.931  -0.589  -1.053  0.00  0.00    +0.307 C 
ATOM      7  O   UNL     1      -1.251  -0.313  -2.022  0.00  0.00    -0.252 OA
ATOM      8  H   UNL     1      -3.468  -1.332  -2.140  0.00  0.00    +0.151 HD
ENDROOT
BRANCH   4   9
ATOM      9  C   UNL     1      -4.259  -2.952  -0.101  0.00  0.00    -0.003 A 
ATOM     10  C   UNL     1      -3.320  -3.837  -0.598  0.00  0.00    +0.007 A 
ATOM     11  C   UNL     1      -3.596  -5.191  -0.633  0.00  0.00    +0.002 A 
ATOM     12  C   UNL     1      -4.811  -5.662  -0.171  0.00  0.00    +0.021 A 
ATOM     13  C   UNL     1      -5.751  -4.779   0.327  0.00  0.00    +0.060 A 
ATOM     14  C   UNL     1      -5.473  -3.422   0.367  0.00  0.00    +0.064 A 
ATOM     15 CL   UNL     1      -6.649  -2.313   0.998  0.00  0.00    -0.082 Cl
ATOM     16 CL   UNL     1      -7.277  -5.370   0.907  0.00  0.00    -0.082 Cl
ENDBRANCH   4   9
BRANCH   1  18
ATOM     17  C   UNL     1      -0.256   1.801   0.272  0.00  0.00    +0.025 C 
ATOM     18  C   UNL     1      -0.123   0.277   0.278  0.00  0.00    +0.111 C 
ENDBRANCH   1  18
BRANCH   3  19
ATOM     19  C   UNL     1      -4.071  -1.431   2.485  0.00  0.00    +0.339 C 
ATOM     20  O   UNL     1      -4.054  -2.553   2.957  0.00  0.00    -0.245 OA
BRANCH  19  21
ATOM     21  O   UNL     1      -4.765  -0.451   3.100  0.00  0.00    -0.462 OA
BRANCH  21  22
ATOM     22  C   UNL     1      -5.456  -0.801   4.301  0.00  0.00    +0.229 C 
ATOM     23  C   UNL     1      -6.180   0.430   4.851  0.00  0.00    +0.048 C 
ENDBRANCH  21  22
ENDBRANCH  19  21
ENDBRANCH   3  19
BRANCH   2  24
ATOM     24  C   UNL     1      -1.505  -0.260   2.651  0.00  0.00    +0.136 C 
BRANCH  24  25
ATOM     25  N   UNL     1      -0.333  -1.119   2.868  0.00  0.00    -0.300 NA
ATOM     26  C   UNL     1      -0.732  -2.525   3.022  0.00  0.00    +0.066 C 
ATOM     27  C   UNL     1       0.519  -3.392   3.186  0.00  0.00    -0.067 C 
ATOM     28  N   UNL     1       1.271  -2.946   4.367  0.00  0.00    +0.381 N 
ATOM     29  C   UNL     1       1.683  -1.548   4.188  0.00  0.00    -0.067 C 
ATOM     30  C   UNL     1       0.442  -0.666   4.032  0.00  0.00    +0.066 C 
ATOM     31  H   UNL     1       0.687  -3.023   5.186  0.00  0.00    -0.086 HD
ATOM     32  H   UNL     1       2.089  -3.526   4.482  0.00  0.00    -0.086 HD
ENDBRANCH  24  25
ENDBRANCH   2  24
TORSDOF 7
