REMARK  Name = ZINC13028879
REMARK  10 active torsions:
REMARK  status: ('A' for Active; 'I' for Inactive)
REMARK    1  A    between atoms: C_1  and  C_2
REMARK    2  A    between atoms: C_2  and  C_3
REMARK    3  A    between atoms: C_2  and  C_4
REMARK    4  A    between atoms: C_2  and  N_5
REMARK    5  A    between atoms: C_6  and  C_8
REMARK    6  A    between atoms: C_8  and  C_10
REMARK    7  A    between atoms: C_8  and  N_15
REMARK    8  A    between atoms: N_15  and  C_16
REMARK    9  A    between atoms: C_22  and  C_24
REMARK   10  A    between atoms: C_24  and  N_25
REMARK                            x       y       z     vdW  Elec       q    Type
REMARK                         _______ _______ _______ _____ _____    ______ ____
ROOT
ATOM      1  N   UNL     1      -5.040   3.689  -1.809  0.00  0.00    -0.254 N 
ATOM      2  C   UNL     1      -4.068   2.800  -2.095  0.00  0.00    +0.242 C 
ATOM      3  O   UNL     1      -3.799   2.546  -3.250  0.00  0.00    -0.273 OA
ENDROOT
BRANCH   1   4
ATOM      4  C   UNL     1      -5.246   4.099  -0.487  0.00  0.00    +0.037 A 
ATOM      5  C   UNL     1      -4.582   5.214   0.007  0.00  0.00    +0.023 A 
ATOM      6  C   UNL     1      -4.791   5.619   1.311  0.00  0.00    +0.002 A 
ATOM      7  C   UNL     1      -5.653   4.909   2.127  0.00  0.00    +0.000 A 
ATOM      8  C   UNL     1      -6.311   3.795   1.639  0.00  0.00    +0.002 A 
ATOM      9  C   UNL     1      -6.110   3.388   0.335  0.00  0.00    +0.023 A 
ENDBRANCH   1   4
BRANCH   1  10
ATOM     10  C   UNL     1      -5.880   4.226  -2.882  0.00  0.00    +0.198 C 
BRANCH  10  11
ATOM     11  C   UNL     1      -5.717   5.723  -2.947  0.00  0.00    -0.011 A 
ATOM     12  C   UNL     1      -5.092   6.314  -4.029  0.00  0.00    +0.013 A 
ATOM     13  C   UNL     1      -4.966   7.663  -4.058  0.00  0.00    +0.045 A 
ATOM     14  S   UNL     1      -5.733   8.139  -2.518  0.00  0.00    -0.105 S 
ATOM     15  C   UNL     1      -6.176   6.508  -1.942  0.00  0.00    +0.051 A 
ENDBRANCH  10  11
BRANCH  10  17
ATOM     16  N   UNL     1      -8.296   4.403  -3.386  0.00  0.00    -0.309 N 
ATOM     17  C   UNL     1      -7.323   3.889  -2.607  0.00  0.00    +0.239 C 
ATOM     18  O   UNL     1      -7.609   3.156  -1.684  0.00  0.00    -0.273 OA
ATOM     19  H   UNL     1      -8.067   4.989  -4.124  0.00  0.00    +0.149 HD
BRANCH  16  21
ATOM     20  C   UNL     1     -10.070   4.540  -1.708  0.00  0.00    +0.031 C 
ATOM     21  C   UNL     1      -9.698   4.076  -3.118  0.00  0.00    +0.026 C 
ATOM     22  C   UNL     1     -10.591   4.782  -4.139  0.00  0.00    +0.031 C 
ATOM     23  C   UNL     1      -9.898   2.563  -3.226  0.00  0.00    +0.031 C 
ENDBRANCH  16  21
ENDBRANCH  10  17
ENDBRANCH   1  10
BRANCH   2  24
ATOM     24  C   UNL     1      -3.316   2.121  -0.980  0.00  0.00    +0.242 C 
BRANCH  24  25
ATOM     25  N   UNL     1      -2.411   1.115  -1.542  0.00  0.00    -0.235 N 
ATOM     26  C   UNL     1      -2.699  -0.207  -1.783  0.00  0.00    +0.090 A 
ATOM     27  C   UNL     1      -3.831  -0.997  -1.608  0.00  0.00    +0.029 A 
ATOM     28  C   UNL     1      -3.796  -2.319  -1.952  0.00  0.00    +0.002 A 
ATOM     29  C   UNL     1      -2.642  -2.881  -2.485  0.00  0.00    +0.002 A 
ATOM     30  C   UNL     1      -1.521  -2.126  -2.671  0.00  0.00    +0.032 A 
ATOM     31  C   UNL     1      -1.529  -0.769  -2.321  0.00  0.00    +0.113 A 
ATOM     32  N   UNL     1      -0.600   0.205  -2.386  0.00  0.00    -0.129 NA
ATOM     33  N   UNL     1      -1.081   1.312  -1.941  0.00  0.00    -0.064 NA
ENDBRANCH  24  25
ENDBRANCH   2  24
TORSDOF 7
