REMARK  Name = ZINC00903775
REMARK  9 active torsions:
REMARK  status: ('A' for Active; 'I' for Inactive)
REMARK    1  A    between atoms: C_6  and  C_7
REMARK    2  A    between atoms: N_10  and  C_12
REMARK    3  A    between atoms: C_12  and  C_13
REMARK    4  A    between atoms: N_15  and  C_16
REMARK    5  A    between atoms: N_15  and  C_23
REMARK    6  A    between atoms: C_23  and  C_25
REMARK    7  A    between atoms: C_23  and  C_32
REMARK    8  A    between atoms: N_34  and  C_35
REMARK    9  A    between atoms: C_35  and  C_36
REMARK                            x       y       z     vdW  Elec       q    Type
REMARK                         _______ _______ _______ _____ _____    ______ ____
ROOT
ATOM      1  C   UNL     1      -4.383  -3.949  -1.837  0.00  0.00    +0.244 C 
ATOM      2  O   UNL     1      -3.945  -3.352  -2.797  0.00  0.00    -0.273 OA
ATOM      3  N   UNL     1      -4.342  -5.296  -1.804  0.00  0.00    -0.254 N 
ENDROOT
BRANCH   3   4
ATOM      4  C   UNL     1      -4.973  -5.990  -0.766  0.00  0.00    +0.038 A 
ATOM      5  C   UNL     1      -4.433  -5.970   0.513  0.00  0.00    +0.025 A 
ATOM      6  C   UNL     1      -5.057  -6.657   1.536  0.00  0.00    +0.022 A 
ATOM      7  C   UNL     1      -6.220  -7.364   1.287  0.00  0.00    +0.041 A 
ATOM      8  C   UNL     1      -6.760  -7.386   0.014  0.00  0.00    +0.022 A 
ATOM      9  C   UNL     1      -6.143  -6.697  -1.012  0.00  0.00    +0.025 A 
ATOM     10 CL   UNL     1      -7.002  -8.227   2.575  0.00  0.00    -0.084 Cl
ENDBRANCH   3   4
BRANCH   1  11
ATOM     11  C   UNL     1      -4.973  -3.185  -0.679  0.00  0.00    +0.264 C 
BRANCH  11  15
ATOM     12  C   UNL     1      -4.109   0.223  -0.981  0.00  0.00    +0.205 A 
ATOM     13  N   UNL     1      -5.306   0.195  -1.582  0.00  0.00    -0.108 NA
ATOM     14  N   UNL     1      -5.731  -1.022  -1.533  0.00  0.00    -0.045 NA
ATOM     15  N   UNL     1      -4.854  -1.747  -0.931  0.00  0.00    -0.154 N 
ATOM     16  N   UNL     1      -3.854  -1.010  -0.590  0.00  0.00    -0.130 NA
BRANCH  12  22
ATOM     17  C   UNL     1      -3.643   2.656  -1.267  0.00  0.00    +0.013 A 
ATOM     18  C   UNL     1      -2.829   3.756  -1.093  0.00  0.00    +0.021 A 
ATOM     19  C   UNL     1      -1.609   3.623  -0.452  0.00  0.00    +0.041 A 
ATOM     20  C   UNL     1      -1.200   2.386   0.016  0.00  0.00    +0.021 A 
ATOM     21  C   UNL     1      -2.007   1.280  -0.154  0.00  0.00    +0.013 A 
ATOM     22  C   UNL     1      -3.236   1.409  -0.797  0.00  0.00    +0.023 A 
ATOM     23 CL   UNL     1      -0.589   5.011  -0.237  0.00  0.00    -0.084 Cl
ENDBRANCH  12  22
ENDBRANCH  11  15
ENDBRANCH   1  11
BRANCH   3  24
ATOM     24  C   UNL     1      -3.638  -6.032  -2.857  0.00  0.00    +0.197 C 
BRANCH  24  25
ATOM     25  C   UNL     1      -3.866  -7.511  -2.674  0.00  0.00    -0.018 A 
ATOM     26  C   UNL     1      -3.544  -8.116  -1.473  0.00  0.00    +0.009 A 
ATOM     27  C   UNL     1      -3.754  -9.472  -1.304  0.00  0.00    +0.038 A 
ATOM     28  C   UNL     1      -4.286 -10.223  -2.338  0.00  0.00    +0.123 A 
ATOM     29  C   UNL     1      -4.607  -9.616  -3.540  0.00  0.00    +0.038 A 
ATOM     30  C   UNL     1      -4.402  -8.259  -3.705  0.00  0.00    +0.009 A 
ATOM     31  F   UNL     1      -4.490 -11.549  -2.175  0.00  0.00    -0.205 F 
ENDBRANCH  24  25
BRANCH  24  32
ATOM     32  C   UNL     1      -2.162  -5.738  -2.774  0.00  0.00    +0.239 C 
ATOM     33  O   UNL     1      -1.740  -4.987  -1.920  0.00  0.00    -0.273 OA
ATOM     34  N   UNL     1      -1.311  -6.309  -3.649  0.00  0.00    -0.311 N 
ATOM     35  H   UNL     1      -1.648  -6.910  -4.332  0.00  0.00    +0.149 HD
BRANCH  34  36
ATOM     36  C   UNL     1       0.124  -6.023  -3.568  0.00  0.00    +0.135 C 
BRANCH  36  37
ATOM     37  C   UNL     1       0.860  -6.793  -4.667  0.00  0.00    +0.135 C 
ATOM     38  C   UNL     1       2.384  -6.531  -4.578  0.00  0.00    +0.035 C 
ATOM     39  C   UNL     1       2.943  -7.809  -5.262  0.00  0.00    +0.031 C 
ATOM     40  C   UNL     1       1.919  -8.883  -4.835  0.00  0.00    +0.160 C 
ATOM     41  O   UNL     1       0.708  -8.207  -4.473  0.00  0.00    -0.375 OA
ENDBRANCH  36  37
ENDBRANCH  34  36
ENDBRANCH  24  32
ENDBRANCH   3  24
TORSDOF 9
