REMARK  Name = ZINC44855879
REMARK  7 active torsions:
REMARK  status: ('A' for Active; 'I' for Inactive)
REMARK    1  A    between atoms: C_1  and  C_2
REMARK    2  A    between atoms: C_2  and  C_4
REMARK    3  A    between atoms: C_2  and  N_15
REMARK    4  A    between atoms: C_7  and  N_10
REMARK    5  A    between atoms: C_16  and  C_18
REMARK    6  A    between atoms: N_23  and  C_25
REMARK    7  A    between atoms: C_25  and  C_26
REMARK                            x       y       z     vdW  Elec       q    Type
REMARK                         _______ _______ _______ _____ _____    ______ ____
ROOT
ATOM      1  N   UNL     1       0.711  -0.489   1.189  0.00  0.00    -0.309 N 
ATOM      2  C   UNL     1       0.051  -0.633   2.355  0.00  0.00    +0.215 C 
ATOM      3  O   UNL     1      -1.129  -0.361   2.423  0.00  0.00    -0.276 OA
ATOM      4  H   UNL     1       1.654  -0.707   1.135  0.00  0.00    +0.149 HD
ENDROOT
BRANCH   2   5
ATOM      5  C   UNL     1       0.780  -1.133   3.576  0.00  0.00    +0.058 C 
ATOM      6  C   UNL     1       1.924  -0.173   3.917  0.00  0.00    +0.009 C 
ATOM      7  C   UNL     1       2.608  -0.646   5.202  0.00  0.00    -0.018 C 
ATOM      8  C   UNL     1       1.571  -0.733   6.324  0.00  0.00    -0.078 C 
ATOM      9  N   UNL     1       0.518  -1.685   5.949  0.00  0.00    +0.383 N 
ATOM     10  C   UNL     1      -0.190  -1.202   4.758  0.00  0.00    -0.066 C 
ATOM     11  H   UNL     1       0.933  -2.583   5.751  0.00  0.00    -0.081 HD
BRANCH   9  12
ATOM     12  C   UNL     1      -0.433  -1.823   7.060  0.00  0.00    -0.043 C 
BRANCH  12  13
ATOM     13  C   UNL     1       0.264  -2.443   8.244  0.00  0.00    -0.062 A 
ATOM     14  C   UNL     1       0.286  -3.818   8.390  0.00  0.00    +0.003 A 
ATOM     15  C   UNL     1       0.924  -4.388   9.475  0.00  0.00    +0.021 A 
ATOM     16  C   UNL     1       1.541  -3.583  10.416  0.00  0.00    +0.059 A 
ATOM     17  C   UNL     1       1.519  -2.206  10.270  0.00  0.00    +0.059 A 
ATOM     18  C   UNL     1       0.884  -1.637   9.180  0.00  0.00    +0.023 A 
ATOM     19 CL   UNL     1       2.292  -1.195  11.450  0.00  0.00    -0.082 Cl
ATOM     20 CL   UNL     1       2.342  -4.298  11.780  0.00  0.00    -0.082 Cl
ENDBRANCH  12  13
ENDBRANCH   9  12
ENDBRANCH   2   5
BRANCH   1  22
ATOM     21  C   UNL     1      -0.019   1.526   0.010  0.00  0.00    +0.033 C 
ATOM     22  C   UNL     1       0.002  -0.004   0.002  0.00  0.00    +0.100 C 
BRANCH  22  23
ATOM     23  C   UNL     1       0.707  -0.490  -1.238  0.00  0.00    -0.027 A 
ATOM     24  C   UNL     1       2.089  -0.510  -1.282  0.00  0.00    +0.007 A 
ATOM     25  C   UNL     1       2.739  -0.955  -2.417  0.00  0.00    +0.023 A 
ATOM     26  C   UNL     1       2.003  -1.382  -3.514  0.00  0.00    +0.030 A 
ATOM     27  C   UNL     1       0.615  -1.361  -3.466  0.00  0.00    +0.023 A 
ATOM     28  C   UNL     1      -0.029  -0.920  -2.326  0.00  0.00    +0.007 A 
BRANCH  26  29
ATOM     29  N   UNL     1       2.656  -1.832  -4.664  0.00  0.00    -0.330 N 
ATOM     30  C   UNL     1       4.113  -1.913  -4.845  0.00  0.00    +0.105 C 
ATOM     31  C   UNL     1       4.369  -2.439  -6.273  0.00  0.00    +0.020 C 
ATOM     32  C   UNL     1       3.051  -2.091  -7.013  0.00  0.00    +0.020 C 
ATOM     33  C   UNL     1       2.000  -2.312  -5.894  0.00  0.00    +0.105 C 
ENDBRANCH  26  29
ENDBRANCH  22  23
ENDBRANCH   1  22
TORSDOF 6
