REMARK  Name = ZINC41507945
REMARK  4 active torsions:
REMARK  status: ('A' for Active; 'I' for Inactive)
REMARK    1  A    between atoms: C_6  and  O_7
REMARK    2  A    between atoms: O_7  and  C_8
REMARK    3  A    between atoms: C_8  and  C_9
REMARK    4  A    between atoms: C_22  and  C_23
REMARK                            x       y       z     vdW  Elec       q    Type
REMARK                         _______ _______ _______ _____ _____    ______ ____
ROOT
ATOM      1  C   UNL     1       0.107   1.523   1.044  0.00  0.00    +0.046 A 
ATOM      2  C   UNL     1       1.266   2.198   0.783  0.00  0.00    +0.019 A 
ATOM      3  C   UNL     1       2.452   1.491   0.584  0.00  0.00    +0.068 A 
ATOM      4  C   UNL     1       2.464   0.088   0.649  0.00  0.00    +0.143 A 
ATOM      5  C   UNL     1       1.277  -0.582   0.914  0.00  0.00    +0.092 A 
ATOM      6  C   UNL     1       0.106   0.133   1.111  0.00  0.00    +0.125 A 
ATOM      7  O   UNL     1       3.716  -0.367   0.424  0.00  0.00    -0.451 OA
ATOM      8  C   UNL     1       4.588   0.645   0.205  0.00  0.00    +0.176 C 
ATOM      9  C   UNL     1       5.915   0.519  -0.051  0.00  0.00    +0.061 C 
ATOM     10  C   UNL     1       3.836   1.905   0.292  0.00  0.00    +0.231 C 
ATOM     11  O   UNL     1       4.262   3.039   0.154  0.00  0.00    -0.283 OA
ENDROOT
BRANCH   9  12
ATOM     12  C   UNL     1       6.560  -0.796   0.046  0.00  0.00    +0.022 A 
ATOM     13  C   UNL     1       5.784  -1.962   0.049  0.00  0.00    +0.031 A 
ATOM     14  C   UNL     1       6.398  -3.192   0.142  0.00  0.00    +0.042 A 
ATOM     15  C   UNL     1       7.778  -3.281   0.237  0.00  0.00    +0.029 A 
ATOM     16  C   UNL     1       8.556  -2.138   0.236  0.00  0.00    +0.022 A 
ATOM     17  C   UNL     1       7.959  -0.893   0.133  0.00  0.00    +0.136 A 
ATOM     18  O   UNL     1       8.712   0.236   0.115  0.00  0.00    -0.465 OA
ATOM     19  C   UNL     1      10.066   0.119   0.562  0.00  0.00    +0.395 C 
ATOM     20  O   UNL     1      10.658  -1.023  -0.069  0.00  0.00    -0.339 OA
ATOM     21  C   UNL     1      10.056  -2.258   0.344  0.00  0.00    +0.202 C 
ATOM     22 CL   UNL     1       5.437  -4.639   0.143  0.00  0.00    -0.084 Cl
ENDBRANCH   9  12
BRANCH   6  23
ATOM     23  O   UNL     1      -1.050  -0.528   1.371  0.00  0.00    -0.487 OA
BRANCH  23  24
ATOM     24  C   UNL     1      -2.222   0.267   1.564  0.00  0.00    +0.268 C 
BRANCH  24  25
ATOM     25  C   UNL     1      -3.400  -0.633   1.839  0.00  0.00    +0.033 A 
ATOM     26  C   UNL     1      -3.228  -2.003   1.877  0.00  0.00    +0.030 A 
ATOM     27  C   UNL     1      -4.309  -2.829   2.128  0.00  0.00    +0.042 A 
ATOM     28  C   UNL     1      -5.562  -2.285   2.341  0.00  0.00    +0.029 A 
ATOM     29  C   UNL     1      -5.738  -0.914   2.304  0.00  0.00    +0.022 A 
ATOM     30  C   UNL     1      -4.655  -0.084   2.060  0.00  0.00    +0.135 A 
ATOM     31  O   UNL     1      -4.812   1.266   2.035  0.00  0.00    -0.465 OA
ATOM     32  C   UNL     1      -6.148   1.760   1.907  0.00  0.00    +0.394 C 
ATOM     33  O   UNL     1      -6.984   1.064   2.839  0.00  0.00    -0.339 OA
ATOM     34  C   UNL     1      -7.110  -0.332   2.534  0.00  0.00    +0.202 C 
ATOM     35 CL   UNL     1      -4.091  -4.551   2.176  0.00  0.00    -0.084 Cl
ENDBRANCH  24  25
ENDBRANCH  23  24
ENDBRANCH   6  23
TORSDOF 4
