REMARK  Name = ZINC39323845
REMARK  6 active torsions:
REMARK  status: ('A' for Active; 'I' for Inactive)
REMARK    1  A    between atoms: C_1  and  C_2
REMARK    2  A    between atoms: C_2  and  C_3
REMARK    3  A    between atoms: C_9  and  N_31
REMARK    4  A    between atoms: C_10  and  C_29
REMARK    5  A    between atoms: N_18  and  C_21
REMARK    6  A    between atoms: C_21  and  C_22
REMARK                            x       y       z     vdW  Elec       q    Type
REMARK                         _______ _______ _______ _____ _____    ______ ____
ROOT
ATOM      1  C   UNL     1       0.731  -0.503   1.223  0.00  0.00    +0.198 A 
ATOM      2  N   UNL     1       0.181  -0.775   2.376  0.00  0.00    -0.215 NA
ATOM      3  C   UNL     1       1.133  -1.191   3.215  0.00  0.00    +0.127 A 
ATOM      4  C   UNL     1       2.313  -1.174   2.538  0.00  0.00    +0.217 A 
ATOM      5  O   UNL     1       2.053  -0.747   1.299  0.00  0.00    -0.426 OA
ATOM      6  N   UNL     1       3.513  -1.562   3.131  0.00  0.00    -0.272 N 
ATOM      7  C   UNL     1       3.453  -2.211   4.345  0.00  0.00    +0.103 C 
ATOM      8  C   UNL     1       2.316  -2.265   5.084  0.00  0.00    +0.090 C 
ATOM      9  C   UNL     1       1.031  -1.618   4.652  0.00  0.00    +0.158 C 
ATOM     10  C   UNL     1       0.686  -0.461   5.534  0.00  0.00    +0.000 A 
ATOM     11  C   UNL     1       1.350   0.718   5.796  0.00  0.00    +0.007 A 
ATOM     12  C   UNL     1       0.742   1.600   6.684  0.00  0.00    +0.000 A 
ATOM     13  C   UNL     1      -0.470   1.306   7.273  0.00  0.00    +0.002 A 
ATOM     14  C   UNL     1      -1.143   0.122   7.015  0.00  0.00    +0.024 A 
ATOM     15  C   UNL     1      -0.544  -0.773   6.127  0.00  0.00    +0.042 A 
ATOM     16  N   UNL     1      -0.985  -2.011   5.695  0.00  0.00    -0.265 N 
ATOM     17  C   UNL     1      -0.123  -2.582   4.828  0.00  0.00    +0.242 C 
ATOM     18  O   UNL     1      -0.249  -3.662   4.291  0.00  0.00    -0.273 OA
ATOM     19  H   UNL     1       4.364  -1.381   2.702  0.00  0.00    +0.156 HD
ENDROOT
BRANCH   7  20
ATOM     20  N   UNL     1       4.585  -2.826   4.824  0.00  0.00    -0.346 N 
ATOM     21  H   UNL     1       5.407  -2.797   4.309  0.00  0.00    +0.144 HD
ATOM     22  H   UNL     1       4.563  -3.288   5.676  0.00  0.00    +0.144 HD
ENDBRANCH   7  20
BRANCH   1  24
ATOM     23  C   UNL     1      -0.019   1.526   0.010  0.00  0.00    +0.013 C 
ATOM     24  C   UNL     1       0.002  -0.004   0.002  0.00  0.00    +0.093 C 
ENDBRANCH   1  24
BRANCH   8  25
ATOM     25  C   UNL     1       2.343  -2.970   6.331  0.00  0.00    +0.100 C 
ATOM     26  N   UNL     1       2.364  -3.529   7.319  0.00  0.00    -0.191 NA
ENDBRANCH   8  25
BRANCH  16  27
ATOM     27  C   UNL     1      -2.240  -2.630   6.128  0.00  0.00    +0.148 C 
BRANCH  27  28
ATOM     28  C   UNL     1      -3.350  -2.222   5.194  0.00  0.00    -0.029 A 
ATOM     29  C   UNL     1      -4.087  -1.081   5.452  0.00  0.00    +0.005 A 
ATOM     30  C   UNL     1      -5.105  -0.706   4.596  0.00  0.00    +0.001 A 
ATOM     31  C   UNL     1      -5.388  -1.473   3.481  0.00  0.00    +0.015 A 
ATOM     32  C   UNL     1      -4.651  -2.615   3.222  0.00  0.00    +0.018 A 
ATOM     33  C   UNL     1      -3.628  -2.986   4.077  0.00  0.00    +0.020 A 
ATOM     34 BR   UNL     1      -5.038  -3.664   1.698  0.00  0.00    -0.050 Br
ENDBRANCH  27  28
ENDBRANCH  16  27
TORSDOF 5
