REMARK  Name = ZINC45574879
REMARK  8 active torsions:
REMARK  status: ('A' for Active; 'I' for Inactive)
REMARK    1  A    between atoms: C_1  and  C_2
REMARK    2  A    between atoms: C_4  and  C_19
REMARK    3  A    between atoms: C_6  and  S_9
REMARK    4  A    between atoms: C_7  and  C_8
REMARK    5  A    between atoms: S_9  and  N_12
REMARK    6  A    between atoms: C_15  and  C_18
REMARK    7  A    between atoms: C_19  and  N_21
REMARK    8  A    between atoms: N_28  and  C_31
REMARK                            x       y       z     vdW  Elec       q    Type
REMARK                         _______ _______ _______ _____ _____    ______ ____
ROOT
ATOM      1  C   UNL     1      -0.429   0.835  -0.760  0.00  0.00    +0.044 C 
ATOM      2  C   UNL     1      -0.300  -0.635  -0.457  0.00  0.00    -0.045 A 
ATOM      3  C   UNL     1      -0.272  -1.551  -1.489  0.00  0.00    +0.016 A 
ATOM      4  C   UNL     1      -0.152  -2.912  -1.207  0.00  0.00    +0.041 A 
ATOM      5  C   UNL     1      -0.061  -3.338   0.118  0.00  0.00    +0.042 A 
ATOM      6  C   UNL     1      -0.091  -2.413   1.141  0.00  0.00    +0.109 A 
ATOM      7  C   UNL     1      -0.205  -1.064   0.855  0.00  0.00    -0.021 A 
ATOM      8  C   UNL     1      -0.231  -0.058   1.977  0.00  0.00    +0.046 C 
ENDROOT
BRANCH   6   9
ATOM      9  S   UNL     1       0.023  -2.950   2.816  0.00  0.00    +0.061 S 
ATOM     10  O   UNL     1       0.079  -4.369   2.784  0.00  0.00    -0.153 OA
ATOM     11  O   UNL     1       1.035  -2.161   3.427  0.00  0.00    -0.153 OA
BRANCH   9  12
ATOM     12  N   UNL     1      -1.402  -2.548   3.557  0.00  0.00    -0.177 NA
ATOM     13  C   UNL     1      -1.514  -1.314   4.346  0.00  0.00    +0.110 C 
ATOM     14  C   UNL     1      -2.041  -1.667   5.741  0.00  0.00    +0.020 C 
ATOM     15  C   UNL     1      -3.350  -2.447   5.605  0.00  0.00    -0.012 C 
ATOM     16  C   UNL     1      -3.094  -3.749   4.842  0.00  0.00    +0.020 C 
ATOM     17  C   UNL     1      -2.581  -3.417   3.432  0.00  0.00    +0.110 C 
ATOM     18  C   UNL     1      -3.897  -2.771   6.996  0.00  0.00    +0.007 C 
ENDBRANCH   9  12
ENDBRANCH   6   9
BRANCH   4  19
ATOM     19  C   UNL     1      -0.121  -3.900  -2.310  0.00  0.00    +0.269 C 
ATOM     20  O   UNL     1      -0.017  -5.089  -2.060  0.00  0.00    -0.268 OA
BRANCH  19  21
ATOM     21  N   UNL     1      -0.209  -3.489  -3.576  0.00  0.00    -0.152 NA
ATOM     22  C   UNL     1      -0.181  -4.378  -4.569  0.00  0.00    +0.164 A 
ATOM     23  N   UNL     1      -0.251  -4.152  -5.908  0.00  0.00    -0.339 N 
ATOM     24  C   UNL     1      -0.206  -5.209  -6.775  0.00  0.00    +0.030 A 
ATOM     25  C   UNL     1      -0.092  -6.417  -6.199  0.00  0.00    +0.026 A 
ATOM     26  S   UNL     1      -0.044  -6.053  -4.469  0.00  0.00    -0.056 S 
ATOM     27  C   UNL     1      -0.023  -7.738  -6.893  0.00  0.00    +0.128 C 
ATOM     28  N   UNL     1      -0.451  -7.546  -8.293  0.00  0.00    -0.300 NA
ATOM     29  C   UNL     1       0.245  -6.401  -8.896  0.00  0.00    +0.090 C 
ATOM     30  C   UNL     1      -0.272  -5.092  -8.292  0.00  0.00    +0.069 C 
ATOM     31  C   UNL     1      -0.237  -8.767  -9.081  0.00  0.00    +0.105 C 
ATOM     32  H   UNL     1      -0.334  -3.246  -6.246  0.00  0.00    +0.167 HD
ENDBRANCH  19  21
ENDBRANCH   4  19
TORSDOF 4
