REMARK  Name = ZINC16042915
REMARK  7 active torsions:
REMARK  status: ('A' for Active; 'I' for Inactive)
REMARK    1  A    between atoms: C_1  and  O_2
REMARK    2  A    between atoms: O_2  and  C_3
REMARK    3  A    between atoms: C_5  and  C_10
REMARK    4  A    between atoms: C_8  and  O_9
REMARK    5  A    between atoms: C_18  and  O_25
REMARK    6  A    between atoms: C_21  and  C_22
REMARK    7  A    between atoms: C_21  and  N_50
REMARK                            x       y       z     vdW  Elec       q    Type
REMARK                         _______ _______ _______ _____ _____    ______ ____
ROOT
ATOM      1  C   UNL     1      -2.801   0.623   0.019  0.00  0.00    -0.031 C 
ATOM      2  C   UNL     1      -3.216  -0.058  -1.289  0.00  0.00    +0.011 C 
ATOM      3  C   UNL     1      -2.058  -0.925  -1.791  0.00  0.00    +0.005 C 
ATOM      4  C   UNL     1      -2.471  -1.633  -3.083  0.00  0.00    +0.000 C 
ATOM      5  C   UNL     1      -3.686  -2.522  -2.810  0.00  0.00    +0.003 C 
ATOM      6  C   UNL     1      -4.846  -1.657  -2.312  0.00  0.00    +0.035 C 
ATOM      7  C   UNL     1      -4.438  -0.941  -1.026  0.00  0.00    +0.066 C 
ATOM      8  C   UNL     1      -4.092  -1.971   0.052  0.00  0.00    +0.016 C 
ATOM      9  C   UNL     1      -3.645  -1.241   1.321  0.00  0.00    -0.075 C 
ATOM     10  N   UNL     1      -2.456  -0.419   1.010  0.00  0.00    +0.390 N 
ATOM     11  H   UNL     1      -1.726  -1.025   0.616  0.00  0.00    -0.080 HD
ENDROOT
BRANCH   1  14
ATOM     12  C   UNL     1      -0.627   3.647  -0.613  0.00  0.00    +0.161 A 
ATOM     13  C   UNL     1      -1.739   2.852  -0.383  0.00  0.00    +0.051 A 
ATOM     14  C   UNL     1      -1.591   1.487  -0.225  0.00  0.00    -0.057 A 
ATOM     15  C   UNL     1      -0.335   0.913  -0.285  0.00  0.00    +0.006 A 
ATOM     16  C   UNL     1       0.778   1.700  -0.514  0.00  0.00    +0.049 A 
ATOM     17  C   UNL     1       0.636   3.069  -0.678  0.00  0.00    +0.158 A 
BRANCH  12  19
ATOM     18  C   UNL     1      -2.099   5.514  -0.693  0.00  0.00    +0.277 C 
ATOM     19  O   UNL     1      -0.772   4.990  -0.773  0.00  0.00    -0.491 OA
ENDBRANCH  12  19
BRANCH  17  20
ATOM     20  O   UNL     1       1.730   3.845  -0.904  0.00  0.00    -0.503 OA
ATOM     21  H   UNL     1       1.948   3.954  -1.840  0.00  0.00    +0.292 HD
ENDBRANCH  17  20
ENDBRANCH   1  14
BRANCH   7  22
ATOM     22  O   UNL     1      -5.522  -0.128  -0.570  0.00  0.00    -0.388 OA
ATOM     23  H   UNL     1      -6.332  -0.622  -0.383  0.00  0.00    +0.210 HD
ENDBRANCH   7  22
BRANCH  10  24
ATOM     24  C   UNL     1      -1.941   0.210   2.244  0.00  0.00    +0.019 C 
BRANCH  24  25
ATOM     25  C   UNL     1      -3.004   1.060   2.891  0.00  0.00    +0.194 C 
ATOM     26  O   UNL     1      -4.066   1.232   2.331  0.00  0.00    -0.278 OA
ATOM     27  N   UNL     1      -2.775   1.629   4.091  0.00  0.00    -0.331 N 
ATOM     28  H   UNL     1      -1.925   1.491   4.538  0.00  0.00    +0.145 HD
ATOM     29  H   UNL     1      -3.459   2.176   4.507  0.00  0.00    +0.145 HD
ENDBRANCH  24  25
ENDBRANCH  10  24
TORSDOF 6
