REMARK  Name = ZINC56806826
REMARK  5 active torsions:
REMARK  status: ('A' for Active; 'I' for Inactive)
REMARK    1  A    between atoms: C_1  and  C_2
REMARK    2  A    between atoms: C_4  and  C_7
REMARK    3  A    between atoms: C_7  and  N_8
REMARK    4  A    between atoms: N_16  and  C_17
REMARK    5  A    between atoms: N_26  and  C_28
REMARK                            x       y       z     vdW  Elec       q    Type
REMARK                         _______ _______ _______ _____ _____    ______ ____
ROOT
ATOM      1  N   UNL     1      -0.375  -4.231  -2.826  0.00  0.00    -0.294 NA
ATOM      2  C   UNL     1      -0.832  -5.608  -3.057  0.00  0.00    +0.104 C 
ATOM      3  C   UNL     1      -2.350  -5.678  -2.863  0.00  0.00    +0.124 C 
ATOM      4  N   UNL     1      -2.978  -4.662  -3.720  0.00  0.00    -0.283 N 
ATOM      5  C   UNL     1      -2.478  -3.281  -3.644  0.00  0.00    +0.124 C 
ATOM      6  C   UNL     1      -0.955  -3.305  -3.808  0.00  0.00    +0.104 C 
ATOM      7  C   UNL     1      -3.986  -4.987  -4.554  0.00  0.00    +0.303 C 
ATOM      8  O   UNL     1      -4.555  -4.120  -5.188  0.00  0.00    -0.253 OA
ATOM      9  N   UNL     1      -4.364  -6.274  -4.684  0.00  0.00    -0.296 N 
ATOM     10  H   UNL     1      -3.962  -6.957  -4.124  0.00  0.00    +0.151 HD
ENDROOT
BRANCH   9  11
ATOM     11  C   UNL     1      -5.380  -6.642  -5.668  0.00  0.00    +0.077 C 
ATOM     12  C   UNL     1      -6.782  -6.489  -5.073  0.00  0.00    -0.007 C 
ATOM     13  C   UNL     1      -6.915  -7.344  -3.820  0.00  0.00    +0.003 C 
ATOM     14  C   UNL     1      -6.582  -8.807  -4.061  0.00  0.00    +0.001 C 
ATOM     15  C   UNL     1      -5.305  -9.010  -4.861  0.00  0.00    +0.003 C 
ATOM     16  C   UNL     1      -5.218  -8.106  -6.083  0.00  0.00    -0.007 C 
ATOM     17  C   UNL     1      -6.275  -8.461  -7.121  0.00  0.00    -0.073 C 
ATOM     18  N   UNL     1      -7.636  -8.203  -6.662  0.00  0.00    +0.382 N 
ATOM     19  C   UNL     1      -7.823  -6.861  -6.120  0.00  0.00    -0.073 C 
ATOM     20  H   UNL     1      -7.915  -8.896  -5.985  0.00  0.00    -0.081 HD
BRANCH  18  21
ATOM     21  C   UNL     1      -8.540  -8.360  -7.810  0.00  0.00    -0.069 C 
ATOM     22  C   UNL     1      -9.752  -9.277  -7.634  0.00  0.00    -0.017 C 
ATOM     23  C   UNL     1      -8.574  -9.724  -8.501  0.00  0.00    -0.017 C 
ENDBRANCH  18  21
ENDBRANCH   9  11
BRANCH   1  24
ATOM     24  C   UNL     1       1.092  -4.155  -2.834  0.00  0.00    +0.143 C 
BRANCH  24  28
ATOM     25  C   UNL     1       3.048  -7.920  -0.013  0.00  0.00    +0.089 C 
ATOM     26  C   UNL     1       2.498  -6.584  -0.442  0.00  0.00    +0.135 A 
ATOM     27  C   UNL     1       2.080  -6.261  -1.681  0.00  0.00    +0.072 A 
ATOM     28  C   UNL     1       1.641  -4.925  -1.661  0.00  0.00    +0.098 A 
ATOM     29  N   UNL     1       1.793  -4.468  -0.450  0.00  0.00    -0.082 NA
ATOM     30  O   UNL     1       2.332  -5.510   0.344  0.00  0.00    -0.360 OA
ENDBRANCH  24  28
ENDBRANCH   1  24
TORSDOF 4
