REMARK  Name = ZINC18200603
REMARK  3 active torsions:
REMARK  status: ('A' for Active; 'I' for Inactive)
REMARK    1  A    between atoms: C_3  and  C_6
REMARK    2  A    between atoms: C_11  and  C_20
REMARK    3  A    between atoms: C_23  and  C_26
REMARK                            x       y       z     vdW  Elec       q    Type
REMARK                         _______ _______ _______ _____ _____    ______ ____
ROOT
ATOM      1  C   UNL     1      -1.206   2.714   0.023  0.00  0.00    +0.039 C 
ATOM      2  C   UNL     1      -2.065   2.442   1.259  0.00  0.00    +0.060 C 
ATOM      3  C   UNL     1      -3.272   3.350   1.248  0.00  0.00    +0.020 C 
ATOM      4  C   UNL     1      -3.828   3.750   0.084  0.00  0.00    +0.041 C 
ATOM      5  C   UNL     1      -5.050   4.641   0.041  0.00  0.00    +0.175 C 
ATOM      6  N   UNL     1      -5.278   5.237   1.351  0.00  0.00    -0.219 N 
ATOM      7  C   UNL     1      -4.671   4.804   2.483  0.00  0.00    +0.220 A 
ATOM      8  N   UNL     1      -5.095   5.537   3.477  0.00  0.00    -0.180 NA
ATOM      9  C   UNL     1      -5.966   6.449   3.021  0.00  0.00    +0.233 A 
ATOM     10  N   UNL     1      -6.104   6.297   1.721  0.00  0.00    -0.132 NA
ATOM     11  N   UNL     1      -6.620   7.404   3.799  0.00  0.00    -0.326 N 
ATOM     12  N   UNL     1      -3.770   3.752   2.464  0.00  0.00    -0.287 N 
ATOM     13  C   UNL     1      -3.287   3.345  -1.150  0.00  0.00    +0.164 C 
ATOM     14  O   UNL     1      -3.821   3.707  -2.180  0.00  0.00    -0.292 OA
ATOM     15  C   UNL     1      -2.064   2.474  -1.223  0.00  0.00    +0.088 C 
ATOM     16  H   UNL     1      -7.237   8.028   3.385  0.00  0.00    +0.145 HD
ATOM     17  H   UNL     1      -6.459   7.445   4.755  0.00  0.00    +0.145 HD
ATOM     18  H   UNL     1      -3.498   3.313   3.284  0.00  0.00    +0.155 HD
ENDROOT
BRANCH   5  19
ATOM     19  C   UNL     1      -6.252   3.822  -0.353  0.00  0.00    -0.018 A 
ATOM     20  C   UNL     1      -6.639   2.748   0.428  0.00  0.00    +0.007 A 
ATOM     21  C   UNL     1      -7.742   1.997   0.076  0.00  0.00    +0.015 A 
ATOM     22  C   UNL     1      -8.461   2.317  -1.077  0.00  0.00    +0.063 A 
ATOM     23  C   UNL     1      -8.062   3.399  -1.864  0.00  0.00    +0.015 A 
ATOM     24  C   UNL     1      -6.960   4.145  -1.497  0.00  0.00    +0.007 A 
BRANCH  22  25
ATOM     25  C   UNL     1      -9.640   1.514  -1.463  0.00  0.00    +0.387 C 
ATOM     26  O   UNL     1     -10.263   1.795  -2.467  0.00  0.00    -0.241 OA
ATOM     27  O   UNL     1     -10.023   0.471  -0.702  0.00  0.00    -0.241 OA
ENDBRANCH  22  25
ENDBRANCH   5  19
BRANCH   1  30
ATOM     28  C   UNL     1       2.220   1.048  -0.013  0.00  0.00    +0.008 A 
ATOM     29  C   UNL     1       1.300   2.079   0.001  0.00  0.00    +0.011 A 
ATOM     30  C   UNL     1      -0.022   1.781   0.012  0.00  0.00    -0.006 A 
ATOM     31  S   UNL     1       0.002  -0.004   0.002  0.00  0.00    -0.101 S 
ATOM     32  C   UNL     1       1.773  -0.232  -0.016  0.00  0.00    +0.045 A 
ENDBRANCH   1  30
TORSDOF 3
