REMARK  Name = ZINC14547269
REMARK  2 active torsions:
REMARK  status: ('A' for Active; 'I' for Inactive)
REMARK    1  A    between atoms: C_5  and  O_7
REMARK    2  A    between atoms: C_9  and  C_18
REMARK                            x       y       z     vdW  Elec       q    Type
REMARK                         _______ _______ _______ _____ _____    ______ ____
ROOT
ATOM      1  C   UNL     1       5.933  -2.354   0.970  0.00  0.00    +0.004 A 
ATOM      2  C   UNL     1       5.615  -1.635  -0.163  0.00  0.00    +0.006 A 
ATOM      3  C   UNL     1       4.449  -0.881  -0.221  0.00  0.00    -0.016 A 
ATOM      4  C   UNL     1       3.603  -0.856   0.870  0.00  0.00    +0.073 A 
ATOM      5  C   UNL     1       3.926  -1.584   2.019  0.00  0.00    +0.138 A 
ATOM      6  C   UNL     1       5.090  -2.331   2.066  0.00  0.00    +0.047 A 
ATOM      7  N   UNL     1       2.413  -0.122   0.871  0.00  0.00    -0.334 N 
ATOM      8  C   UNL     1       2.495   1.040  -0.016  0.00  0.00    +0.106 C 
ATOM      9  C   UNL     1       2.803   0.588  -1.434  0.00  0.00    +0.029 C 
ATOM     10  C   UNL     1       4.171  -0.122  -1.492  0.00  0.00    +0.049 C 
ATOM     11  C   UNL     1       3.990  -1.133  -2.612  0.00  0.00    -0.023 C 
ATOM     12  C   UNL     1       2.720  -1.381  -2.806  0.00  0.00    -0.030 C 
ATOM     13  C   UNL     1       1.867  -0.575  -1.845  0.00  0.00    +0.033 C 
ATOM     14  H   UNL     1       2.161   0.155   1.808  0.00  0.00    +0.147 HD
ENDROOT
BRANCH   8  15
ATOM     15  C   UNL     1       1.179   1.775   0.000  0.00  0.00    -0.009 A 
ATOM     16  C   UNL     1       1.149   3.161   0.008  0.00  0.00    +0.008 A 
ATOM     17  C   UNL     1      -0.084   3.795   0.023  0.00  0.00    +0.020 A 
ATOM     18  C   UNL     1      -1.234   3.029   0.030  0.00  0.00    +0.111 A 
ATOM     19  N   UNL     1      -1.168   1.712   0.017  0.00  0.00    -0.263 NA
ATOM     20  C   UNL     1      -0.013   1.076   0.008  0.00  0.00    +0.116 A 
ENDBRANCH   8  15
BRANCH   5  21
ATOM     21  O   UNL     1       3.094  -1.559   3.094  0.00  0.00    -0.505 OA
ATOM     22  H   UNL     1       2.418  -2.250   3.084  0.00  0.00    +0.292 HD
ENDBRANCH   5  21
TORSDOF 2
