REMARK  Name = ZINC54163469
REMARK  8 active torsions:
REMARK  status: ('A' for Active; 'I' for Inactive)
REMARK    1  A    between atoms: C_1  and  C_2
REMARK    2  A    between atoms: C_2  and  C_3
REMARK    3  A    between atoms: C_3  and  C_5
REMARK    4  A    between atoms: C_3  and  N_10
REMARK    5  A    between atoms: C_5  and  C_6
REMARK    6  A    between atoms: N_7  and  O_8
REMARK    7  A    between atoms: N_10  and  S_11
REMARK    8  A    between atoms: S_11  and  C_14
REMARK                            x       y       z     vdW  Elec       q    Type
REMARK                         _______ _______ _______ _____ _____    ______ ____
ROOT
ATOM      1  N   UNL     1       0.060   0.048  -2.251  0.00  0.00    -0.186 NA
ATOM      2  H   UNL     1      -0.577  -0.653  -2.466  0.00  0.00    +0.148 HD
ENDROOT
BRANCH   1   3
ATOM      3  S   UNL     1       0.288   1.308  -3.301  0.00  0.00    +0.060 S 
ATOM      4  O   UNL     1       1.679   1.600  -3.289  0.00  0.00    -0.153 OA
ATOM      5  O   UNL     1      -0.411   0.976  -4.493  0.00  0.00    -0.153 OA
BRANCH   3   6
ATOM      6  C   UNL     1      -0.526   2.712  -2.614  0.00  0.00    +0.120 A 
ATOM      7  C   UNL     1       0.216   3.755  -2.092  0.00  0.00    +0.045 A 
ATOM      8  C   UNL     1      -0.423   4.856  -1.553  0.00  0.00    +0.020 A 
ATOM      9  C   UNL     1      -1.805   4.915  -1.536  0.00  0.00    +0.016 A 
ATOM     10  C   UNL     1      -2.547   3.872  -2.058  0.00  0.00    +0.018 A 
ATOM     11  C   UNL     1      -1.908   2.773  -2.602  0.00  0.00    +0.044 A 
ATOM     12 BR   UNL     1      -2.923   1.349  -3.323  0.00  0.00    -0.048 Br
ATOM     13 BR   UNL     1       0.592   6.283  -0.839  0.00  0.00    -0.050 Br
ENDBRANCH   3   6
ENDBRANCH   1   3
BRANCH   1  14
ATOM     14  C   UNL     1       0.819  -0.010  -1.000  0.00  0.00    +0.083 C 
BRANCH  14  16
ATOM     15  C   UNL     1      -0.813   1.445   0.210  0.00  0.00    +0.005 C 
ATOM     16  C   UNL     1      -0.146   0.068   0.186  0.00  0.00    +0.017 C 
ENDBRANCH  14  16
BRANCH  14  17
ATOM     17  C   UNL     1       1.599  -1.324  -0.936  0.00  0.00    +0.095 C 
BRANCH  17  18
ATOM     18  C   UNL     1       2.634  -1.347  -2.032  0.00  0.00    +0.133 C 
ATOM     19  N   UNL     1       2.744  -0.344  -2.838  0.00  0.00    -0.077 NA
ATOM     20  N   UNL     1       3.463  -2.438  -2.173  0.00  0.00    -0.344 N 
ATOM     21  H   UNL     1       3.380  -3.192  -1.568  0.00  0.00    +0.144 HD
ATOM     22  H   UNL     1       4.129  -2.453  -2.878  0.00  0.00    +0.144 HD
BRANCH  19  23
ATOM     23  O   UNL     1       3.716  -0.365  -3.867  0.00  0.00    -0.408 OA
ATOM     24  H   UNL     1       3.723   0.429  -4.418  0.00  0.00    +0.328 HD
ENDBRANCH  19  23
ENDBRANCH  17  18
ENDBRANCH  14  17
ENDBRANCH   1  14
TORSDOF 7
