REMARK  Name = ZINC39681459
REMARK  3 active torsions:
REMARK  status: ('A' for Active; 'I' for Inactive)
REMARK    1  A    between atoms: C_1  and  N_2
REMARK    2  A    between atoms: C_3  and  C_5
REMARK    3  A    between atoms: C_16  and  C_18
REMARK                            x       y       z     vdW  Elec       q    Type
REMARK                         _______ _______ _______ _____ _____    ______ ____
ROOT
ATOM      1  C   UNL     1       0.825  -2.005  -0.922  0.00  0.00    +0.100 C 
ATOM      2  C   UNL     1       1.702  -2.638   0.182  0.00  0.00    +0.121 C 
ATOM      3  N   UNL     1       2.269  -3.855  -0.444  0.00  0.00    -0.296 N 
ATOM      4  C   UNL     1       2.583  -3.444  -1.833  0.00  0.00    +0.115 C 
ATOM      5  C   UNL     1       1.407  -2.535  -2.242  0.00  0.00    -0.004 C 
ATOM      6  C   UNL     1       1.908  -1.379  -3.102  0.00  0.00    -0.010 C 
ATOM      7  C   UNL     1       2.428  -1.927  -4.434  0.00  0.00    -0.082 C 
ATOM      8  N   UNL     1       1.350  -2.645  -5.125  0.00  0.00    +0.379 N 
ATOM      9  C   UNL     1       0.938  -3.810  -4.333  0.00  0.00    -0.082 C 
ATOM     10  C   UNL     1       0.354  -3.342  -2.997  0.00  0.00    -0.010 C 
ATOM     11  C   UNL     1       2.457  -5.064   0.122  0.00  0.00    +0.247 C 
ATOM     12  O   UNL     1       3.019  -5.945  -0.499  0.00  0.00    -0.270 OA
ATOM     13  H   UNL     1       0.561  -2.027  -5.247  0.00  0.00    -0.086 HD
ATOM     14  H   UNL     1       1.677  -2.952  -6.028  0.00  0.00    -0.086 HD
ENDROOT
BRANCH  11  15
ATOM     15  C   UNL     1       1.981  -5.317   1.497  0.00  0.00    +0.045 A 
ATOM     16  C   UNL     1       2.302  -4.427   2.528  0.00  0.00    +0.014 A 
ATOM     17  C   UNL     1       1.859  -4.661   3.811  0.00  0.00    +0.001 A 
ATOM     18  C   UNL     1       1.091  -5.779   4.096  0.00  0.00    +0.012 A 
ATOM     19  C   UNL     1       0.760  -6.676   3.087  0.00  0.00    +0.031 A 
ATOM     20  C   UNL     1       1.200  -6.447   1.774  0.00  0.00    +0.006 A 
ATOM     21  C   UNL     1       0.703  -7.545   0.907  0.00  0.00    -0.006 A 
ATOM     22  C   UNL     1       0.857  -7.795  -0.450  0.00  0.00    +0.009 A 
ATOM     23  C   UNL     1       0.274  -8.918  -1.018  0.00  0.00    +0.001 A 
ATOM     24  C   UNL     1      -0.460  -9.794  -0.242  0.00  0.00    +0.001 A 
ATOM     25  C   UNL     1      -0.622  -9.558   1.113  0.00  0.00    +0.012 A 
ATOM     26  C   UNL     1      -0.044  -8.437   1.695  0.00  0.00    +0.030 A 
ATOM     27  C   UNL     1      -0.028  -7.931   3.089  0.00  0.00    +0.194 C 
ATOM     28  O   UNL     1      -0.570  -8.442   4.048  0.00  0.00    -0.287 OA
ENDBRANCH  11  15
BRANCH   1  31
ATOM     29  C   UNL     1       0.040   1.716  -1.360  0.00  0.00    +0.128 C 
ATOM     30  N   UNL     1      -0.055   0.255  -1.409  0.00  0.00    -0.318 N 
ATOM     31  C   UNL     1       0.922  -0.502  -0.872  0.00  0.00    +0.218 C 
ATOM     32  O   UNL     1       1.880   0.027  -0.349  0.00  0.00    -0.275 OA
ATOM     33  H   UNL     1      -0.822  -0.167  -1.827  0.00  0.00    +0.148 HD
ENDBRANCH   1  31
TORSDOF 2
