REMARK  Name = ZINC17792847
REMARK  8 active torsions:
REMARK  status: ('A' for Active; 'I' for Inactive)
REMARK    1  A    between atoms: C_1  and  C_2
REMARK    2  A    between atoms: C_2  and  C_3
REMARK    3  A    between atoms: C_2  and  C_4
REMARK    4  A    between atoms: C_2  and  N_61
REMARK    5  A    between atoms: C_4  and  N_5
REMARK    6  A    between atoms: C_6  and  C_8
REMARK    7  A    between atoms: N_11  and  S_14
REMARK    8  A    between atoms: S_14  and  C_17
REMARK                            x       y       z     vdW  Elec       q    Type
REMARK                         _______ _______ _______ _____ _____    ______ ____
ROOT
ATOM      1  C   UNL     1      -2.305   0.882   4.064  0.00  0.00    +0.077 C 
ATOM      2  C   UNL     1      -2.405   2.030   3.057  0.00  0.00    +0.030 C 
ATOM      3  C   UNL     1      -2.943   1.492   1.728  0.00  0.00    +0.110 C 
ATOM      4  N   UNL     1      -2.092   0.377   1.289  0.00  0.00    -0.176 NA
ATOM      5  C   UNL     1      -1.860  -0.740   2.215  0.00  0.00    +0.110 C 
ATOM      6  C   UNL     1      -1.329  -0.174   3.541  0.00  0.00    +0.030 C 
ENDROOT
BRANCH   1   8
ATOM      7  N   UNL     1      -1.640   0.578   6.427  0.00  0.00    -0.316 N 
ATOM      8  C   UNL     1      -1.807   1.414   5.384  0.00  0.00    +0.216 C 
ATOM      9  O   UNL     1      -1.558   2.595   5.506  0.00  0.00    -0.276 OA
ATOM     10  H   UNL     1      -1.839  -0.366   6.329  0.00  0.00    +0.149 HD
BRANCH   7  11
ATOM     11  C   UNL     1      -1.157   1.095   7.710  0.00  0.00    +0.092 C 
BRANCH  11  13
ATOM     12  C   UNL     1       0.145  -0.983   8.189  0.00  0.00    -0.008 C 
ATOM     13  C   UNL     1      -0.971  -0.064   8.690  0.00  0.00    -0.055 C 
ATOM     14  C   UNL     1      -0.599   0.487  10.068  0.00  0.00    -0.008 C 
BRANCH  13  20
ATOM     15  C   UNL     1      -3.335   0.041   9.202  0.00  0.00    -0.078 C 
ATOM     16  C   UNL     1      -4.645  -0.750   9.155  0.00  0.00    -0.019 C 
ATOM     17  C   UNL     1      -4.541  -1.957  10.091  0.00  0.00    -0.004 C 
ATOM     18  C   UNL     1      -3.346  -2.817   9.670  0.00  0.00    -0.019 C 
ATOM     19  C   UNL     1      -2.074  -1.967   9.702  0.00  0.00    -0.078 C 
ATOM     20  N   UNL     1      -2.229  -0.836   8.763  0.00  0.00    +0.384 N 
ATOM     21  H   UNL     1      -2.448  -1.206   7.830  0.00  0.00    -0.081 HD
ENDBRANCH  13  20
ENDBRANCH  11  13
ENDBRANCH   7  11
ENDBRANCH   1   8
BRANCH   4  22
ATOM     22  S   UNL     1      -1.414   0.377  -0.221  0.00  0.00    +0.064 S 
ATOM     23  O   UNL     1      -2.227   1.215  -1.032  0.00  0.00    -0.153 OA
ATOM     24  O   UNL     1      -1.155  -0.981  -0.550  0.00  0.00    -0.153 OA
BRANCH  22  25
ATOM     25  C   UNL     1       0.153   1.171  -0.088  0.00  0.00    +0.142 A 
ATOM     26  C   UNL     1       0.253   2.539  -0.263  0.00  0.00    +0.069 A 
ATOM     27  C   UNL     1       1.484   3.162  -0.165  0.00  0.00    +0.022 A 
ATOM     28  C   UNL     1       2.615   2.417   0.114  0.00  0.00    +0.003 A 
ATOM     29  C   UNL     1       2.516   1.050   0.294  0.00  0.00    +0.022 A 
ATOM     30  C   UNL     1       1.284   0.427   0.196  0.00  0.00    +0.069 A 
ATOM     31 CL   UNL     1       1.160  -1.290   0.421  0.00  0.00    -0.081 Cl
ATOM     32 CL   UNL     1      -1.167   3.475  -0.614  0.00  0.00    -0.081 Cl
ENDBRANCH  22  25
ENDBRANCH   4  22
TORSDOF 6
