REMARK  Name = ZINC19741976
REMARK  7 active torsions:
REMARK  status: ('A' for Active; 'I' for Inactive)
REMARK    1  A    between atoms: C_4  and  C_7
REMARK    2  A    between atoms: C_8  and  C_9
REMARK    3  A    between atoms: C_9  and  N_10
REMARK    4  A    between atoms: C_16  and  C_18
REMARK    5  A    between atoms: C_18  and  C_19
REMARK    6  A    between atoms: N_21  and  C_22
REMARK    7  A    between atoms: C_25  and  O_28
REMARK                            x       y       z     vdW  Elec       q    Type
REMARK                         _______ _______ _______ _____ _____    ______ ____
ROOT
ATOM      1  N   UNL     1      -1.223   3.232   0.403  0.00  0.00    +0.391 N 
ATOM      2  C   UNL     1      -0.142   3.846  -0.386  0.00  0.00    -0.058 C 
ATOM      3  C   UNL     1       1.200   3.321   0.126  0.00  0.00    +0.085 C 
ATOM      4  N   UNL     1       1.171   1.863   0.202  0.00  0.00    -0.318 N 
ATOM      5  C   UNL     1       0.035   1.158   0.208  0.00  0.00    +0.200 C 
ATOM      6  O   UNL     1       0.101  -0.049   0.305  0.00  0.00    -0.278 OA
ATOM      7  C   UNL     1      -1.320   1.798   0.095  0.00  0.00    +0.028 C 
ATOM      8  H   UNL     1       2.112   1.296   0.257  0.00  0.00    +0.149 HD
ATOM      9  H   UNL     1      -0.986   3.347   1.472  0.00  0.00    -0.080 HD
ENDROOT
BRANCH   1  10
ATOM     10  C   UNL     1      -2.503   3.910   0.160  0.00  0.00    -0.050 C 
BRANCH  10  12
ATOM     11  C   UNL     1      -2.744   6.353   0.117  0.00  0.00    +0.002 C 
ATOM     12  C   UNL     1      -2.491   5.262   0.826  0.00  0.00    -0.045 C 
BRANCH  11  16
ATOM     13  C   UNL     1      -2.710  10.162   1.996  0.00  0.00    +0.000 A 
ATOM     14  C   UNL     1      -2.986  10.063   0.644  0.00  0.00    +0.001 A 
ATOM     15  C   UNL     1      -2.999   8.829   0.027  0.00  0.00    +0.008 A 
ATOM     16  C   UNL     1      -2.732   7.678   0.771  0.00  0.00    -0.025 A 
ATOM     17  C   UNL     1      -2.461   7.784   2.135  0.00  0.00    +0.008 A 
ATOM     18  C   UNL     1      -2.445   9.025   2.738  0.00  0.00    +0.001 A 
ENDBRANCH  11  16
ENDBRANCH  10  12
ENDBRANCH   1  10
BRANCH   7  19
ATOM     19  C   UNL     1      -2.280   1.133   1.082  0.00  0.00    +0.089 C 
BRANCH  19  20
ATOM     20  C   UNL     1      -1.788   1.355   2.489  0.00  0.00    +0.212 C 
ATOM     21  O   UNL     1      -0.831   2.072   2.690  0.00  0.00    -0.276 OA
ATOM     22  N   UNL     1      -2.411   0.756   3.523  0.00  0.00    -0.312 N 
ATOM     23  H   UNL     1      -3.279   0.105   3.341  0.00  0.00    +0.149 HD
BRANCH  22  24
ATOM     24  C   UNL     1      -1.932   0.972   4.891  0.00  0.00    +0.073 C 
ATOM     25  C   UNL     1      -0.799  -0.010   5.196  0.00  0.00    +0.025 C 
ATOM     26  C   UNL     1      -0.299   0.216   6.624  0.00  0.00    +0.033 C 
ATOM     27  C   UNL     1      -1.448  -0.011   7.608  0.00  0.00    +0.115 C 
ATOM     28  C   UNL     1      -2.581   0.971   7.304  0.00  0.00    +0.033 C 
ATOM     29  C   UNL     1      -3.081   0.746   5.875  0.00  0.00    +0.025 C 
BRANCH  27  30
ATOM     30  O   UNL     1      -0.981   0.200   8.942  0.00  0.00    -0.392 OA
ATOM     31  H   UNL     1      -1.670   0.082   9.791  0.00  0.00    +0.210 HD
ENDBRANCH  27  30
ENDBRANCH  22  24
ENDBRANCH  19  20
ENDBRANCH   7  19
TORSDOF 7
