REMARK  Name = ZINC12753457
REMARK  7 active torsions:
REMARK  status: ('A' for Active; 'I' for Inactive)
REMARK    1  A    between atoms: C_1  and  O_2
REMARK    2  A    between atoms: O_2  and  C_3
REMARK    3  A    between atoms: C_7  and  O_30
REMARK    4  A    between atoms: C_8  and  C_9
REMARK    5  A    between atoms: N_15  and  C_22
REMARK    6  A    between atoms: C_22  and  C_23
REMARK    7  A    between atoms: O_30  and  C_31
REMARK                            x       y       z     vdW  Elec       q    Type
REMARK                         _______ _______ _______ _____ _____    ______ ____
ROOT
ATOM      1  C   UNL     1      -5.069  -1.054   3.885  0.00  0.00    -0.029 C 
ATOM      2  C   UNL     1      -3.617  -1.467   4.194  0.00  0.00    -0.006 C 
ATOM      3  C   UNL     1      -2.765  -0.314   3.623  0.00  0.00    +0.003 C 
ATOM      4  C   UNL     1      -2.567  -0.563   2.109  0.00  0.00    +0.110 C 
ATOM      5  N   UNL     1      -2.864   0.715   1.452  0.00  0.00    -0.298 N 
ATOM      6  C   UNL     1      -3.537   1.542   2.272  0.00  0.00    +0.206 C 
ATOM      7  O   UNL     1      -3.940   2.645   1.967  0.00  0.00    -0.277 OA
ATOM      8  C   UNL     1      -3.718   0.902   3.617  0.00  0.00    +0.018 C 
ATOM      9  C   UNL     1      -5.571   0.972   5.121  0.00  0.00    -0.077 C 
ATOM     10  C   UNL     1      -4.756   2.277   5.314  0.00  0.00    -0.019 C 
ATOM     11  C   UNL     1      -3.365   1.865   4.762  0.00  0.00    -0.004 C 
ATOM     12  N   UNL     1      -5.077   0.421   3.840  0.00  0.00    +0.394 N 
ATOM     13  H   UNL     1      -5.686   0.735   3.074  0.00  0.00    -0.079 HD
ENDROOT
BRANCH   1  19
ATOM     14  C   UNL     1      -5.554  -2.520   5.861  0.00  0.00    +0.125 A 
ATOM     15  C   UNL     1      -6.401  -2.968   6.865  0.00  0.00    +0.046 A 
ATOM     16  C   UNL     1      -7.679  -2.454   6.973  0.00  0.00    +0.007 A 
ATOM     17  C   UNL     1      -8.116  -1.489   6.086  0.00  0.00    +0.046 A 
ATOM     18  C   UNL     1      -7.271  -1.033   5.083  0.00  0.00    +0.125 A 
ATOM     19  C   UNL     1      -5.988  -1.547   4.973  0.00  0.00    +0.022 A 
BRANCH  14  21
ATOM     20  C   UNL     1      -3.957  -4.105   6.628  0.00  0.00    +0.277 C 
ATOM     21  O   UNL     1      -4.300  -3.030   5.751  0.00  0.00    -0.495 OA
ENDBRANCH  14  21
BRANCH  18  22
ATOM     22  O   UNL     1      -7.701  -0.084   4.211  0.00  0.00    -0.495 OA
ATOM     23  C   UNL     1      -9.034   0.400   4.384  0.00  0.00    +0.277 C 
ENDBRANCH  18  22
ENDBRANCH   1  19
BRANCH   5  24
ATOM     24  C   UNL     1      -2.482   1.045   0.076  0.00  0.00    +0.142 C 
BRANCH  24  25
ATOM     25  C   UNL     1      -1.121   1.692   0.075  0.00  0.00    -0.029 A 
ATOM     26  C   UNL     1       0.015   0.913  -0.042  0.00  0.00    +0.005 A 
ATOM     27  C   UNL     1       1.264   1.506  -0.049  0.00  0.00    +0.002 A 
ATOM     28  C   UNL     1       1.377   2.879   0.066  0.00  0.00    +0.020 A 
ATOM     29  C   UNL     1       0.241   3.659   0.189  0.00  0.00    +0.041 A 
ATOM     30  C   UNL     1      -1.008   3.064   0.196  0.00  0.00    +0.025 A 
ATOM     31 CL   UNL     1       0.383   5.383   0.333  0.00  0.00    -0.084 Cl
ENDBRANCH  24  25
ENDBRANCH   5  24
TORSDOF 5
