REMARK  Name = ZINC62331022
REMARK  3 active torsions:
REMARK  status: ('A' for Active; 'I' for Inactive)
REMARK    1  A    between atoms: C_1  and  C_2
REMARK    2  A    between atoms: C_6  and  N_22
REMARK    3  A    between atoms: C_9  and  C_11
REMARK                            x       y       z     vdW  Elec       q    Type
REMARK                         _______ _______ _______ _____ _____    ______ ____
ROOT
ATOM      1  C   UNL     1       2.156   0.011   1.231  0.00  0.00    +0.219 C 
ATOM      2  O   UNL     1       2.399   1.112   1.677  0.00  0.00    -0.275 OA
ATOM      3  N   UNL     1       3.150  -0.746   0.724  0.00  0.00    -0.292 N 
ATOM      4  C   UNL     1       4.551  -0.308   0.806  0.00  0.00    +0.130 C 
ATOM      5  C   UNL     1       5.337  -1.300   1.672  0.00  0.00    +0.142 C 
ATOM      6  N   UNL     1       4.998  -2.666   1.269  0.00  0.00    -0.333 N 
ATOM      7  C   UNL     1       5.702  -3.806   1.523  0.00  0.00    +0.105 A 
ATOM      8  C   UNL     1       5.009  -4.822   0.971  0.00  0.00    +0.102 A 
ATOM      9  N   UNL     1       3.910  -4.311   0.393  0.00  0.00    -0.348 N 
ATOM     10  C   UNL     1       3.899  -3.022   0.563  0.00  0.00    +0.105 A 
ATOM     11  C   UNL     1       2.864  -2.039   0.076  0.00  0.00    +0.180 C 
ATOM     12  H   UNL     1       3.232  -4.821  -0.077  0.00  0.00    +0.166 HD
ENDROOT
BRANCH   1  19
ATOM     13  C   UNL     1       0.082   1.238  -0.413  0.00  0.00    +0.008 C 
ATOM     14  C   UNL     1       0.095  -0.263  -0.121  0.00  0.00    -0.002 C 
ATOM     15  C   UNL     1      -1.340  -0.794  -0.109  0.00  0.00    +0.002 C 
ATOM     16  C   UNL     1      -2.142  -0.070   0.975  0.00  0.00    -0.016 C 
ATOM     17  C   UNL     1      -1.494  -0.318   2.339  0.00  0.00    -0.074 C 
ATOM     18  C   UNL     1      -0.059   0.212   2.327  0.00  0.00    -0.003 C 
ATOM     19  C   UNL     1       0.742  -0.511   1.243  0.00  0.00    +0.076 C 
BRANCH  17  20
ATOM     20  N   UNL     1      -2.264   0.376   3.380  0.00  0.00    +0.380 N 
ATOM     21  H   UNL     1      -3.211   0.026   3.388  0.00  0.00    -0.090 HD
ATOM     22  H   UNL     1      -1.837   0.212   4.279  0.00  0.00    -0.090 HD
ATOM     23  H   UNL     1      -2.273   1.367   3.187  0.00  0.00    -0.090 HD
ENDBRANCH  17  20
ENDBRANCH   1  19
TORSDOF 2
