REMARK  Name = ZINC46718102
REMARK  8 active torsions:
REMARK  status: ('A' for Active; 'I' for Inactive)
REMARK    1  A    between atoms: C_1  and  C_2
REMARK    2  A    between atoms: C_9  and  C_11
REMARK    3  A    between atoms: C_17  and  C_19
REMARK    4  A    between atoms: C_19  and  C_21
REMARK    5  A    between atoms: C_19  and  N_24
REMARK    6  A    between atoms: C_21  and  C_22
REMARK    7  A    between atoms: C_21  and  C_23
REMARK    8  A    between atoms: C_25  and  C_27
REMARK                            x       y       z     vdW  Elec       q    Type
REMARK                         _______ _______ _______ _____ _____    ______ ____
ROOT
ATOM      1  C   UNL     1       3.908  -8.557   3.286  0.00  0.00    +0.162 C 
ENDROOT
BRANCH   1   8
ATOM      2  C   UNL     1       0.505  -6.623   0.126  0.00  0.00    +0.078 C 
ATOM      3  C   UNL     1       1.850  -7.346   0.025  0.00  0.00    +0.032 C 
ATOM      4  C   UNL     1       2.716  -6.976   1.234  0.00  0.00    +0.108 C 
ATOM      5  N   UNL     1       1.964  -7.268   2.462  0.00  0.00    -0.300 N 
ATOM      6  C   UNL     1       0.621  -6.696   2.620  0.00  0.00    +0.108 C 
ATOM      7  C   UNL     1      -0.222  -7.069   1.397  0.00  0.00    +0.032 C 
ATOM      8  C   UNL     1       2.497  -8.047   3.424  0.00  0.00    +0.236 C 
ATOM      9  O   UNL     1       1.840  -8.337   4.402  0.00  0.00    -0.274 OA
BRANCH   2  17
ATOM     10  C   UNL     1      -1.800  -6.045  -5.578  0.00  0.00    +0.009 C 
ATOM     11  C   UNL     1      -1.124  -5.653  -4.263  0.00  0.00    +0.003 C 
ATOM     12  C   UNL     1       0.130  -4.827  -4.559  0.00  0.00    +0.006 C 
ATOM     13  C   UNL     1       0.789  -4.407  -3.243  0.00  0.00    +0.019 C 
ATOM     14  C   UNL     1       1.207  -5.657  -2.464  0.00  0.00    +0.108 C 
ATOM     15  N   UNL     1       0.034  -6.527  -2.300  0.00  0.00    -0.301 N 
ATOM     16  C   UNL     1      -0.728  -6.918  -3.494  0.00  0.00    +0.111 C 
ATOM     17  C   UNL     1      -0.336  -6.958  -1.078  0.00  0.00    +0.219 C 
ATOM     18  O   UNL     1      -1.347  -7.615  -0.948  0.00  0.00    -0.275 OA
ENDBRANCH   2  17
ENDBRANCH   1   8
BRANCH   1  19
ATOM     19  N   UNL     1       4.176  -9.544   4.335  0.00  0.00    -0.303 N 
ATOM     20  C   UNL     1       5.122 -10.486   4.149  0.00  0.00    +0.220 C 
ATOM     21  O   UNL     1       5.752 -10.516   3.113  0.00  0.00    -0.275 OA
ATOM     22  H   UNL     1       3.672  -9.519   5.164  0.00  0.00    +0.149 HD
BRANCH  20  23
ATOM     23  C   UNL     1       5.397 -11.500   5.229  0.00  0.00    +0.048 C 
ATOM     24  C   UNL     1       4.126 -12.304   5.509  0.00  0.00    +0.019 C 
ATOM     25  C   UNL     1       4.406 -13.334   6.605  0.00  0.00    -0.009 C 
ATOM     26  C   UNL     1       5.516 -14.281   6.144  0.00  0.00    +0.007 C 
ATOM     27  C   UNL     1       6.787 -13.477   5.863  0.00  0.00    -0.009 C 
ATOM     28  C   UNL     1       6.508 -12.447   4.768  0.00  0.00    +0.019 C 
ATOM     29  C   UNL     1       7.228 -12.757   7.140  0.00  0.00    +0.007 C 
ATOM     30  C   UNL     1       6.118 -11.811   7.601  0.00  0.00    -0.009 C 
ATOM     31  C   UNL     1       4.846 -12.615   7.881  0.00  0.00    +0.007 C 
ATOM     32  C   UNL     1       5.838 -10.781   6.505  0.00  0.00    +0.019 C 
ENDBRANCH  20  23
ENDBRANCH   1  19
BRANCH   1  33
ATOM     33  C   UNL     1       4.888  -7.390   3.421  0.00  0.00    +0.012 C 
ATOM     34  C   UNL     1       4.840  -6.846   4.850  0.00  0.00    +0.009 C 
ATOM     35  C   UNL     1       6.305  -7.875   3.107  0.00  0.00    +0.009 C 
ENDBRANCH   1  33
TORSDOF 5
