REMARK  Name = ZINC07449788
REMARK  3 active torsions:
REMARK  status: ('A' for Active; 'I' for Inactive)
REMARK    1  A    between atoms: C_1  and  C_2
REMARK    2  A    between atoms: C_2  and  C_27
REMARK    3  A    between atoms: C_6  and  C_16
REMARK                            x       y       z     vdW  Elec       q    Type
REMARK                         _______ _______ _______ _____ _____    ______ ____
ROOT
ATOM      1  C   UNL     1       1.147  -1.526   2.209  0.00  0.00    +0.011 C 
ATOM      2  C   UNL     1      -0.203  -1.906   1.597  0.00  0.00    -0.023 C 
ATOM      3  C   UNL     1      -0.892  -0.658   1.045  0.00  0.00    +0.058 C 
ATOM      4  C   UNL     1       0.002  -0.004   0.002  0.00  0.00    +0.017 C 
ATOM      5  C   UNL     1       0.726  -0.757  -0.839  0.00  0.00    +0.030 C 
ATOM      6  C   UNL     1       1.530  -0.319  -2.044  0.00  0.00    +0.116 C 
ATOM      7  S   UNL     1       1.211   1.376  -2.564  0.00  0.00    -0.110 S 
ATOM      8  C   UNL     1       1.722   2.359  -1.197  0.00  0.00    +0.030 A 
ATOM      9  C   UNL     1       2.770   3.261  -1.317  0.00  0.00    +0.016 A 
ATOM     10  C   UNL     1       3.164   3.984  -0.204  0.00  0.00    +0.001 A 
ATOM     11  C   UNL     1       2.529   3.803   1.012  0.00  0.00    +0.002 A 
ATOM     12  C   UNL     1       1.473   2.913   1.125  0.00  0.00    +0.024 A 
ATOM     13  C   UNL     1       1.066   2.210   0.004  0.00  0.00    +0.045 A 
ATOM     14  N   UNL     1      -0.016   1.344   0.009  0.00  0.00    -0.317 N 
ATOM     15  C   UNL     1       0.757  -2.164  -0.661  0.00  0.00    +0.163 C 
ATOM     16  O   UNL     1       1.423  -2.829  -1.430  0.00  0.00    -0.292 OA
ATOM     17  C   UNL     1       0.010  -2.871   0.426  0.00  0.00    +0.086 C 
ATOM     18  C   UNL     1      -1.089  -2.563   2.657  0.00  0.00    +0.011 C 
ATOM     19  H   UNL     1      -0.893   1.758   0.016  0.00  0.00    +0.152 HD
ENDROOT
BRANCH   6  20
ATOM     20  C   UNL     1       1.214  -1.241  -3.193  0.00  0.00    -0.028 A 
ATOM     21  C   UNL     1      -0.085  -1.347  -3.656  0.00  0.00    +0.006 A 
ATOM     22  C   UNL     1      -0.376  -2.188  -4.713  0.00  0.00    +0.022 A 
ATOM     23  C   UNL     1       0.631  -2.933  -5.302  0.00  0.00    +0.059 A 
ATOM     24  C   UNL     1       1.930  -2.831  -4.835  0.00  0.00    +0.060 A 
ATOM     25  C   UNL     1       2.220  -1.984  -3.780  0.00  0.00    +0.026 A 
ATOM     26 CL   UNL     1       3.195  -3.764  -5.572  0.00  0.00    -0.082 Cl
ATOM     27 CL   UNL     1       0.265  -3.996  -6.625  0.00  0.00    -0.082 Cl
ENDBRANCH   6  20
TORSDOF 1
