REMARK  Name = ZINC15864605
REMARK  5 active torsions:
REMARK  status: ('A' for Active; 'I' for Inactive)
REMARK    1  A    between atoms: C_1  and  C_2
REMARK    2  A    between atoms: C_5  and  C_8
REMARK    3  A    between atoms: N_28  and  C_29
REMARK    4  A    between atoms: C_29  and  C_30
REMARK    5  A    between atoms: C_30  and  C_31
REMARK                            x       y       z     vdW  Elec       q    Type
REMARK                         _______ _______ _______ _____ _____    ______ ____
ROOT
ATOM      1  C   UNL     1       7.837  -3.022  -3.963  0.00  0.00    +0.155 C 
ATOM      2  C   UNL     1       8.478  -4.268  -3.439  0.00  0.00    +0.049 A 
ATOM      3  C   UNL     1       8.317  -5.538  -3.837  0.00  0.00    +0.025 A 
ATOM      4  C   UNL     1       9.202  -6.335  -3.077  0.00  0.00    +0.020 A 
ATOM      5  C   UNL     1       9.864  -5.514  -2.230  0.00  0.00    +0.092 A 
ATOM      6  N   UNL     1       9.407  -4.255  -2.425  0.00  0.00    -0.312 N 
ATOM      7  C   UNL     1       9.701  -3.060  -1.780  0.00  0.00    +0.090 A 
ATOM      8  C   UNL     1       8.763  -2.163  -1.373  0.00  0.00    +0.005 A 
ATOM      9  C   UNL     1       9.234  -0.979  -0.770  0.00  0.00    -0.030 A 
ATOM     10  C   UNL     1      10.578  -0.833  -0.630  0.00  0.00    -0.005 A 
ATOM     11  S   UNL     1      11.242  -2.323  -1.330  0.00  0.00    -0.075 S 
ATOM     12  C   UNL     1      11.313   0.318  -0.025  0.00  0.00    +0.043 C 
ATOM     13  C   UNL     1      10.341   1.502   0.098  0.00  0.00    +0.005 C 
ATOM     14  C   UNL     1       9.032   1.001   0.715  0.00  0.00    +0.005 C 
ATOM     15  C   UNL     1       8.287   0.115  -0.284  0.00  0.00    +0.036 C 
ATOM     16  C   UNL     1       7.292  -2.460  -1.569  0.00  0.00    +0.148 C 
ATOM     17  N   UNL     1       6.890  -2.431  -2.987  0.00  0.00    -0.269 N 
ATOM     18  C   UNL     1       5.714  -1.899  -3.376  0.00  0.00    +0.303 C 
ATOM     19  O   UNL     1       5.411  -1.891  -4.554  0.00  0.00    -0.253 OA
ATOM     20  N   UNL     1       4.875  -1.376  -2.461  0.00  0.00    -0.299 N 
ATOM     21  H   UNL     1       5.117  -1.382  -1.522  0.00  0.00    +0.150 HD
ENDROOT
BRANCH   1  26
ATOM     22  C   UNL     1      11.965   0.842  -5.155  0.00  0.00    +0.044 C 
ATOM     23  C   UNL     1      10.889  -0.166  -4.844  0.00  0.00    -0.050 A 
ATOM     24  C   UNL     1      11.112  -1.510  -5.076  0.00  0.00    +0.004 A 
ATOM     25  C   UNL     1      10.125  -2.434  -4.791  0.00  0.00    +0.006 A 
ATOM     26  C   UNL     1       8.914  -2.014  -4.273  0.00  0.00    -0.021 A 
ATOM     27  C   UNL     1       8.688  -0.670  -4.046  0.00  0.00    +0.006 A 
ATOM     28  C   UNL     1       9.678   0.254  -4.326  0.00  0.00    +0.004 A 
ENDBRANCH   1  26
BRANCH  20  29
ATOM     29  C   UNL     1       3.598  -0.797  -2.885  0.00  0.00    +0.110 C 
BRANCH  29  30
ATOM     30  C   UNL     1       2.842  -0.278  -1.660  0.00  0.00    +0.054 C 
BRANCH  30  31
ATOM     31  C   UNL     1       1.528   0.317  -2.096  0.00  0.00    -0.046 A 
ATOM     32  C   UNL     1       0.399  -0.477  -2.167  0.00  0.00    +0.004 A 
ATOM     33  C   UNL     1      -0.807   0.069  -2.567  0.00  0.00    +0.000 A 
ATOM     34  C   UNL     1      -0.883   1.409  -2.895  0.00  0.00    +0.000 A 
ATOM     35  C   UNL     1       0.245   2.204  -2.823  0.00  0.00    +0.000 A 
ATOM     36  C   UNL     1       1.451   1.658  -2.424  0.00  0.00    +0.004 A 
ENDBRANCH  30  31
ENDBRANCH  29  30
ENDBRANCH  20  29
TORSDOF 4
