REMARK  Name = ZINC14461010
REMARK  6 active torsions:
REMARK  status: ('A' for Active; 'I' for Inactive)
REMARK    1  A    between atoms: C_4  and  C_7
REMARK    2  A    between atoms: C_7  and  C_8
REMARK    3  A    between atoms: C_8  and  N_9
REMARK    4  A    between atoms: C_10  and  C_12
REMARK    5  A    between atoms: C_19  and  C_28
REMARK    6  A    between atoms: C_33  and  O_34
REMARK                            x       y       z     vdW  Elec       q    Type
REMARK                         _______ _______ _______ _____ _____    ______ ____
ROOT
ATOM      1  C   UNL     1      -3.902   0.245   0.917  0.00  0.00    +0.058 A 
ATOM      2  C   UNL     1      -4.273  -0.035   2.231  0.00  0.00    +0.015 A 
ATOM      3  C   UNL     1      -3.398   0.218   3.265  0.00  0.00    +0.001 A 
ATOM      4  C   UNL     1      -2.151   0.758   2.995  0.00  0.00    +0.006 A 
ATOM      5  C   UNL     1      -1.770   1.046   1.703  0.00  0.00    -0.019 A 
ATOM      6  C   UNL     1      -2.632   0.788   0.634  0.00  0.00    +0.044 A 
ATOM      7  N   UNL     1      -2.313   1.010  -0.695  0.00  0.00    -0.336 N 
ATOM      8  C   UNL     1      -1.008   1.630  -0.988  0.00  0.00    +0.108 C 
ATOM      9  C   UNL     1      -0.017   1.067   0.008  0.00  0.00    +0.029 C 
ATOM     10  C   UNL     1      -0.449   1.636   1.396  0.00  0.00    +0.049 C 
ATOM     11  C   UNL     1       0.749   1.406   2.240  0.00  0.00    -0.023 C 
ATOM     12  C   UNL     1       1.825   1.421   1.461  0.00  0.00    -0.030 C 
ATOM     13  C   UNL     1       1.409   1.629   0.002  0.00  0.00    +0.033 C 
ATOM     14  H   UNL     1      -3.061   1.491  -1.172  0.00  0.00    +0.147 HD
ENDROOT
BRANCH   8  15
ATOM     15  C   UNL     1      -0.553   1.330  -2.393  0.00  0.00    +0.015 A 
ATOM     16  C   UNL     1      -0.021   2.336  -3.176  0.00  0.00    +0.024 A 
ATOM     17  C   UNL     1       0.398   2.061  -4.466  0.00  0.00    +0.018 A 
ATOM     18  C   UNL     1       0.285   0.779  -4.973  0.00  0.00    +0.019 A 
ATOM     19  C   UNL     1      -0.246  -0.229  -4.193  0.00  0.00    +0.047 A 
ATOM     20  C   UNL     1      -0.662   0.043  -2.898  0.00  0.00    +0.122 A 
ATOM     21 BR   UNL     1       1.127   3.439  -5.536  0.00  0.00    -0.050 Br
BRANCH  20  22
ATOM     22  O   UNL     1      -1.180  -0.949  -2.126  0.00  0.00    -0.506 OA
ATOM     23  H   UNL     1      -2.125  -1.101  -2.263  0.00  0.00    +0.292 HD
ENDBRANCH  20  22
ENDBRANCH   8  15
BRANCH   1  25
ATOM     24  N   UNL     1      -6.060  -0.546   0.083  0.00  0.00    -0.311 N 
ATOM     25  C   UNL     1      -4.845  -0.027  -0.183  0.00  0.00    +0.246 C 
ATOM     26  O   UNL     1      -4.525   0.216  -1.331  0.00  0.00    -0.270 OA
ATOM     27  H   UNL     1      -6.315  -0.739   0.998  0.00  0.00    +0.149 HD
BRANCH  24  28
ATOM     28  C   UNL     1      -6.996  -0.816  -1.011  0.00  0.00    +0.109 C 
BRANCH  28  29
ATOM     29  C   UNL     1      -8.292  -1.397  -0.441  0.00  0.00    +0.054 C 
BRANCH  29  33
ATOM     30  C   UNL     1     -11.022  -2.187  -3.630  0.00  0.00    +0.000 A 
ATOM     31  C   UNL     1     -10.133  -3.164  -3.223  0.00  0.00    +0.000 A 
ATOM     32  C   UNL     1      -9.249  -2.909  -2.192  0.00  0.00    +0.004 A 
ATOM     33  C   UNL     1      -9.255  -1.676  -1.566  0.00  0.00    -0.046 A 
ATOM     34  C   UNL     1     -10.148  -0.701  -1.969  0.00  0.00    +0.004 A 
ATOM     35  C   UNL     1     -11.028  -0.954  -3.005  0.00  0.00    +0.000 A 
ENDBRANCH  29  33
ENDBRANCH  28  29
ENDBRANCH  24  28
ENDBRANCH   1  25
TORSDOF 6
