REMARK  Name = ZINC13498910
REMARK  12 active torsions:
REMARK  status: ('A' for Active; 'I' for Inactive)
REMARK    1  A    between atoms: C_1  and  C_2
REMARK    2  A    between atoms: C_6  and  C_15
REMARK    3  A    between atoms: C_13  and  C_14
REMARK    4  A    between atoms: C_15  and  N_75
REMARK    5  A    between atoms: C_16  and  N_75
REMARK    6  A    between atoms: C_22  and  C_24
REMARK    7  A    between atoms: C_22  and  C_36
REMARK    8  A    between atoms: C_22  and  N_75
REMARK    9  A    between atoms: N_28  and  C_29
REMARK   10  A    between atoms: C_29  and  C_30
REMARK   11  A    between atoms: C_36  and  C_37
REMARK   12  A    between atoms: C_36  and  C_38
REMARK                            x       y       z     vdW  Elec       q    Type
REMARK                         _______ _______ _______ _____ _____    ______ ____
ROOT
ATOM      1  N   UNL     1      -5.775   4.076  -1.226  0.00  0.00    +0.391 N 
ATOM      2  H   UNL     1      -4.921   4.316  -1.742  0.00  0.00    -0.080 HD
ENDROOT
BRANCH   1   3
ATOM      3  C   UNL     1      -6.179   2.699  -1.580  0.00  0.00    -0.067 C 
ATOM      4  C   UNL     1      -7.126   2.130  -0.522  0.00  0.00    -0.015 C 
ATOM      5  C   UNL     1      -7.521   0.703  -0.906  0.00  0.00    -0.002 C 
ATOM      6  C   UNL     1      -6.267  -0.169  -0.989  0.00  0.00    -0.000 C 
ATOM      7  C   UNL     1      -5.320   0.400  -2.048  0.00  0.00    -0.002 C 
ATOM      8  C   UNL     1      -4.924   1.827  -1.664  0.00  0.00    -0.015 C 
ENDBRANCH   1   3
BRANCH   1   9
ATOM      9  C   UNL     1      -5.500   4.164   0.224  0.00  0.00    -0.036 C 
BRANCH   9  15
ATOM     10  C   UNL     1      -2.780  10.344   3.391  0.00  0.00    +0.044 C 
ATOM     11  C   UNL     1      -2.622   9.158   2.475  0.00  0.00    -0.047 A 
ATOM     12  C   UNL     1      -3.657   8.280   2.319  0.00  0.00    +0.013 A 
ATOM     13  C   UNL     1      -3.510   7.179   1.469  0.00  0.00    -0.001 A 
ATOM     14  C   UNL     1      -4.599   6.219   1.278  0.00  0.00    +0.017 A 
ATOM     15  C   UNL     1      -4.399   5.171   0.442  0.00  0.00    +0.001 A 
ATOM     16  C   UNL     1      -3.165   5.019  -0.225  0.00  0.00    +0.251 A 
ATOM     17  O   UNL     1      -3.006   4.069  -0.972  0.00  0.00    -0.268 OA
ATOM     18  N   UNL     1      -2.159   5.895  -0.056  0.00  0.00    -0.322 N 
ATOM     19  H   UNL     1      -1.323   5.760  -0.529  0.00  0.00    +0.169 HD
ATOM     20  C   UNL     1      -2.300   6.985   0.776  0.00  0.00    +0.049 A 
ATOM     21  C   UNL     1      -1.258   7.888   0.955  0.00  0.00    +0.030 A 
ATOM     22  C   UNL     1      -1.425   8.967   1.798  0.00  0.00    -0.046 A 
ATOM     23  C   UNL     1      -0.297   9.948   1.985  0.00  0.00    +0.044 C 
ENDBRANCH   9  15
ENDBRANCH   1   9
BRANCH   1  24
ATOM     24  C   UNL     1      -6.844   5.027  -1.595  0.00  0.00    +0.006 C 
BRANCH  24  25
ATOM     25  C   UNL     1      -8.086   4.768  -0.782  0.00  0.00    +0.139 A 
ATOM     26  N   UNL     1      -8.137   4.452   0.489  0.00  0.00    -0.115 NA
ATOM     27  N   UNL     1      -9.376   4.316   0.815  0.00  0.00    -0.023 NA
ATOM     28  N   UNL     1     -10.116   4.530  -0.216  0.00  0.00    -0.044 NA
ATOM     29  N   UNL     1      -9.358   4.812  -1.221  0.00  0.00    -0.226 N 
BRANCH  29  30
ATOM     30  C   UNL     1      -9.798   5.121  -2.584  0.00  0.00    +0.182 C 
BRANCH  30  31
ATOM     31  C   UNL     1      -9.880   3.848  -3.386  0.00  0.00    -0.026 A 
ATOM     32  C   UNL     1      -8.780   3.405  -4.095  0.00  0.00    +0.005 A 
ATOM     33  C   UNL     1      -8.854   2.235  -4.827  0.00  0.00    +0.000 A 
ATOM     34  C   UNL     1     -10.032   1.512  -4.858  0.00  0.00    +0.000 A 
ATOM     35  C   UNL     1     -11.135   1.958  -4.153  0.00  0.00    +0.000 A 
ATOM     36  C   UNL     1     -11.059   3.125  -3.417  0.00  0.00    +0.005 A 
ENDBRANCH  30  31
ENDBRANCH  29  30
ENDBRANCH  24  25
BRANCH  24  37
ATOM     37  C   UNL     1      -6.351   6.452  -1.335  0.00  0.00    -0.024 C 
ATOM     38  C   UNL     1      -5.092   6.715  -2.163  0.00  0.00    +0.006 C 
ATOM     39  C   UNL     1      -7.441   7.449  -1.733  0.00  0.00    +0.006 C 
ENDBRANCH  24  37
ENDBRANCH   1  24
TORSDOF 8
