REMARK  Name = ZINC20347946
REMARK  11 active torsions:
REMARK  status: ('A' for Active; 'I' for Inactive)
REMARK    1  A    between atoms: C_1  and  C_2
REMARK    2  A    between atoms: C_2  and  O_3
REMARK    3  A    between atoms: O_3  and  C_4
REMARK    4  A    between atoms: C_9  and  C_10
REMARK    5  A    between atoms: C_12  and  C_36
REMARK    6  A    between atoms: C_13  and  S_27
REMARK    7  A    between atoms: C_15  and  C_26
REMARK    8  A    between atoms: C_16  and  C_17
REMARK    9  A    between atoms: N_19  and  C_20
REMARK   10  A    between atoms: S_27  and  C_28
REMARK   11  A    between atoms: C_28  and  C_29
REMARK                            x       y       z     vdW  Elec       q    Type
REMARK                         _______ _______ _______ _____ _____    ______ ____
ROOT
ATOM      1  C   UNL     1      -0.099   5.391   0.041  0.00  0.00    +0.102 C 
ATOM      2  C   UNL     1      -0.893   5.883  -1.137  0.00  0.00    +0.069 C 
ATOM      3  C   UNL     1      -2.211   6.194  -1.018  0.00  0.00    +0.080 C 
ATOM      4  N   UNL     1      -2.852   6.074   0.195  0.00  0.00    -0.312 N 
ATOM      5  C   UNL     1      -2.124   5.993   1.351  0.00  0.00    +0.014 C 
ATOM      6  C   UNL     1      -0.819   5.678   1.327  0.00  0.00    +0.044 C 
ATOM      7  C   UNL     1      -2.798   6.262   2.672  0.00  0.00    +0.061 C 
ATOM      8  H   UNL     1      -3.950   6.042   0.236  0.00  0.00    +0.152 HD
ENDROOT
BRANCH   1  14
ATOM      9  C   UNL     1       1.398   3.390  -0.156  0.00  0.00    +0.125 A 
ATOM     10  C   UNL     1       1.589   2.021  -0.275  0.00  0.00    +0.046 A 
ATOM     11  C   UNL     1       0.498   1.174  -0.326  0.00  0.00    +0.004 A 
ATOM     12  C   UNL     1      -0.783   1.691  -0.265  0.00  0.00    +0.001 A 
ATOM     13  C   UNL     1      -0.976   3.054  -0.141  0.00  0.00    +0.008 A 
ATOM     14  C   UNL     1       0.112   3.905  -0.089  0.00  0.00    +0.007 A 
BRANCH   9  15
ATOM     15  O   UNL     1       2.469   4.224  -0.104  0.00  0.00    -0.492 OA
BRANCH  15  17
ATOM     16  C   UNL     1       4.836   4.713  -0.105  0.00  0.00    +0.048 C 
ATOM     17  C   UNL     1       3.764   3.624  -0.178  0.00  0.00    +0.225 C 
ENDBRANCH  15  17
ENDBRANCH   9  15
ENDBRANCH   1  14
BRANCH   6  18
ATOM     18  C   UNL     1      -0.103   5.613   2.547  0.00  0.00    +0.247 C 
ATOM     19  O   UNL     1      -0.671   5.843   3.599  0.00  0.00    -0.270 OA
ATOM     20  N   UNL     1       1.207   5.298   2.543  0.00  0.00    -0.282 N 
ATOM     21  H   UNL     1       1.700   5.007   1.604  0.00  0.00    +0.155 HD
BRANCH  20  22
ATOM     22  C   UNL     1       1.940   5.342   3.733  0.00  0.00    +0.034 A 
ATOM     23  C   UNL     1       2.973   4.438   3.948  0.00  0.00    +0.023 A 
ATOM     24  C   UNL     1       3.698   4.487   5.122  0.00  0.00    +0.002 A 
ATOM     25  C   UNL     1       3.390   5.427   6.088  0.00  0.00    +0.000 A 
ATOM     26  C   UNL     1       2.359   6.325   5.880  0.00  0.00    +0.002 A 
ATOM     27  C   UNL     1       1.633   6.285   4.705  0.00  0.00    +0.023 A 
ENDBRANCH  20  22
ENDBRANCH   6  18
BRANCH   2  28
ATOM     28  C   UNL     1      -0.249   6.025  -2.408  0.00  0.00    +0.098 C 
ATOM     29  N   UNL     1       0.262   6.137  -3.416  0.00  0.00    -0.191 NA
ENDBRANCH   2  28
BRANCH   3  30
ATOM     30  S   UNL     1      -3.107   6.756  -2.428  0.00  0.00    -0.100 S 
BRANCH  30  31
ATOM     31  C   UNL     1      -4.739   7.002  -1.685  0.00  0.00    +0.171 C 
BRANCH  31  32
ATOM     32  C   UNL     1      -5.700   7.496  -2.736  0.00  0.00    +0.226 C 
ATOM     33  O   UNL     1      -5.319   7.665  -3.875  0.00  0.00    -0.275 OA
ATOM     34  N   UNL     1      -6.983   7.750  -2.410  0.00  0.00    -0.301 N 
ATOM     35  C   UNL     1      -7.577   7.583  -1.076  0.00  0.00    +0.108 C 
ATOM     36  C   UNL     1      -9.067   7.969  -1.186  0.00  0.00    +0.020 C 
ATOM     37  C   UNL     1      -9.362   7.781  -2.698  0.00  0.00    +0.020 C 
ATOM     38  C   UNL     1      -8.024   8.235  -3.334  0.00  0.00    +0.108 C 
ENDBRANCH  31  32
ENDBRANCH  30  31
ENDBRANCH   3  30
TORSDOF 9
