REMARK  Name = ZINC37359678
REMARK  5 active torsions:
REMARK  status: ('A' for Active; 'I' for Inactive)
REMARK    1  A    between atoms: C_3  and  C_8
REMARK    2  A    between atoms: C_10  and  N_32
REMARK    3  A    between atoms: N_11  and  C_25
REMARK    4  A    between atoms: N_17  and  C_18
REMARK    5  A    between atoms: C_18  and  C_19
REMARK                            x       y       z     vdW  Elec       q    Type
REMARK                         _______ _______ _______ _____ _____    ______ ____
ROOT
ATOM      1  C   UNL     1       3.585   2.300   0.185  0.00  0.00    +0.089 A 
ATOM      2  C   UNL     1       4.732   1.790   0.832  0.00  0.00    +0.086 A 
ATOM      3  C   UNL     1       5.028   0.668   1.597  0.00  0.00    +0.131 A 
ATOM      4  N   UNL     1       6.329   0.741   1.938  0.00  0.00    -0.216 N 
ATOM      5  N   UNL     1       6.897   1.904   1.405  0.00  0.00    -0.144 NA
ATOM      6  C   UNL     1       5.981   2.568   0.733  0.00  0.00    +0.189 A 
ATOM      7  N   UNL     1       5.954   3.717   0.032  0.00  0.00    -0.193 NA
ATOM      8  C   UNL     1       4.838   4.120  -0.541  0.00  0.00    +0.218 A 
ATOM      9  N   UNL     1       3.694   3.444  -0.479  0.00  0.00    -0.214 NA
ATOM     10  N   UNL     1       4.858   5.307  -1.251  0.00  0.00    -0.309 N 
ATOM     11  H   UNL     1       4.051   5.627  -1.683  0.00  0.00    +0.149 HD
ENDROOT
BRANCH   1  14
ATOM     12  C   UNL     1       0.625   0.396   1.501  0.00  0.00    +0.003 A 
ATOM     13  C   UNL     1       1.827   1.071   1.454  0.00  0.00    +0.010 A 
ATOM     14  C   UNL     1       2.296   1.574   0.240  0.00  0.00    +0.004 A 
ATOM     15  C   UNL     1       1.545   1.391  -0.921  0.00  0.00    +0.048 A 
ATOM     16  C   UNL     1       0.342   0.713  -0.862  0.00  0.00    +0.124 A 
ATOM     17  C   UNL     1      -0.117   0.216   0.348  0.00  0.00    +0.038 A 
ATOM     18  F   UNL     1      -0.387   0.534  -1.985  0.00  0.00    -0.205 F 
ENDBRANCH   1  14
BRANCH   4  19
ATOM     19  C   UNL     1       7.012  -0.205   2.713  0.00  0.00    +0.068 A 
ATOM     20  C   UNL     1       6.355  -0.866   3.742  0.00  0.00    +0.030 A 
ATOM     21  C   UNL     1       7.030  -1.799   4.505  0.00  0.00    +0.040 A 
ATOM     22  C   UNL     1       8.362  -2.075   4.243  0.00  0.00    +0.124 A 
ATOM     23  C   UNL     1       9.019  -1.417   3.217  0.00  0.00    +0.040 A 
ATOM     24  C   UNL     1       8.346  -0.488   2.448  0.00  0.00    +0.030 A 
ATOM     25  F   UNL     1       9.020  -2.988   4.990  0.00  0.00    -0.205 F 
ENDBRANCH   4  19
BRANCH   3  26
ATOM     26  N   UNL     1       4.147  -0.340   1.944  0.00  0.00    -0.342 N 
ATOM     27  H   UNL     1       3.275  -0.387   1.523  0.00  0.00    +0.144 HD
ATOM     28  H   UNL     1       4.402  -0.999   2.607  0.00  0.00    +0.144 HD
ENDBRANCH   3  26
BRANCH  10  29
ATOM     29  C   UNL     1       6.099   6.080  -1.349  0.00  0.00    +0.141 C 
BRANCH  29  30
ATOM     30  C   UNL     1       5.854   7.320  -2.170  0.00  0.00    -0.012 A 
ATOM     31  C   UNL     1       6.028   7.298  -3.545  0.00  0.00    +0.008 A 
ATOM     32  C   UNL     1       5.791   8.462  -4.259  0.00  0.00    +0.020 A 
ATOM     33  C   UNL     1       5.392   9.599  -3.581  0.00  0.00    +0.111 A 
ATOM     34  N   UNL     1       5.237   9.583  -2.272  0.00  0.00    -0.263 NA
ATOM     35  C   UNL     1       5.447   8.492  -1.561  0.00  0.00    +0.115 A 
ENDBRANCH  29  30
ENDBRANCH  10  29
TORSDOF 5
