REMARK  Name = ZINC00551377
REMARK  10 active torsions:
REMARK  status: ('A' for Active; 'I' for Inactive)
REMARK    1  A    between atoms: C_1  and  C_2
REMARK    2  A    between atoms: C_2  and  C_3
REMARK    3  A    between atoms: C_2  and  C_4
REMARK    4  A    between atoms: C_4  and  N_5
REMARK    5  A    between atoms: C_6  and  N_24
REMARK    6  A    between atoms: C_7  and  C_18
REMARK    7  A    between atoms: C_18  and  O_20
REMARK    8  A    between atoms: O_20  and  C_21
REMARK    9  A    between atoms: C_21  and  C_22
REMARK   10  A    between atoms: C_21  and  C_23
REMARK                            x       y       z     vdW  Elec       q    Type
REMARK                         _______ _______ _______ _____ _____    ______ ____
ROOT
ATOM      1  N   UNL     1       3.439  -0.805  -0.034  0.00  0.00    -0.312 N 
ATOM      2  C   UNL     1       2.947  -2.074  -0.036  0.00  0.00    +0.114 A 
ATOM      3  C   UNL     1       1.556  -2.055  -0.023  0.00  0.00    +0.126 A 
ATOM      4  C   UNL     1       1.157  -0.638  -0.012  0.00  0.00    +0.124 A 
ATOM      5  C   UNL     1       2.413   0.117  -0.019  0.00  0.00    +0.162 A 
ATOM      6  N   UNL     1       2.376   1.433  -0.012  0.00  0.00    -0.226 NA
ATOM      7  C   UNL     1       1.197   2.067   0.002  0.00  0.00    +0.092 A 
ATOM      8  C   UNL     1       1.149   3.474   0.009  0.00  0.00    +0.030 A 
ATOM      9  C   UNL     1      -0.053   4.110   0.024  0.00  0.00    +0.002 A 
ATOM     10  C   UNL     1      -1.246   3.389   0.031  0.00  0.00    +0.002 A 
ATOM     11  C   UNL     1      -1.240   2.029   0.019  0.00  0.00    +0.030 A 
ATOM     12  C   UNL     1      -0.016   1.334   0.009  0.00  0.00    +0.090 A 
ATOM     13  N   UNL     1       0.002  -0.004   0.002  0.00  0.00    -0.241 NA
ENDROOT
BRANCH   2  14
ATOM     14  N   UNL     1       3.714  -3.209  -0.049  0.00  0.00    -0.344 N 
ATOM     15  H   UNL     1       4.682  -3.140  -0.058  0.00  0.00    +0.144 HD
ATOM     16  H   UNL     1       3.290  -4.081  -0.050  0.00  0.00    +0.144 HD
ENDBRANCH   2  14
BRANCH   3  17
ATOM     17  C   UNL     1       0.693  -3.179  -0.021  0.00  0.00    +0.345 C 
ATOM     18  O   UNL     1       0.313  -3.656  -1.074  0.00  0.00    -0.245 OA
BRANCH  17  19
ATOM     19  O   UNL     1       0.293  -3.720   1.149  0.00  0.00    -0.458 OA
BRANCH  19  20
ATOM     20  C   UNL     1      -0.577  -4.851   1.076  0.00  0.00    +0.171 C 
ATOM     21  C   UNL     1      -0.343  -5.753   2.290  0.00  0.00    +0.052 C 
ATOM     22  C   UNL     1      -2.031  -4.377   1.065  0.00  0.00    +0.052 C 
ENDBRANCH  19  20
ENDBRANCH  17  19
ENDBRANCH   3  17
BRANCH   1  23
ATOM     23  C   UNL     1       4.864  -0.465  -0.044  0.00  0.00    +0.128 C 
BRANCH  23  25
ATOM     24  C   UNL     1       6.885  -0.122   1.384  0.00  0.00    +0.009 C 
ATOM     25  C   UNL     1       5.373  -0.354   1.394  0.00  0.00    +0.003 C 
ATOM     26  C   UNL     1       4.681   0.819   2.091  0.00  0.00    +0.009 C 
ENDBRANCH  23  25
ENDBRANCH   1  23
TORSDOF 6
