REMARK  Name = ZINC46772994
REMARK  9 active torsions:
REMARK  status: ('A' for Active; 'I' for Inactive)
REMARK    1  A    between atoms: C_1  and  C_2
REMARK    2  A    between atoms: C_3  and  N_9
REMARK    3  A    between atoms: N_9  and  C_10
REMARK    4  A    between atoms: C_10  and  N_12
REMARK    5  A    between atoms: N_12  and  N_13
REMARK    6  A    between atoms: C_14  and  C_16
REMARK    7  A    between atoms: C_16  and  C_17
REMARK    8  A    between atoms: C_17  and  N_18
REMARK    9  A    between atoms: N_21  and  C_22
REMARK                            x       y       z     vdW  Elec       q    Type
REMARK                         _______ _______ _______ _____ _____    ______ ____
ROOT
ATOM      1  N   UNL     1       0.162   1.431  -4.730  0.00  0.00    -0.235 N 
ATOM      2  C   UNL     1       0.249   2.114  -5.888  0.00  0.00    +0.231 C 
ATOM      3  O   UNL     1       0.343   1.516  -6.939  0.00  0.00    -0.274 OA
ATOM      4  H   UNL     1       0.086   1.909  -3.889  0.00  0.00    +0.173 HD
ENDROOT
BRANCH   1   5
ATOM      5  N   UNL     1       0.182   0.030  -4.739  0.00  0.00    -0.246 N 
ATOM      6  H   UNL     1       0.258  -0.448  -5.580  0.00  0.00    +0.172 HD
BRANCH   5   7
ATOM      7  C   UNL     1       0.095  -0.653  -3.581  0.00  0.00    +0.151 C 
ATOM      8  S   UNL     1       0.119  -2.365  -3.593  0.00  0.00    -0.017 S 
BRANCH   7   9
ATOM      9  N   UNL     1      -0.010   0.011  -2.413  0.00  0.00    -0.296 N 
ATOM     10  H   UNL     1      -0.104   0.976  -2.411  0.00  0.00    +0.154 HD
BRANCH   9  13
ATOM     11  C   UNL     1      -1.912   0.706  -0.414  0.00  0.00    +0.047 C 
ATOM     12  C   UNL     1      -0.895  -0.385  -0.201  0.00  0.00    -0.011 A 
ATOM     13  C   UNL     1       0.016  -0.692  -1.204  0.00  0.00    +0.037 A 
ATOM     14  C   UNL     1       0.952  -1.698  -1.004  0.00  0.00    +0.023 A 
ATOM     15  C   UNL     1       0.975  -2.391   0.191  0.00  0.00    +0.003 A 
ATOM     16  C   UNL     1       0.068  -2.084   1.188  0.00  0.00    +0.020 A 
ATOM     17  C   UNL     1      -0.863  -1.078   0.994  0.00  0.00    +0.046 A 
ATOM     18 CL   UNL     1      -1.996  -0.691   2.251  0.00  0.00    -0.083 Cl
ENDBRANCH   9  13
ENDBRANCH   7   9
ENDBRANCH   5   7
ENDBRANCH   1   5
BRANCH   2  19
ATOM     19  C   UNL     1       0.228   3.621  -5.878  0.00  0.00    +0.116 C 
BRANCH  19  20
ATOM     20  C   UNL     1       0.339   4.142  -7.312  0.00  0.00    +0.115 C 
BRANCH  20  21
ATOM     21  N   UNL     1       0.318   5.607  -7.302  0.00  0.00    -0.299 N 
ATOM     22  C   UNL     1       0.405   6.290  -8.460  0.00  0.00    +0.300 C 
ATOM     23  O   UNL     1       0.500   5.691  -9.514  0.00  0.00    -0.253 OA
ATOM     24  N   UNL     1       0.386   7.638  -8.451  0.00  0.00    -0.294 N 
ATOM     25  H   UNL     1       0.242   6.085  -6.461  0.00  0.00    +0.150 HD
ATOM     26  H   UNL     1       0.310   8.116  -7.610  0.00  0.00    +0.151 HD
BRANCH  24  27
ATOM     27  C   UNL     1       0.480   8.380  -9.710  0.00  0.00    +0.037 C 
ATOM     28  C   UNL     1       1.796   8.034 -10.410  0.00  0.00    +0.029 C 
ATOM     29  C   UNL     1       1.894   8.810 -11.725  0.00  0.00    -0.008 C 
ATOM     30  C   UNL     1       1.850  10.311 -11.436  0.00  0.00    +0.007 C 
ATOM     31  C   UNL     1       0.534  10.658 -10.736  0.00  0.00    -0.008 C 
ATOM     32  C   UNL     1       0.436   9.882  -9.421  0.00  0.00    +0.029 C 
ATOM     33  C   UNL     1      -0.640  10.278 -11.641  0.00  0.00    +0.007 C 
ATOM     34  C   UNL     1      -0.596   8.776 -11.930  0.00  0.00    -0.008 C 
ATOM     35  C   UNL     1       0.720   8.430 -12.630  0.00  0.00    +0.007 C 
ATOM     36  C   UNL     1      -0.694   8.001 -10.615  0.00  0.00    +0.029 C 
ENDBRANCH  24  27
ENDBRANCH  20  21
ENDBRANCH  19  20
ENDBRANCH   2  19
TORSDOF 8
