REMARK  Name = ZINC10735193
REMARK  8 active torsions:
REMARK  status: ('A' for Active; 'I' for Inactive)
REMARK    1  A    between atoms: C_4  and  N_7
REMARK    2  A    between atoms: N_7  and  S_8
REMARK    3  A    between atoms: S_8  and  C_11
REMARK    4  A    between atoms: C_14  and  C_17
REMARK    5  A    between atoms: C_17  and  O_19
REMARK    6  A    between atoms: O_19  and  C_20
REMARK    7  A    between atoms: C_20  and  C_21
REMARK    8  A    between atoms: N_23  and  C_24
REMARK                            x       y       z     vdW  Elec       q    Type
REMARK                         _______ _______ _______ _____ _____    ______ ____
ROOT
ATOM      1  C   UNL     1      -2.174  -0.933  -0.417  0.00  0.00    +0.340 C 
ATOM      2  O   UNL     1      -1.090  -1.479  -0.455  0.00  0.00    -0.245 OA
ENDROOT
BRANCH   1   6
ATOM      3  C   UNL     1      -5.713  -3.259  -0.109  0.00  0.00    +0.109 A 
ATOM      4  C   UNL     1      -4.480  -3.884  -0.152  0.00  0.00    +0.029 A 
ATOM      5  C   UNL     1      -3.326  -3.135  -0.253  0.00  0.00    +0.017 A 
ATOM      6  C   UNL     1      -3.405  -1.742  -0.310  0.00  0.00    +0.059 A 
ATOM      7  C   UNL     1      -4.653  -1.117  -0.260  0.00  0.00    +0.017 A 
ATOM      8  C   UNL     1      -5.799  -1.879  -0.165  0.00  0.00    +0.029 A 
BRANCH   3   9
ATOM      9  S   UNL     1      -7.182  -4.224   0.018  0.00  0.00    +0.072 S 
ATOM     10  O   UNL     1      -8.255  -3.387  -0.392  0.00  0.00    -0.150 OA
ATOM     11  O   UNL     1      -6.905  -5.469  -0.608  0.00  0.00    -0.150 OA
BRANCH   9  12
ATOM     12  N   UNL     1      -7.419  -4.545   1.625  0.00  0.00    -0.216 N 
ATOM     13  H   UNL     1      -7.393  -5.460   1.946  0.00  0.00    +0.174 HD
BRANCH  12  17
ATOM     14  C   UNL     1      -8.129  -1.425   4.289  0.00  0.00    +0.000 A 
ATOM     15  C   UNL     1      -9.123  -1.825   3.415  0.00  0.00    +0.002 A 
ATOM     16  C   UNL     1      -8.891  -2.859   2.530  0.00  0.00    +0.024 A 
ATOM     17  C   UNL     1      -7.657  -3.498   2.519  0.00  0.00    +0.048 A 
ATOM     18  C   UNL     1      -6.663  -3.097   3.402  0.00  0.00    +0.024 A 
ATOM     19  C   UNL     1      -6.900  -2.058   4.281  0.00  0.00    +0.002 A 
ENDBRANCH  12  17
ENDBRANCH   9  12
ENDBRANCH   3   9
ENDBRANCH   1   6
BRANCH   1  20
ATOM     20  O   UNL     1      -2.254   0.411  -0.472  0.00  0.00    -0.452 OA
BRANCH  20  21
ATOM     21  C   UNL     1      -1.003   1.142  -0.576  0.00  0.00    +0.328 C 
BRANCH  21  22
ATOM     22  C   UNL     1      -1.288   2.621  -0.625  0.00  0.00    +0.251 C 
ATOM     23  O   UNL     1      -2.433   3.019  -0.583  0.00  0.00    -0.272 OA
ATOM     24  N   UNL     1      -0.272   3.500  -0.723  0.00  0.00    -0.307 N 
ATOM     25  H   UNL     1       0.643   3.181  -0.761  0.00  0.00    +0.149 HD
BRANCH  24  26
ATOM     26  C   UNL     1      -0.549   4.938  -0.771  0.00  0.00    +0.035 C 
ATOM     27  C   UNL     1      -1.424   5.248  -1.987  0.00  0.00    +0.029 C 
ATOM     28  C   UNL     1      -1.714   6.750  -2.037  0.00  0.00    -0.008 C 
ATOM     29  C   UNL     1      -0.396   7.520  -2.147  0.00  0.00    +0.007 C 
ATOM     30  C   UNL     1       0.479   7.210  -0.931  0.00  0.00    -0.008 C 
ATOM     31  C   UNL     1       0.769   5.708  -0.881  0.00  0.00    +0.029 C 
ATOM     32  C   UNL     1      -0.253   7.631   0.345  0.00  0.00    +0.007 C 
ATOM     33  C   UNL     1      -1.570   6.861   0.455  0.00  0.00    -0.008 C 
ATOM     34  C   UNL     1      -2.446   7.171  -0.761  0.00  0.00    +0.007 C 
ATOM     35  C   UNL     1      -1.281   5.359   0.505  0.00  0.00    +0.029 C 
ENDBRANCH  24  26
ENDBRANCH  21  22
ENDBRANCH  20  21
ENDBRANCH   1  20
TORSDOF 8
