REMARK  Name = ZINC67654473
REMARK  5 active torsions:
REMARK  status: ('A' for Active; 'I' for Inactive)
REMARK    1  A    between atoms: C_5  and  C_7
REMARK    2  A    between atoms: C_7  and  C_8
REMARK    3  A    between atoms: C_8  and  C_22
REMARK    4  A    between atoms: C_15  and  C_20
REMARK    5  A    between atoms: C_22  and  O_23
REMARK                            x       y       z     vdW  Elec       q    Type
REMARK                         _______ _______ _______ _____ _____    ______ ____
ROOT
ATOM      1  C   UNL     1       1.386  -2.445   1.445  0.00  0.00    +0.001 C 
ATOM      2  C   UNL     1       2.662  -1.645   1.718  0.00  0.00    +0.028 C 
ATOM      3  C   UNL     1       3.829  -2.276   0.953  0.00  0.00    +0.107 C 
ATOM      4  N   UNL     1       3.918  -3.697   1.314  0.00  0.00    -0.314 N 
ATOM      5  C   UNL     1       2.721  -4.538   1.176  0.00  0.00    +0.107 C 
ATOM      6  C   UNL     1       1.567  -3.882   1.939  0.00  0.00    +0.028 C 
ATOM      7  C   UNL     1       5.108  -4.234   1.776  0.00  0.00    +0.139 A 
ATOM      8  C   UNL     1       6.067  -4.699   0.859  0.00  0.00    +0.092 A 
ATOM      9  C   UNL     1       7.262  -5.236   1.350  0.00  0.00    +0.024 A 
ATOM     10  C   UNL     1       7.446  -5.287   2.721  0.00  0.00    +0.021 A 
ATOM     11  C   UNL     1       6.456  -4.810   3.559  0.00  0.00    +0.113 A 
ATOM     12  N   UNL     1       5.338  -4.301   3.077  0.00  0.00    -0.239 NA
ENDROOT
BRANCH   8  13
ATOM     13  C   UNL     1       5.826  -4.623  -0.550  0.00  0.00    +0.103 C 
ATOM     14  N   UNL     1       5.635  -4.564  -1.668  0.00  0.00    -0.191 NA
ENDBRANCH   8  13
BRANCH   1  15
ATOM     15  C   UNL     1       1.102  -2.454  -0.058  0.00  0.00    +0.045 C 
BRANCH  15  20
ATOM     16  C   UNL     1      -1.391  -5.226  -0.651  0.00  0.00    +0.000 A 
ATOM     17  C   UNL     1      -2.566  -4.513  -0.804  0.00  0.00    +0.001 A 
ATOM     18  C   UNL     1      -2.555  -3.134  -0.716  0.00  0.00    +0.020 A 
ATOM     19  C   UNL     1      -1.367  -2.467  -0.474  0.00  0.00    +0.044 A 
ATOM     20  C   UNL     1      -0.192  -3.180  -0.321  0.00  0.00    -0.028 A 
ATOM     21  C   UNL     1      -0.205  -4.560  -0.410  0.00  0.00    +0.005 A 
ATOM     22 CL   UNL     1      -1.351  -0.734  -0.364  0.00  0.00    -0.083 Cl
ENDBRANCH  15  20
ENDBRANCH   1  15
BRANCH   1  23
ATOM     23  C   UNL     1       0.211  -1.797   2.181  0.00  0.00    +0.163 C 
BRANCH  23  24
ATOM     24  O   UNL     1       0.117  -0.420   1.810  0.00  0.00    -0.394 OA
ATOM     25  H   UNL     1      -0.608   0.054   2.240  0.00  0.00    +0.209 HD
ENDBRANCH  23  24
ENDBRANCH   1  23
TORSDOF 5
