REMARK  Name = ZINC24978723
REMARK  10 active torsions:
REMARK  status: ('A' for Active; 'I' for Inactive)
REMARK    1  A    between atoms: C_1  and  C_2
REMARK    2  A    between atoms: N_5  and  C_11
REMARK    3  A    between atoms: C_7  and  C_10
REMARK    4  A    between atoms: C_11  and  C_12
REMARK    5  A    between atoms: C_11  and  C_13
REMARK    6  A    between atoms: C_11  and  C_14
REMARK    7  A    between atoms: C_14  and  N_15
REMARK    8  A    between atoms: N_18  and  C_19
REMARK    9  A    between atoms: C_19  and  C_20
REMARK   10  A    between atoms: C_20  and  C_21
REMARK                            x       y       z     vdW  Elec       q    Type
REMARK                         _______ _______ _______ _____ _____    ______ ____
ROOT
ATOM      1  N   UNL     1       0.432   4.102  -1.152  0.00  0.00    -0.298 N 
ATOM      2  C   UNL     1       0.602   5.428  -0.987  0.00  0.00    +0.300 C 
ATOM      3  O   UNL     1      -0.351   6.135  -0.720  0.00  0.00    -0.253 OA
ATOM      4  N   UNL     1       1.828   5.972  -1.119  0.00  0.00    -0.299 N 
ATOM      5  H   UNL     1       1.294   3.462  -1.394  0.00  0.00    +0.150 HD
ATOM      6  H   UNL     1       2.690   5.333  -1.361  0.00  0.00    +0.150 HD
ENDROOT
BRANCH   1   7
ATOM      7  C   UNL     1      -0.901   3.510  -1.008  0.00  0.00    +0.127 C 
BRANCH   7   8
ATOM      8  C   UNL     1      -0.801   1.990  -1.140  0.00  0.00    +0.032 C 
ATOM      9  C   UNL     1      -0.356   1.629  -2.559  0.00  0.00    +0.029 C 
ATOM     10  C   UNL     1      -2.168   1.363  -0.860  0.00  0.00    +0.029 C 
BRANCH   8  14
ATOM     11  C   UNL     1       2.220   2.043   1.850  0.00  0.00    +0.039 C 
ATOM     12  C   UNL     1       0.891   1.353   2.164  0.00  0.00    +0.130 C 
ATOM     13  C   UNL     1      -0.186   1.854   1.199  0.00  0.00    +0.116 C 
ATOM     14  N   UNL     1       0.180   1.477  -0.174  0.00  0.00    -0.291 NA
ATOM     15  C   UNL     1       0.325   0.019  -0.294  0.00  0.00    +0.116 C 
ATOM     16  C   UNL     1       1.397  -0.463   0.687  0.00  0.00    +0.130 C 
ATOM     17  O   UNL     1       1.040  -0.061   2.012  0.00  0.00    -0.371 OA
ATOM     18  C   UNL     1       1.496  -1.989   0.625  0.00  0.00    +0.039 C 
ENDBRANCH   8  14
ENDBRANCH   7   8
ENDBRANCH   1   7
BRANCH   4  19
ATOM     19  C   UNL     1       2.013   7.414  -0.940  0.00  0.00    +0.110 C 
BRANCH  19  20
ATOM     20  C   UNL     1       3.488   7.769  -1.143  0.00  0.00    +0.054 C 
BRANCH  20  21
ATOM     21  C   UNL     1       3.678   9.252  -0.959  0.00  0.00    -0.045 A 
ATOM     22  C   UNL     1       3.966   9.762   0.294  0.00  0.00    +0.004 A 
ATOM     23  C   UNL     1       4.142  11.122   0.463  0.00  0.00    +0.002 A 
ATOM     24  C   UNL     1       4.028  11.974  -0.620  0.00  0.00    +0.020 A 
ATOM     25  C   UNL     1       3.739  11.465  -1.873  0.00  0.00    +0.041 A 
ATOM     26  C   UNL     1       3.569  10.102  -2.043  0.00  0.00    +0.023 A 
ATOM     27 CL   UNL     1       3.597  12.534  -3.233  0.00  0.00    -0.084 Cl
ENDBRANCH  20  21
ENDBRANCH  19  20
ENDBRANCH   4  19
TORSDOF 6
