REMARK  Name = ZINC39344854
REMARK  10 active torsions:
REMARK  status: ('A' for Active; 'I' for Inactive)
REMARK    1  A    between atoms: C_1  and  C_2
REMARK    2  A    between atoms: C_4  and  C_8
REMARK    3  A    between atoms: C_8  and  N_9
REMARK    4  A    between atoms: N_17  and  C_26
REMARK    5  A    between atoms: N_20  and  C_21
REMARK    6  A    between atoms: C_21  and  C_22
REMARK    7  A    between atoms: C_22  and  C_23
REMARK    8  A    between atoms: C_23  and  O_24
REMARK    9  A    between atoms: O_24  and  C_25
REMARK   10  A    between atoms: C_26  and  C_27
REMARK                            x       y       z     vdW  Elec       q    Type
REMARK                         _______ _______ _______ _____ _____    ______ ____
ROOT
ATOM      1  N   UNL     1      -0.586  -2.130   2.414  0.00  0.00    +0.382 N 
ATOM      2  C   UNL     1       0.880  -2.127   2.330  0.00  0.00    -0.076 C 
ATOM      3  C   UNL     1       1.455  -1.242   3.440  0.00  0.00    +0.017 C 
ATOM      4  C   UNL     1       1.004  -1.777   4.796  0.00  0.00    +0.112 C 
ATOM      5  C   UNL     1      -0.518  -1.873   4.850  0.00  0.00    +0.017 C 
ATOM      6  C   UNL     1      -1.013  -2.732   3.683  0.00  0.00    -0.076 C 
ATOM      7  C   UNL     1       1.519  -0.897   5.910  0.00  0.00    +0.247 C 
ATOM      8  O   UNL     1       1.274   0.276   6.092  0.00  0.00    -0.273 OA
ATOM      9  N   UNL     1       2.310  -1.693   6.660  0.00  0.00    -0.220 N 
ATOM     10  C   UNL     1       2.360  -2.939   6.173  0.00  0.00    +0.312 C 
ATOM     11  O   UNL     1       3.007  -3.836   6.676  0.00  0.00    -0.252 OA
ATOM     12  N   UNL     1       1.613  -3.086   5.062  0.00  0.00    -0.271 N 
ATOM     13  H   UNL     1      -0.925  -1.181   2.362  0.00  0.00    -0.082 HD
ENDROOT
BRANCH   1  14
ATOM     14  C   UNL     1      -1.137  -2.907   1.296  0.00  0.00    -0.028 C 
BRANCH  14  18
ATOM     15  C   UNL     1      -4.744  -2.245   4.193  0.00  0.00    +0.067 C 
ATOM     16  C   UNL     1      -3.914  -2.161   2.938  0.00  0.00    +0.053 C 
ATOM     17  N   UNL     1      -3.338  -3.162   2.361  0.00  0.00    -0.263 NA
ATOM     18  C   UNL     1      -2.639  -2.639   1.180  0.00  0.00    +0.204 C 
ATOM     19  N   UNL     1      -2.897  -1.194   1.164  0.00  0.00    -0.265 NA
ATOM     20  C   UNL     1      -3.642  -0.927   2.184  0.00  0.00    +0.130 C 
ENDBRANCH  14  18
ENDBRANCH   1  14
BRANCH  12  21
ATOM     21  C   UNL     1       1.441  -4.310   4.276  0.00  0.00    +0.112 C 
BRANCH  21  22
ATOM     22  C   UNL     1       0.693  -5.352   5.110  0.00  0.00    +0.047 C 
BRANCH  22  23
ATOM     23  C   UNL     1       0.403  -6.583   4.249  0.00  0.00    +0.161 C 
BRANCH  23  24
ATOM     24  O   UNL     1      -0.296  -7.556   5.028  0.00  0.00    -0.383 OA
ATOM     25  C   UNL     1      -0.616  -8.751   4.314  0.00  0.00    +0.193 C 
ENDBRANCH  23  24
ENDBRANCH  22  23
ENDBRANCH  21  22
ENDBRANCH  12  21
BRANCH   9  26
ATOM     26  C   UNL     1       3.025  -1.248   7.859  0.00  0.00    +0.153 C 
BRANCH  26  27
ATOM     27  C   UNL     1       2.152  -1.452   9.070  0.00  0.00    -0.029 A 
ATOM     28  C   UNL     1       1.294  -0.433   9.477  0.00  0.00    +0.006 A 
ATOM     29  C   UNL     1       0.492  -0.585  10.567  0.00  0.00    +0.009 A 
ATOM     30  C   UNL     1       0.528  -1.787  11.294  0.00  0.00    -0.018 A 
ATOM     31  C   UNL     1      -0.285  -1.981  12.424  0.00  0.00    +0.008 A 
ATOM     32  C   UNL     1      -0.223  -3.159  13.103  0.00  0.00    +0.001 A 
ATOM     33  C   UNL     1       0.635  -4.178  12.696  0.00  0.00    +0.001 A 
ATOM     34  C   UNL     1       1.437  -4.026  11.606  0.00  0.00    +0.008 A 
ATOM     35  C   UNL     1       1.401  -2.824  10.880  0.00  0.00    -0.018 A 
ATOM     36  C   UNL     1       2.210  -2.632   9.746  0.00  0.00    +0.013 A 
ENDBRANCH  26  27
ENDBRANCH   9  26
TORSDOF 8
