REMARK  Name = ZINC67263094
REMARK  7 active torsions:
REMARK  status: ('A' for Active; 'I' for Inactive)
REMARK    1  A    between atoms: N_7  and  C_11
REMARK    2  A    between atoms: C_11  and  C_12
REMARK    3  A    between atoms: C_12  and  C_13
REMARK    4  A    between atoms: C_13  and  C_14
REMARK    5  A    between atoms: N_16  and  C_17
REMARK    6  A    between atoms: C_20  and  C_23
REMARK    7  A    between atoms: C_23  and  N_24
REMARK                            x       y       z     vdW  Elec       q    Type
REMARK                         _______ _______ _______ _____ _____    ______ ____
ROOT
ATOM      1  C   UNL     1      -1.017  -5.107  -2.877  0.00  0.00    +0.217 C 
ATOM      2  O   UNL     1      -0.532  -4.489  -3.801  0.00  0.00    -0.275 OA
ATOM      3  N   UNL     1      -1.860  -6.131  -3.120  0.00  0.00    -0.285 N 
ATOM      4  H   UNL     1      -2.195  -6.668  -2.386  0.00  0.00    +0.155 HD
ENDROOT
BRANCH   3   5
ATOM      5  C   UNL     1      -2.251  -6.418  -4.433  0.00  0.00    +0.033 A 
ATOM      6  C   UNL     1      -3.538  -6.873  -4.691  0.00  0.00    +0.023 A 
ATOM      7  C   UNL     1      -3.921  -7.156  -5.987  0.00  0.00    +0.007 A 
ATOM      8  C   UNL     1      -3.026  -6.985  -7.028  0.00  0.00    -0.030 A 
ATOM      9  C   UNL     1      -1.744  -6.532  -6.774  0.00  0.00    +0.007 A 
ATOM     10  C   UNL     1      -1.357  -6.242  -5.480  0.00  0.00    +0.023 A 
BRANCH   8  11
ATOM     11  C   UNL     1      -3.448  -7.295  -8.441  0.00  0.00    +0.141 C 
BRANCH  11  12
ATOM     12  N   UNL     1      -4.014  -6.091  -9.056  0.00  0.00    -0.295 N 
ATOM     13  C   UNL     1      -4.462  -6.131 -10.326  0.00  0.00    +0.297 C 
ATOM     14  O   UNL     1      -4.396  -7.165 -10.962  0.00  0.00    -0.253 OA
ATOM     15  N   UNL     1      -4.984  -5.024 -10.892  0.00  0.00    -0.313 N 
ATOM     16  H   UNL     1      -4.068  -5.267  -8.548  0.00  0.00    +0.151 HD
ATOM     17  H   UNL     1      -5.037  -4.199 -10.384  0.00  0.00    +0.146 HD
ATOM     18  H   UNL     1      -5.306  -5.053 -11.806  0.00  0.00    +0.146 HD
ENDBRANCH  11  12
ENDBRANCH   8  11
ENDBRANCH   3   5
BRANCH   1  19
ATOM     19  C   UNL     1      -0.677  -4.732  -1.458  0.00  0.00    +0.098 C 
BRANCH  19  20
ATOM     20  C   UNL     1       0.292  -3.548  -1.461  0.00  0.00    +0.031 C 
BRANCH  20  21
ATOM     21  C   UNL     1       0.637  -3.167  -0.020  0.00  0.00    +0.129 C 
BRANCH  21  28
ATOM     22  C   UNL     1      -0.019   1.368   0.034  0.00  0.00    +0.002 A 
ATOM     23  C   UNL     1       1.165   2.083   0.023  0.00  0.00    +0.004 A 
ATOM     24  C   UNL     1       2.378   1.422  -0.001  0.00  0.00    +0.048 A 
ATOM     25  C   UNL     1       2.411   0.037  -0.015  0.00  0.00    +0.157 A 
ATOM     26  C   UNL     1       1.216  -0.683  -0.005  0.00  0.00    +0.090 A 
ATOM     27  C   UNL     1       0.003  -0.013   0.020  0.00  0.00    +0.030 A 
ATOM     28  N   UNL     1       1.564  -2.033  -0.023  0.00  0.00    -0.274 N 
ATOM     29  C   UNL     1       2.910  -2.104  -0.044  0.00  0.00    +0.421 A 
ATOM     30  O   UNL     1       3.559  -3.133  -0.064  0.00  0.00    -0.223 OA
ATOM     31  O   UNL     1       3.423  -0.864  -0.039  0.00  0.00    -0.407 OA
ENDBRANCH  21  28
ENDBRANCH  20  21
ENDBRANCH  19  20
ENDBRANCH   1  19
TORSDOF 7
