REMARK  Name = ZINC39544005
REMARK  7 active torsions:
REMARK  status: ('A' for Active; 'I' for Inactive)
REMARK    1  A    between atoms: C_1  and  C_2
REMARK    2  A    between atoms: C_2  and  N_3
REMARK    3  A    between atoms: C_4  and  C_6
REMARK    4  A    between atoms: C_9  and  S_20
REMARK    5  A    between atoms: S_20  and  C_23
REMARK    6  A    between atoms: C_23  and  C_24
REMARK    7  A    between atoms: C_23  and  C_25
REMARK                            x       y       z     vdW  Elec       q    Type
REMARK                         _______ _______ _______ _____ _____    ______ ____
ROOT
ATOM      1  C   UNL     1       3.126  -0.685  -2.349  0.00  0.00    +0.151 C 
ATOM      2  C   UNL     1       2.466   0.039  -3.538  0.00  0.00    +0.088 C 
ATOM      3  C   UNL     1       3.624   0.681  -4.267  0.00  0.00    +0.102 C 
ATOM      4  C   UNL     1       4.741   0.392  -3.650  0.00  0.00    +0.096 C 
ATOM      5  N   UNL     1       6.025   0.841  -4.010  0.00  0.00    -0.302 N 
ATOM      6  C   UNL     1       6.876   1.127  -2.928  0.00  0.00    +0.037 A 
ATOM      7  C   UNL     1       8.125   1.684  -3.162  0.00  0.00    +0.023 A 
ATOM      8  C   UNL     1       8.965   1.956  -2.099  0.00  0.00    +0.002 A 
ATOM      9  C   UNL     1       8.557   1.671  -0.809  0.00  0.00    +0.000 A 
ATOM     10  C   UNL     1       7.312   1.119  -0.576  0.00  0.00    +0.007 A 
ATOM     11  C   UNL     1       6.460   0.847  -1.634  0.00  0.00    -0.010 A 
ATOM     12  C   UNL     1       5.099   0.270  -1.347  0.00  0.00    +0.124 C 
ATOM     13  N   UNL     1       4.564  -0.426  -2.522  0.00  0.00    -0.369 NA
ATOM     14  H   UNL     1       6.302   0.944  -4.934  0.00  0.00    +0.153 HD
ATOM     15  H   UNL     1       5.053  -1.299  -2.653  0.00  0.00    +0.129 HD
ENDROOT
BRANCH   1  17
ATOM     16  N   UNL     1       2.225  -0.930  -0.058  0.00  0.00    -0.237 N 
ATOM     17  C   UNL     1       2.639  -0.110  -1.044  0.00  0.00    +0.244 C 
ATOM     18  O   UNL     1       2.619   1.092  -0.881  0.00  0.00    -0.273 OA
ATOM     19 BR   UNL     1       2.255  -2.763  -0.307  0.00  0.00    +0.039 Br
BRANCH  16  21
ATOM     20  C   UNL     1       0.352   0.216   1.018  0.00  0.00    +0.025 C 
ATOM     21  C   UNL     1       1.752  -0.371   1.210  0.00  0.00    +0.118 C 
ENDBRANCH  16  21
ENDBRANCH   1  17
BRANCH   3  22
ATOM     22  S   UNL     1       3.492   1.665  -5.723  0.00  0.00    -0.002 S 
ATOM     23  O   UNL     1       4.827   2.042  -6.029  0.00  0.00    -0.169 OA
ATOM     24  O   UNL     1       2.737   0.872  -6.629  0.00  0.00    -0.169 OA
BRANCH  22  25
ATOM     25  C   UNL     1       2.532   3.119  -5.217  0.00  0.00    +0.130 C 
ATOM     26  C   UNL     1       3.265   3.847  -4.089  0.00  0.00    +0.032 C 
ATOM     27  C   UNL     1       2.368   4.062  -6.411  0.00  0.00    +0.032 C 
ENDBRANCH  22  25
ENDBRANCH   3  22
TORSDOF 4
