REMARK  Name = ZINC05059285
REMARK  7 active torsions:
REMARK  status: ('A' for Active; 'I' for Inactive)
REMARK    1  A    between atoms: C_1  and  C_2
REMARK    2  A    between atoms: C_2  and  C_25
REMARK    3  A    between atoms: C_3  and  C_20
REMARK    4  A    between atoms: N_6  and  O_7
REMARK    5  A    between atoms: N_14  and  N_15
REMARK    6  A    between atoms: N_15  and  C_16
REMARK    7  A    between atoms: C_16  and  N_18
REMARK                            x       y       z     vdW  Elec       q    Type
REMARK                         _______ _______ _______ _____ _____    ______ ____
ROOT
ATOM      1  C   UNL     1      -0.445   6.156   1.304  0.00  0.00    +0.037 C 
ATOM      2  C   UNL     1      -0.969   5.632  -0.034  0.00  0.00    +0.091 C 
ATOM      3  C   UNL     1      -1.646   4.292   0.153  0.00  0.00    +0.124 C 
ATOM      4  N   UNL     1      -2.933   4.456   0.145  0.00  0.00    -0.135 N 
ATOM      5  C   UNL     1      -3.264   5.869  -0.044  0.00  0.00    +0.197 C 
ATOM      6  N   UNL     1      -2.041   6.519  -0.558  0.00  0.00    -0.145 NA
ATOM      7  C   UNL     1      -3.649   6.501   1.305  0.00  0.00    +0.056 C 
ATOM      8  C   UNL     1      -5.095   6.188   1.610  0.00  0.00    +0.004 C 
ATOM      9  C   UNL     1      -5.968   7.329   1.108  0.00  0.00    +0.000 C 
ATOM     10  C   UNL     1      -6.400   7.210  -0.294  0.00  0.00    +0.006 C 
ATOM     11  C   UNL     1      -5.169   7.253  -1.234  0.00  0.00    +0.056 C 
ATOM     12  C   UNL     1      -4.373   6.003  -1.070  0.00  0.00    +0.082 C 
ATOM     13  N   UNL     1      -4.637   5.003  -1.824  0.00  0.00    -0.186 NA
ATOM     14  O   UNL     1      -3.881   3.416   0.298  0.00  0.00    -0.166 OA
ATOM     15  C   UNL     1       0.171   5.517  -1.048  0.00  0.00    +0.037 C 
ENDROOT
BRANCH   3  16
ATOM     16  C   UNL     1      -0.956   3.008   0.322  0.00  0.00    +0.152 A 
ATOM     17  C   UNL     1      -1.553   1.793   0.490  0.00  0.00    +0.051 A 
ATOM     18  C   UNL     1      -0.519   0.848   0.614  0.00  0.00    +0.042 A 
ATOM     19  C   UNL     1       0.647   1.520   0.507  0.00  0.00    +0.196 A 
ATOM     20  O   UNL     1       0.380   2.823   0.331  0.00  0.00    -0.462 OA
ENDBRANCH   3  16
BRANCH   6  21
ATOM     21  O   UNL     1      -1.902   7.874  -0.025  0.00  0.00    -0.309 OA
ATOM     22  H   UNL     1      -1.114   8.340  -0.334  0.00  0.00    +0.237 HD
ENDBRANCH   6  21
BRANCH  13  23
ATOM     23  N   UNL     1      -5.734   5.051  -2.693  0.00  0.00    -0.219 N 
ATOM     24  H   UNL     1      -6.339   5.810  -2.670  0.00  0.00    +0.176 HD
BRANCH  23  25
ATOM     25  C   UNL     1      -5.950   4.044  -3.563  0.00  0.00    +0.147 C 
ATOM     26  S   UNL     1      -7.291   4.104  -4.626  0.00  0.00    -0.017 S 
BRANCH  25  27
ATOM     27  N   UNL     1      -5.111   2.990  -3.595  0.00  0.00    -0.339 N 
ATOM     28  H   UNL     1      -4.351   2.957  -2.993  0.00  0.00    +0.144 HD
ATOM     29  H   UNL     1      -5.266   2.265  -4.221  0.00  0.00    +0.144 HD
ENDBRANCH  25  27
ENDBRANCH  23  25
ENDBRANCH  13  23
TORSDOF 5
