REMARK  Name = ZINC41409883
REMARK  4 active torsions:
REMARK  status: ('A' for Active; 'I' for Inactive)
REMARK    1  A    between atoms: C_1  and  C_2
REMARK    2  A    between atoms: C_4  and  C_21
REMARK    3  A    between atoms: C_8  and  C_17
REMARK    4  A    between atoms: C_17  and  C_18
REMARK                            x       y       z     vdW  Elec       q    Type
REMARK                         _______ _______ _______ _____ _____    ______ ____
ROOT
ATOM      1  C   UNL     1       0.419   1.627   0.292  0.00  0.00    +0.044 C 
ATOM      2  C   UNL     1       0.316   0.128   0.185  0.00  0.00    -0.050 A 
ATOM      3  C   UNL     1       0.313  -0.478  -1.058  0.00  0.00    +0.010 A 
ATOM      4  C   UNL     1       0.217  -1.851  -1.155  0.00  0.00    -0.008 A 
ATOM      5  C   UNL     1       0.123  -2.629  -0.006  0.00  0.00    +0.128 A 
ATOM      6  C   UNL     1       0.129  -2.021   1.237  0.00  0.00    -0.002 A 
ATOM      7  C   UNL     1       0.231  -0.642   1.328  0.00  0.00    +0.011 A 
ATOM      8  C   UNL     1       0.040  -2.825   2.509  0.00  0.00    +0.035 C 
ATOM      9  C   UNL     1      -0.503  -4.223   2.199  0.00  0.00    +0.056 C 
ATOM     10  C   UNL     1       0.269  -4.785   1.003  0.00  0.00    +0.111 C 
ATOM     11  O   UNL     1       0.023  -3.978  -0.143  0.00  0.00    -0.485 OA
ATOM     12  C   UNL     1      -0.171  -6.235   0.735  0.00  0.00    +0.048 C 
ATOM     13  C   UNL     1       1.136  -6.955   0.315  0.00  0.00    +0.004 C 
ATOM     14  C   UNL     1       2.197  -6.304   1.237  0.00  0.00    +0.004 C 
ATOM     15  C   UNL     1       1.770  -4.823   1.319  0.00  0.00    +0.048 C 
ATOM     16  C   UNL     1       0.212  -2.510  -2.511  0.00  0.00    +0.047 C 
ENDROOT
BRANCH   8  17
ATOM     17  C   UNL     1      -0.900  -2.122   3.491  0.00  0.00    +0.104 C 
BRANCH  17  18
ATOM     18  C   UNL     1      -0.876  -2.844   4.813  0.00  0.00    +0.211 C 
ATOM     19  O   UNL     1      -0.097  -3.755   4.993  0.00  0.00    -0.276 OA
ATOM     20  N   UNL     1      -1.721  -2.476   5.797  0.00  0.00    -0.329 N 
ATOM     21  H   UNL     1      -2.345  -1.747   5.653  0.00  0.00    +0.145 HD
ATOM     22  H   UNL     1      -1.706  -2.941   6.648  0.00  0.00    +0.145 HD
ENDBRANCH  17  18
ENDBRANCH   8  17
TORSDOF 2
