REMARK  Name = ZINC39215138
REMARK  2 active torsions:
REMARK  status: ('A' for Active; 'I' for Inactive)
REMARK    1  A    between atoms: C_4  and  C_7
REMARK    2  A    between atoms: C_11  and  C_13
REMARK                            x       y       z     vdW  Elec       q    Type
REMARK                         _______ _______ _______ _____ _____    ______ ____
ROOT
ATOM      1  C   UNL     1       3.379  -2.719   1.387  0.00  0.00    +0.178 C 
ATOM      2  N   UNL     1       1.906  -2.590   1.439  0.00  0.00    -0.298 N 
ATOM      3  C   UNL     1       1.218  -3.389   2.337  0.00  0.00    +0.177 C 
ATOM      4  N   UNL     1       1.576  -4.728   2.435  0.00  0.00    -0.284 N 
ATOM      5  C   UNL     1       3.019  -5.012   2.521  0.00  0.00    +0.254 C 
ATOM      6  N   UNL     1       3.667  -4.154   1.500  0.00  0.00    -0.275 N 
ATOM      7  C   UNL     1       4.480  -4.965   0.737  0.00  0.00    +0.055 A 
ATOM      8  C   UNL     1       5.406  -4.625  -0.246  0.00  0.00    +0.025 A 
ATOM      9  C   UNL     1       6.082  -5.663  -0.872  0.00  0.00    +0.002 A 
ATOM     10  C   UNL     1       5.853  -6.982  -0.541  0.00  0.00    +0.002 A 
ATOM     11  C   UNL     1       4.937  -7.339   0.440  0.00  0.00    +0.025 A 
ATOM     12  C   UNL     1       4.256  -6.309   1.081  0.00  0.00    +0.051 A 
ATOM     13  N   UNL     1       3.315  -6.392   2.127  0.00  0.00    -0.309 N 
ATOM     14  N   UNL     1       0.259  -2.898   3.071  0.00  0.00    -0.273 NA
ATOM     15  H   UNL     1       1.437  -1.966   0.863  0.00  0.00    +0.150 HD
ATOM     16  H   UNL     1       2.935  -7.197   2.515  0.00  0.00    +0.149 HD
ATOM     17  H   UNL     1       0.019  -1.961   2.992  0.00  0.00    +0.189 HD
ATOM     18  H   UNL     1       0.913  -5.436   2.446  0.00  0.00    +0.152 HD
ENDROOT
BRANCH   1  23
ATOM     19  C   UNL     1       2.888  -1.266  -0.593  0.00  0.00    +0.082 C 
ATOM     20  N   UNL     1       3.458  -0.096  -0.674  0.00  0.00    -0.153 NA
ATOM     21  N   UNL     1       4.750  -0.104  -0.160  0.00  0.00    -0.161 NA
ATOM     22  C   UNL     1       5.099  -1.268   0.284  0.00  0.00    +0.121 C 
ATOM     23  C   UNL     1       3.908  -2.178   0.057  0.00  0.00    +0.121 C 
BRANCH  19  27
ATOM     24  C   UNL     1      -1.023  -2.299  -1.871  0.00  0.00    +0.000 A 
ATOM     25  C   UNL     1      -0.704  -0.973  -1.636  0.00  0.00    +0.001 A 
ATOM     26  C   UNL     1       0.566  -0.629  -1.220  0.00  0.00    +0.010 A 
ATOM     27  C   UNL     1       1.531  -1.624  -1.036  0.00  0.00    -0.001 A 
ATOM     28  C   UNL     1       1.200  -2.962  -1.275  0.00  0.00    +0.010 A 
ATOM     29  C   UNL     1      -0.074  -3.289  -1.691  0.00  0.00    +0.001 A 
ENDBRANCH  19  27
ENDBRANCH   1  23
TORSDOF 2
