REMARK  Name = ZINC02418047
REMARK  6 active torsions:
REMARK  status: ('A' for Active; 'I' for Inactive)
REMARK    1  A    between atoms: C_1  and  C_2
REMARK    2  A    between atoms: C_2  and  C_3
REMARK    3  A    between atoms: C_3  and  C_5
REMARK    4  A    between atoms: C_3  and  N_6
REMARK    5  A    between atoms: C_23  and  C_25
REMARK    6  A    between atoms: C_23  and  C_26
REMARK                            x       y       z     vdW  Elec       q    Type
REMARK                         _______ _______ _______ _____ _____    ______ ____
ROOT
ATOM      1  N   UNL     1       3.926   5.999   0.003  0.00  0.00    -0.326 N 
ATOM      2  C   UNL     1       4.228   4.646  -0.011  0.00  0.00    +0.137 A 
ATOM      3  C   UNL     1       3.220   3.692  -0.007  0.00  0.00    +0.080 A 
ATOM      4  C   UNL     1       3.523   2.325  -0.022  0.00  0.00    +0.093 A 
ATOM      5  C   UNL     1       2.368   1.409  -0.016  0.00  0.00    +0.035 A 
ATOM      6  C   UNL     1       2.390  -0.008  -0.026  0.00  0.00    -0.024 A 
ATOM      7  C   UNL     1       1.218  -0.697  -0.015  0.00  0.00    +0.020 A 
ATOM      8  C   UNL     1       0.002  -0.004   0.002  0.00  0.00    +0.105 A 
ATOM      9  C   UNL     1       1.101   2.017   0.002  0.00  0.00    +0.089 A 
ATOM     10  S   UNL     1       1.450   3.758   0.012  0.00  0.00    -0.066 S 
ATOM     11  N   UNL     1      -1.193  -0.710   0.011  0.00  0.00    -0.316 N 
ATOM     12  C   UNL     1      -1.314  -1.536   1.240  0.00  0.00    +0.106 C 
ATOM     13  C   UNL     1      -2.837  -1.803   1.339  0.00  0.00    +0.020 C 
ATOM     14  C   UNL     1      -3.454  -0.468   0.865  0.00  0.00    +0.020 C 
ATOM     15  C   UNL     1      -2.352   0.210   0.029  0.00  0.00    +0.106 C 
ATOM     16  C   UNL     1       1.191  -2.204  -0.016  0.00  0.00    +0.199 C 
ATOM     17  O   UNL     1       2.464  -2.720  -0.402  0.00  0.00    -0.369 OA
ATOM     18  C   UNL     1       3.549  -2.169   0.353  0.00  0.00    +0.068 C 
ATOM     19  C   UNL     1       3.724  -0.704  -0.052  0.00  0.00    +0.070 C 
ATOM     20  C   UNL     1       3.234  -2.257   1.847  0.00  0.00    +0.041 C 
ATOM     21  C   UNL     1       4.833  -2.944   0.050  0.00  0.00    +0.041 C 
ATOM     22  N   UNL     1       4.838   2.008  -0.039  0.00  0.00    -0.234 NA
ATOM     23  C   UNL     1       5.762   2.935  -0.043  0.00  0.00    +0.224 A 
ATOM     24  N   UNL     1       5.494   4.228  -0.030  0.00  0.00    -0.220 NA
ATOM     25  H   UNL     1       3.001   6.289   0.014  0.00  0.00    +0.148 HD
ATOM     26  N   UNL     1      -0.083   1.356   0.010  0.00  0.00    -0.337 N 
ATOM     27  H   UNL     1      -0.984   1.848   0.021  0.00  0.00    +0.168 HD
ENDROOT
BRANCH   1  28
ATOM     28  C   UNL     1       5.005   6.990  -0.001  0.00  0.00    +0.068 C 
ATOM     29  C   UNL     1       5.481   7.231   1.433  0.00  0.00    +0.028 C 
BRANCH  28  31
ATOM     30  C   UNL     1       4.131   8.089  -2.068  0.00  0.00    +0.005 C 
ATOM     31  C   UNL     1       4.490   8.302  -0.596  0.00  0.00    +0.018 C 
ENDBRANCH  28  31
ENDBRANCH   1  28
TORSDOF 2
