REMARK  Name = ZINC29687573
REMARK  10 active torsions:
REMARK  status: ('A' for Active; 'I' for Inactive)
REMARK    1  A    between atoms: C_1  and  C_2
REMARK    2  A    between atoms: C_2  and  C_4
REMARK    3  A    between atoms: C_2  and  N_11
REMARK    4  A    between atoms: N_14  and  C_17
REMARK    5  A    between atoms: C_17  and  C_18
REMARK    6  A    between atoms: N_20  and  C_21
REMARK    7  A    between atoms: N_20  and  C_22
REMARK    8  A    between atoms: C_27  and  C_28
REMARK    9  A    between atoms: N_30  and  C_31
REMARK   10  A    between atoms: C_31  and  C_32
REMARK                            x       y       z     vdW  Elec       q    Type
REMARK                         _______ _______ _______ _____ _____    ______ ____
ROOT
ATOM      1  C   UNL     1      -0.540   1.807   3.628  0.00  0.00    +0.203 C 
ATOM      2  O   UNL     1      -1.402   2.651   3.501  0.00  0.00    -0.277 OA
ATOM      3  N   UNL     1      -0.011   1.564   4.843  0.00  0.00    -0.275 N 
ATOM      4  C   UNL     1       1.030   0.544   4.998  0.00  0.00    +0.138 C 
ENDROOT
BRANCH   3   5
ATOM      5  C   UNL     1      -0.452   2.281   5.952  0.00  0.00    +0.048 A 
ATOM      6  C   UNL     1      -1.520   1.814   6.706  0.00  0.00    +0.024 A 
ATOM      7  C   UNL     1      -1.953   2.523   7.808  0.00  0.00    +0.002 A 
ATOM      8  C   UNL     1      -1.334   3.711   8.164  0.00  0.00    +0.001 A 
ATOM      9  C   UNL     1      -0.276   4.194   7.425  0.00  0.00    +0.015 A 
ATOM     10  C   UNL     1       0.176   3.483   6.310  0.00  0.00    +0.058 A 
BRANCH  10  11
ATOM     11  C   UNL     1       1.308   3.994   5.514  0.00  0.00    +0.246 C 
ATOM     12  O   UNL     1       1.699   3.373   4.544  0.00  0.00    -0.270 OA
ATOM     13  N   UNL     1       1.909   5.150   5.861  0.00  0.00    -0.304 N 
ATOM     14  H   UNL     1       1.556   5.712   6.739  0.00  0.00    +0.149 HD
BRANCH  13  15
ATOM     15  C   UNL     1       3.033   5.657   5.071  0.00  0.00    +0.179 C 
BRANCH  15  16
ATOM     16  C   UNL     1       3.521   6.954   5.665  0.00  0.00    +0.122 A 
ATOM     17  C   UNL     1       4.471   7.078   6.609  0.00  0.00    +0.046 A 
ATOM     18  C   UNL     1       4.611   8.460   6.870  0.00  0.00    +0.041 A 
ATOM     19  C   UNL     1       3.738   9.098   6.069  0.00  0.00    +0.195 A 
ATOM     20  O   UNL     1       3.084   8.181   5.338  0.00  0.00    -0.466 OA
ENDBRANCH  15  16
ENDBRANCH  13  15
ENDBRANCH  10  11
ENDBRANCH   3   5
BRANCH   1  21
ATOM     21  C   UNL     1      -0.062   1.031   2.429  0.00  0.00    +0.019 C 
BRANCH  21  25
ATOM     22  N   UNL     1      -2.535   0.809  -0.990  0.00  0.00    -0.299 NA
ATOM     23  C   UNL     1      -3.115   1.356   0.245  0.00  0.00    +0.066 C 
ATOM     24  C   UNL     1      -2.271   0.911   1.442  0.00  0.00    -0.063 C 
ATOM     25  N   UNL     1      -0.888   1.374   1.263  0.00  0.00    +0.387 N 
ATOM     26  C   UNL     1      -0.309   0.827   0.028  0.00  0.00    -0.063 C 
ATOM     27  C   UNL     1      -1.152   1.272  -1.169  0.00  0.00    +0.066 C 
ATOM     28  H   UNL     1      -0.905   2.470   1.173  0.00  0.00    -0.081 HD
BRANCH  22  30
ATOM     29  C   UNL     1      -4.765   0.573  -1.974  0.00  0.00    +0.029 C 
ATOM     30  C   UNL     1      -3.361   1.152  -2.155  0.00  0.00    +0.085 C 
BRANCH  30  31
ATOM     31  C   UNL     1      -2.737   0.575  -3.400  0.00  0.00    -0.012 A 
ATOM     32  C   UNL     1      -1.907  -0.527  -3.310  0.00  0.00    +0.006 A 
ATOM     33  C   UNL     1      -1.338  -1.058  -4.452  0.00  0.00    +0.000 A 
ATOM     34  C   UNL     1      -1.591  -0.483  -5.684  0.00  0.00    +0.001 A 
ATOM     35  C   UNL     1      -2.416   0.622  -5.774  0.00  0.00    +0.020 A 
ATOM     36  C   UNL     1      -2.990   1.152  -4.632  0.00  0.00    +0.046 A 
ATOM     37 CL   UNL     1      -4.026   2.540  -4.744  0.00  0.00    -0.083 Cl
ENDBRANCH  30  31
ENDBRANCH  22  30
ENDBRANCH  21  25
ENDBRANCH   1  21
TORSDOF 8
