REMARK  Name = ZINC19831995
REMARK  12 active torsions:
REMARK  status: ('A' for Active; 'I' for Inactive)
REMARK    1  A    between atoms: C_1  and  C_2
REMARK    2  A    between atoms: C_2  and  C_3
REMARK    3  A    between atoms: C_3  and  C_4
REMARK    4  A    between atoms: C_4  and  C_5
REMARK    5  A    between atoms: C_5  and  S_6
REMARK    6  A    between atoms: S_6  and  C_7
REMARK    7  A    between atoms: C_20  and  C_23
REMARK    8  A    between atoms: C_25  and  N_33
REMARK    9  A    between atoms: C_26  and  O_32
REMARK   10  A    between atoms: C_27  and  O_29
REMARK   11  A    between atoms: O_29  and  C_30
REMARK   12  A    between atoms: C_30  and  C_31
REMARK                            x       y       z     vdW  Elec       q    Type
REMARK                         _______ _______ _______ _____ _____    ______ ____
ROOT
ATOM      1  C   UNL     1       0.908   6.321   0.059  0.00  0.00    +0.212 A 
ATOM      2  N   UNL     1       0.122   5.667  -0.791  0.00  0.00    -0.184 NA
ATOM      3  C   UNL     1       0.222   4.353  -0.882  0.00  0.00    +0.248 A 
ATOM      4  C   UNL     1       1.161   3.684  -0.066  0.00  0.00    +0.156 A 
ATOM      5  N   UNL     1       1.917   4.394   0.757  0.00  0.00    -0.141 NA
ATOM      6  N   UNL     1       1.789   5.675   0.813  0.00  0.00    -0.122 NA
ATOM      7  C   UNL     1       1.281   2.213  -0.146  0.00  0.00    +0.028 A 
ATOM      8  C   UNL     1       2.518   1.589  -0.249  0.00  0.00    +0.012 A 
ATOM      9  C   UNL     1       2.589   0.210  -0.296  0.00  0.00    +0.001 A 
ATOM     10  C   UNL     1       1.436  -0.554  -0.242  0.00  0.00    +0.002 A 
ATOM     11  C   UNL     1       0.197   0.055  -0.145  0.00  0.00    +0.024 A 
ATOM     12  C   UNL     1       0.110   1.434  -0.101  0.00  0.00    +0.039 A 
ATOM     13  N   UNL     1      -1.127   2.084  -0.030  0.00  0.00    -0.305 N 
ATOM     14  C   UNL     1      -1.588   2.847  -1.186  0.00  0.00    +0.294 C 
ATOM     15  O   UNL     1      -0.548   3.644  -1.742  0.00  0.00    -0.449 OA
ATOM     16  H   UNL     1      -1.748   2.028   0.876  0.00  0.00    +0.150 HD
ENDROOT
BRANCH  14  17
ATOM     17  C   UNL     1      -2.090   1.891  -2.237  0.00  0.00    +0.017 A 
ATOM     18  C   UNL     1      -2.768   0.747  -1.862  0.00  0.00    +0.045 A 
ATOM     19  C   UNL     1      -3.231  -0.133  -2.822  0.00  0.00    +0.171 A 
ATOM     20  C   UNL     1      -3.015   0.131  -4.165  0.00  0.00    +0.189 A 
ATOM     21  C   UNL     1      -2.332   1.283  -4.543  0.00  0.00    +0.164 A 
ATOM     22  C   UNL     1      -1.876   2.164  -3.576  0.00  0.00    +0.058 A 
BRANCH  19  23
ATOM     23  N   UNL     1      -3.958  -1.357  -2.417  0.00  0.00    +0.060 N 
ATOM     24  O   UNL     1      -4.149  -1.589  -1.236  0.00  0.00    -0.126 OA
ATOM     25  O   UNL     1      -4.366  -2.131  -3.263  0.00  0.00    -0.126 OA
ENDBRANCH  19  23
BRANCH  20  26
ATOM     26  O   UNL     1      -3.469  -0.733  -5.112  0.00  0.00    -0.502 OA
ATOM     27  H   UNL     1      -3.297  -0.522  -6.178  0.00  0.00    +0.292 HD
ENDBRANCH  20  26
BRANCH  21  28
ATOM     28  O   UNL     1      -2.116   1.546  -5.860  0.00  0.00    -0.488 OA
BRANCH  28  29
ATOM     29  C   UNL     1      -1.408   2.747  -6.174  0.00  0.00    +0.226 C 
ATOM     30  C   UNL     1      -1.263   2.872  -7.692  0.00  0.00    +0.048 C 
ENDBRANCH  28  29
ENDBRANCH  21  28
ENDBRANCH  14  17
BRANCH   1  31
ATOM     31  S   UNL     1       0.780   8.074   0.186  0.00  0.00    -0.084 S 
BRANCH  31  32
ATOM     32  C   UNL     1       2.042   8.391   1.445  0.00  0.00    +0.077 C 
BRANCH  32  33
ATOM     33  C   UNL     1       2.113   9.893   1.728  0.00  0.00    +0.011 C 
BRANCH  33  34
ATOM     34  C   UNL     1       3.180  10.162   2.791  0.00  0.00    +0.001 C 
BRANCH  34  36
ATOM     35  C   UNL     1       4.318  11.932   4.138  0.00  0.00    +0.004 C 
ATOM     36  C   UNL     1       3.251  11.663   3.075  0.00  0.00    -0.003 C 
ENDBRANCH  34  36
ENDBRANCH  33  34
ENDBRANCH  32  33
ENDBRANCH  31  32
ENDBRANCH   1  31
TORSDOF 10
