REMARK  Name = ZINC07541022
REMARK  11 active torsions:
REMARK  status: ('A' for Active; 'I' for Inactive)
REMARK    1  A    between atoms: C_1  and  C_2
REMARK    2  A    between atoms: C_2  and  C_4
REMARK    3  A    between atoms: C_2  and  O_29
REMARK    4  A    between atoms: C_7  and  C_10
REMARK    5  A    between atoms: C_13  and  C_15
REMARK    6  A    between atoms: C_15  and  N_50
REMARK    7  A    between atoms: C_16  and  C_17
REMARK    8  A    between atoms: C_16  and  N_50
REMARK    9  A    between atoms: C_17  and  N_18
REMARK   10  A    between atoms: N_18  and  C_19
REMARK   11  A    between atoms: C_22  and  N_26
REMARK                            x       y       z     vdW  Elec       q    Type
REMARK                         _______ _______ _______ _____ _____    ______ ____
ROOT
ATOM      1  N   UNL     1       6.555   4.156   1.357  0.00  0.00    +0.385 N 
ATOM      2  H   UNL     1       6.114   3.363   1.837  0.00  0.00    -0.085 HD
ATOM      3  H   UNL     1       6.313   5.027   1.843  0.00  0.00    -0.085 HD
ENDROOT
BRANCH   1   4
ATOM      4  C   UNL     1       6.062   4.221  -0.032  0.00  0.00    -0.007 C 
BRANCH   4   8
ATOM      5  C   UNL     1       2.420   3.937   0.001  0.00  0.00    +0.135 A 
ATOM      6  C   UNL     1       2.536   5.292   0.007  0.00  0.00    +0.050 A 
ATOM      7  C   UNL     1       3.916   5.580  -0.004  0.00  0.00    +0.043 A 
ATOM      8  C   UNL     1       4.566   4.400  -0.017  0.00  0.00    +0.089 A 
ATOM      9  O   UNL     1       3.659   3.409  -0.008  0.00  0.00    -0.462 OA
BRANCH   5  13
ATOM     10  C   UNL     1      -1.221   1.750   0.017  0.00  0.00    -0.019 A 
ATOM     11  C   UNL     1      -0.013   1.076   0.008  0.00  0.00    +0.007 A 
ATOM     12  C   UNL     1       1.173   1.780   0.000  0.00  0.00    +0.012 A 
ATOM     13  C   UNL     1       1.153   3.176   0.008  0.00  0.00    +0.017 A 
ATOM     14  C   UNL     1      -0.070   3.850   0.023  0.00  0.00    +0.012 A 
ATOM     15  C   UNL     1      -1.249   3.133   0.031  0.00  0.00    +0.007 A 
BRANCH  10  17
ATOM     16  C   UNL     1      -3.072   0.918   1.442  0.00  0.00    +0.043 C 
ATOM     17  C   UNL     1      -2.513   0.974   0.019  0.00  0.00    +0.141 C 
BRANCH  17  18
ATOM     18  O   UNL     1      -3.457   1.618  -0.839  0.00  0.00    -0.387 OA
ATOM     19  H   UNL     1      -4.313   1.171  -0.886  0.00  0.00    +0.210 HD
ENDBRANCH  17  18
ENDBRANCH  10  17
ENDBRANCH   5  13
ENDBRANCH   4   8
ENDBRANCH   1   4
BRANCH   1  20
ATOM     20  C   UNL     1       8.020   3.981   1.373  0.00  0.00    -0.063 C 
BRANCH  20  21
ATOM     21  C   UNL     1       8.501   3.917   2.824  0.00  0.00    +0.082 C 
BRANCH  21  22
ATOM     22  N   UNL     1       9.956   3.743   2.848  0.00  0.00    -0.345 N 
ATOM     23  H   UNL     1      10.452   3.687   2.016  0.00  0.00    +0.146 HD
BRANCH  22  24
ATOM     24  C   UNL     1      10.629   3.658   4.070  0.00  0.00    +0.046 A 
ATOM     25  C   UNL     1       9.921   3.738   5.262  0.00  0.00    +0.026 A 
ATOM     26  C   UNL     1      10.589   3.653   6.467  0.00  0.00    +0.034 A 
ATOM     27  C   UNL     1      11.962   3.488   6.489  0.00  0.00    +0.128 A 
ATOM     28  C   UNL     1      12.671   3.408   5.305  0.00  0.00    +0.054 A 
ATOM     29  C   UNL     1      12.008   3.487   4.095  0.00  0.00    +0.064 A 
ATOM     30 CL   UNL     1      12.898   3.378   2.608  0.00  0.00    -0.082 Cl
BRANCH  27  31
ATOM     31  N   UNL     1      12.674   3.397   7.784  0.00  0.00    +0.056 N 
ATOM     32  O   UNL     1      12.051   3.467   8.828  0.00  0.00    -0.126 OA
ATOM     33  O   UNL     1      13.883   3.253   7.805  0.00  0.00    -0.126 OA
ENDBRANCH  27  31
ENDBRANCH  22  24
ENDBRANCH  21  22
ENDBRANCH  20  21
ENDBRANCH   1  20
TORSDOF 10
