REMARK  Name = ZINC36485094
REMARK  14 active torsions:
REMARK  status: ('A' for Active; 'I' for Inactive)
REMARK    1  A    between atoms: C_1  and  C_2
REMARK    2  A    between atoms: C_2  and  C_3
REMARK    3  A    between atoms: C_3  and  C_4
REMARK    4  A    between atoms: C_5  and  C_6
REMARK    5  A    between atoms: C_6  and  C_8
REMARK    6  A    between atoms: C_6  and  N_15
REMARK    7  A    between atoms: N_10  and  C_11
REMARK    8  A    between atoms: C_11  and  C_12
REMARK    9  A    between atoms: C_11  and  C_13
REMARK   10  A    between atoms: C_11  and  C_14
REMARK   11  A    between atoms: N_15  and  C_16
REMARK   12  A    between atoms: C_23  and  C_25
REMARK   13  A    between atoms: C_29  and  O_32
REMARK   14  A    between atoms: C_30  and  O_31
REMARK                            x       y       z     vdW  Elec       q    Type
REMARK                         _______ _______ _______ _____ _____    ______ ____
ROOT
ATOM      1  N   UNL     1       0.842  -5.106  -3.393  0.00  0.00    -0.252 N 
ATOM      2  C   UNL     1       2.102  -5.524  -3.160  0.00  0.00    +0.255 C 
ATOM      3  O   UNL     1       2.592  -5.390  -2.055  0.00  0.00    -0.269 OA
ENDROOT
BRANCH   1   4
ATOM      4  C   UNL     1       0.316  -5.160  -4.688  0.00  0.00    +0.039 A 
ATOM      5  C   UNL     1      -0.057  -3.990  -5.337  0.00  0.00    +0.023 A 
ATOM      6  C   UNL     1      -0.576  -4.045  -6.615  0.00  0.00    +0.003 A 
ATOM      7  C   UNL     1      -0.725  -5.265  -7.250  0.00  0.00    +0.020 A 
ATOM      8  C   UNL     1      -0.355  -6.433  -6.607  0.00  0.00    +0.043 A 
ATOM      9  C   UNL     1       0.171  -6.383  -5.330  0.00  0.00    +0.043 A 
ATOM     10 CL   UNL     1      -0.544  -7.961  -7.408  0.00  0.00    -0.083 Cl
ENDBRANCH   1   4
BRANCH   2  11
ATOM     11  C   UNL     1       2.887  -6.143  -4.245  0.00  0.00    +0.082 A 
ATOM     12  C   UNL     1       2.687  -5.746  -5.571  0.00  0.00    +0.017 A 
ATOM     13  C   UNL     1       3.422  -6.327  -6.581  0.00  0.00    +0.005 A 
ATOM     14  C   UNL     1       4.360  -7.304  -6.292  0.00  0.00    +0.049 A 
ATOM     15  C   UNL     1       4.569  -7.708  -4.984  0.00  0.00    +0.159 A 
ATOM     16  C   UNL     1       3.839  -7.126  -3.952  0.00  0.00    +0.171 A 
BRANCH  16  17
ATOM     17  O   UNL     1       4.045  -7.515  -2.668  0.00  0.00    -0.503 OA
ATOM     18  H   UNL     1       3.487  -8.252  -2.386  0.00  0.00    +0.292 HD
ENDBRANCH  16  17
BRANCH  15  19
ATOM     19  O   UNL     1       5.491  -8.668  -4.708  0.00  0.00    -0.503 OA
ATOM     20  H   UNL     1       6.378  -8.324  -4.535  0.00  0.00    +0.292 HD
ENDBRANCH  15  19
ENDBRANCH   2  11
BRANCH   1  21
ATOM     21  C   UNL     1       0.023  -4.596  -2.291  0.00  0.00    +0.190 C 
BRANCH  21  22
ATOM     22  C   UNL     1      -1.171  -5.494  -2.095  0.00  0.00    +0.238 C 
ATOM     23  O   UNL     1      -1.323  -6.465  -2.806  0.00  0.00    -0.273 OA
ATOM     24  N   UNL     1      -2.070  -5.219  -1.129  0.00  0.00    -0.309 N 
ATOM     25  H   UNL     1      -1.948  -4.443  -0.560  0.00  0.00    +0.149 HD
BRANCH  24  26
ATOM     26  C   UNL     1      -3.231  -6.092  -0.938  0.00  0.00    +0.026 C 
ATOM     27  C   UNL     1      -2.755  -7.508  -0.608  0.00  0.00    +0.031 C 
ATOM     28  C   UNL     1      -4.086  -5.559   0.213  0.00  0.00    +0.031 C 
ATOM     29  C   UNL     1      -4.064  -6.120  -2.221  0.00  0.00    +0.031 C 
ENDBRANCH  24  26
ENDBRANCH  21  22
BRANCH  21  31
ATOM     30  C   UNL     1      -0.025  -2.186  -1.903  0.00  0.00    -0.029 C 
ATOM     31  C   UNL     1      -0.445  -3.201  -2.616  0.00  0.00    +0.001 C 
BRANCH  30  32
ATOM     32  C   UNL     1      -0.493  -0.791  -2.228  0.00  0.00    +0.027 C 
BRANCH  32  34
ATOM     33  C   UNL     1      -1.589   1.259  -1.312  0.00  0.00    +0.004 C 
ATOM     34  C   UNL     1      -1.113  -0.158  -0.981  0.00  0.00    +0.001 C 
ENDBRANCH  32  34
ENDBRANCH  30  32
ENDBRANCH  21  31
ENDBRANCH   1  21
TORSDOF 10
