REMARK  Name = ZINC63751013
REMARK  7 active torsions:
REMARK  status: ('A' for Active; 'I' for Inactive)
REMARK    1  A    between atoms: C_1  and  C_2
REMARK    2  A    between atoms: N_4  and  C_5
REMARK    3  A    between atoms: C_5  and  C_6
REMARK    4  A    between atoms: C_9  and  C_12
REMARK    5  A    between atoms: C_16  and  N_19
REMARK    6  A    between atoms: C_20  and  C_22
REMARK    7  A    between atoms: C_22  and  C_23
REMARK                            x       y       z     vdW  Elec       q    Type
REMARK                         _______ _______ _______ _____ _____    ______ ____
ROOT
ATOM      1  C   UNL     1      -6.557  -4.159   0.042  0.00  0.00    +0.096 C 
ATOM      2  C   UNL     1      -7.544  -2.974  -0.170  0.00  0.00    +0.095 C 
ATOM      3  S   UNL     1      -9.005  -3.938  -0.763  0.00  0.00    -0.121 S 
ATOM      4  C   UNL     1      -8.070  -5.299  -1.582  0.00  0.00    +0.202 C 
ATOM      5  N   UNL     1      -6.710  -5.157  -1.019  0.00  0.00    -0.282 NA
ATOM      6  H   UNL     1      -6.029  -5.016  -1.749  0.00  0.00    +0.125 HD
ENDROOT
BRANCH   1  10
ATOM      7  C   UNL     1      -2.550  -2.680   0.012  0.00  0.00    -0.030 A 
ATOM      8  C   UNL     1      -3.189  -2.921   1.214  0.00  0.00    +0.005 A 
ATOM      9  C   UNL     1      -4.486  -3.399   1.224  0.00  0.00    +0.005 A 
ATOM     10  C   UNL     1      -5.144  -3.637   0.032  0.00  0.00    -0.030 A 
ATOM     11  C   UNL     1      -4.505  -3.396  -1.170  0.00  0.00    +0.005 A 
ATOM     12  C   UNL     1      -3.210  -2.913  -1.180  0.00  0.00    +0.005 A 
BRANCH   7  13
ATOM     13  C   UNL     1      -1.136  -2.159   0.001  0.00  0.00    +0.139 C 
BRANCH  13  17
ATOM     14  C   UNL     1      -0.018   1.503   0.010  0.00  0.00    +0.109 C 
ATOM     15  C   UNL     1       0.002  -0.004   0.002  0.00  0.00    +0.210 C 
ATOM     16  O   UNL     1       1.060  -0.596  -0.011  0.00  0.00    -0.276 OA
ATOM     17  N   UNL     1      -1.156  -0.694   0.009  0.00  0.00    -0.311 N 
ATOM     18  H   UNL     1      -2.002  -0.220   0.020  0.00  0.00    +0.149 HD
ENDBRANCH  13  17
ENDBRANCH   7  13
ENDBRANCH   1  10
BRANCH   4  19
ATOM     19  N   UNL     1      -8.645  -6.602  -1.238  0.00  0.00    -0.291 N 
ATOM     20  C   UNL     1      -9.787  -7.010  -1.825  0.00  0.00    +0.219 C 
ATOM     21  O   UNL     1     -10.339  -6.299  -2.637  0.00  0.00    -0.275 OA
ATOM     22  H   UNL     1      -8.203  -7.170  -0.588  0.00  0.00    +0.151 HD
BRANCH  20  23
ATOM     23  C   UNL     1     -10.379  -8.350  -1.471  0.00  0.00    +0.129 C 
BRANCH  23  24
ATOM     24  C   UNL     1     -11.645  -8.565  -2.260  0.00  0.00    -0.033 C 
ATOM     25  C   UNL     1     -11.770  -9.229  -3.431  0.00  0.00    -0.001 A 
ATOM     26  C   UNL     1     -10.803  -9.923  -4.289  0.00  0.00    +0.010 A 
ATOM     27  C   UNL     1     -11.237 -10.507  -5.429  0.00  0.00    +0.001 A 
ATOM     28  C   UNL     1     -12.585 -10.466  -5.810  0.00  0.00    +0.002 A 
ATOM     29  C   UNL     1     -13.533  -9.848  -5.074  0.00  0.00    +0.026 A 
ATOM     30  C   UNL     1     -13.188  -9.200  -3.856  0.00  0.00    +0.043 A 
ATOM     31  N   UNL     1     -13.911  -8.544  -2.982  0.00  0.00    -0.380 N 
ATOM     32  C   UNL     1     -13.033  -8.086  -1.898  0.00  0.00    +0.145 C 
ATOM     33  H   UNL     1     -14.867  -8.389  -3.039  0.00  0.00    +0.160 HD
ENDBRANCH  23  24
ENDBRANCH  20  23
ENDBRANCH   4  19
TORSDOF 6
