REMARK  Name = ZINC40264073
REMARK  6 active torsions:
REMARK  status: ('A' for Active; 'I' for Inactive)
REMARK    1  A    between atoms: C_1  and  C_2
REMARK    2  A    between atoms: C_5  and  O_20
REMARK    3  A    between atoms: C_6  and  C_8
REMARK    4  A    between atoms: C_8  and  C_10
REMARK    5  A    between atoms: C_8  and  O_19
REMARK    6  A    between atoms: O_20  and  C_21
REMARK                            x       y       z     vdW  Elec       q    Type
REMARK                         _______ _______ _______ _____ _____    ______ ____
ROOT
ATOM      1  C   UNL     1       0.052  -2.841   2.493  0.00  0.00    +0.178 C 
ENDROOT
BRANCH   1   2
ATOM      2  C   UNL     1       1.474  -3.182   2.858  0.00  0.00    -0.011 A 
ATOM      3  C   UNL     1       2.250  -2.264   3.541  0.00  0.00    +0.010 A 
ATOM      4  C   UNL     1       3.555  -2.573   3.879  0.00  0.00    +0.050 A 
ATOM      5  C   UNL     1       4.088  -3.803   3.532  0.00  0.00    +0.166 A 
ATOM      6  C   UNL     1       3.307  -4.728   2.843  0.00  0.00    +0.167 A 
ATOM      7  C   UNL     1       1.998  -4.414   2.514  0.00  0.00    +0.056 A 
ATOM      8  O   UNL     1       4.052  -5.849   2.621  0.00  0.00    -0.453 OA
ATOM      9  C   UNL     1       5.420  -5.447   2.818  0.00  0.00    +0.466 C 
ATOM     10  O   UNL     1       5.323  -4.346   3.740  0.00  0.00    -0.453 OA
ENDBRANCH   1   2
BRANCH   1  16
ATOM     11  C   UNL     1      -0.018   1.503   0.010  0.00  0.00    +0.044 C 
ATOM     12  C   UNL     1       0.002  -0.004   0.002  0.00  0.00    -0.050 A 
ATOM     13  C   UNL     1       0.006  -0.688  -1.200  0.00  0.00    +0.007 A 
ATOM     14  C   UNL     1       0.024  -2.069  -1.210  0.00  0.00    +0.046 A 
ATOM     15  C   UNL     1       0.039  -2.770  -0.013  0.00  0.00    +0.126 A 
ATOM     16  C   UNL     1       0.036  -2.082   1.191  0.00  0.00    +0.027 A 
ATOM     17  C   UNL     1       0.023  -0.701   1.196  0.00  0.00    +0.013 A 
BRANCH  15  18
ATOM     18  O   UNL     1       0.057  -4.129  -0.021  0.00  0.00    -0.495 OA
ATOM     19  C   UNL     1       0.058  -4.771  -1.298  0.00  0.00    +0.277 C 
ENDBRANCH  15  18
ENDBRANCH   1  16
BRANCH   1  20
ATOM     20  O   UNL     1      -0.523  -2.033   3.522  0.00  0.00    -0.382 OA
ATOM     21  H   UNL     1      -0.059  -1.198   3.673  0.00  0.00    +0.211 HD
ENDBRANCH   1  20
TORSDOF 4
