REMARK  Name = ZINC63818158
REMARK  7 active torsions:
REMARK  status: ('A' for Active; 'I' for Inactive)
REMARK    1  A    between atoms: C_1  and  O_2
REMARK    2  A    between atoms: O_2  and  C_3
REMARK    3  A    between atoms: C_6  and  C_9
REMARK    4  A    between atoms: C_11  and  C_16
REMARK    5  A    between atoms: N_18  and  C_19
REMARK    6  A    between atoms: C_19  and  C_20
REMARK    7  A    between atoms: C_20  and  C_21
REMARK                            x       y       z     vdW  Elec       q    Type
REMARK                         _______ _______ _______ _____ _____    ______ ____
ROOT
ATOM      1  C   UNL     1       5.046  -2.175   4.692  0.00  0.00    +0.229 C 
ATOM      2  O   UNL     1       4.831  -1.928   5.860  0.00  0.00    -0.274 OA
ATOM      3  N   UNL     1       6.200  -1.777   4.121  0.00  0.00    -0.314 N 
ATOM      4  H   UNL     1       6.372  -1.975   3.187  0.00  0.00    +0.149 HD
ENDROOT
BRANCH   1   6
ATOM      5  C   UNL     1       2.587  -2.550   4.310  0.00  0.00    +0.123 C 
ATOM      6  C   UNL     1       4.023  -2.927   3.880  0.00  0.00    +0.171 C 
ATOM      7  S   UNL     1       4.061  -4.728   4.269  0.00  0.00    -0.051 S 
ATOM      8  N   UNL     1       2.620  -4.767   5.343  0.00  0.00    -0.199 NA
ATOM      9  N   UNL     1       1.798  -3.718   4.713  0.00  0.00    -0.238 NA
ATOM     10  H   UNL     1       2.159  -5.664   5.297  0.00  0.00    +0.154 HD
ATOM     11  H   UNL     1       1.035  -3.449   5.316  0.00  0.00    +0.142 HD
BRANCH   5  15
ATOM     12  C   UNL     1       0.626  -0.618   1.042  0.00  0.00    +0.120 A 
ATOM     13  C   UNL     1       1.202   0.138   2.051  0.00  0.00    +0.046 A 
ATOM     14  C   UNL     1       1.835  -0.488   3.107  0.00  0.00    +0.009 A 
ATOM     15  C   UNL     1       1.895  -1.869   3.158  0.00  0.00    -0.027 A 
ATOM     16  C   UNL     1       1.322  -2.625   2.152  0.00  0.00    +0.009 A 
ATOM     17  C   UNL     1       0.682  -2.003   1.098  0.00  0.00    +0.046 A 
BRANCH  12  19
ATOM     18  C   UNL     1      -0.017   1.425   0.010  0.00  0.00    +0.277 C 
ATOM     19  O   UNL     1       0.002  -0.004   0.002  0.00  0.00    -0.495 OA
ENDBRANCH  12  19
ENDBRANCH   5  15
ENDBRANCH   1   6
BRANCH   3  20
ATOM     20  C   UNL     1       7.194  -1.046   4.910  0.00  0.00    +0.108 C 
BRANCH  20  21
ATOM     21  C   UNL     1       8.402  -0.716   4.030  0.00  0.00    +0.052 C 
BRANCH  21  22
ATOM     22  C   UNL     1       9.424   0.036   4.842  0.00  0.00    -0.040 C 
ATOM     23  C   UNL     1      10.496  -0.484   5.483  0.00  0.00    +0.000 A 
ATOM     24  C   UNL     1      11.010  -1.853   5.610  0.00  0.00    +0.030 A 
ATOM     25  C   UNL     1      12.133  -2.067   6.335  0.00  0.00    +0.042 A 
ATOM     26  C   UNL     1      12.815  -1.016   6.966  0.00  0.00    +0.022 A 
ATOM     27  C   UNL     1      12.404   0.267   6.894  0.00  0.00    +0.027 A 
ATOM     28  C   UNL     1      11.235   0.607   6.158  0.00  0.00    +0.043 A 
ATOM     29  N   UNL     1      10.643   1.757   5.943  0.00  0.00    -0.380 N 
ATOM     30  C   UNL     1       9.464   1.526   5.101  0.00  0.00    +0.144 C 
ATOM     31 CL   UNL     1      12.744  -3.685   6.488  0.00  0.00    -0.084 Cl
ATOM     32  H   UNL     1      10.937   2.617   6.281  0.00  0.00    +0.160 HD
ENDBRANCH  21  22
ENDBRANCH  20  21
ENDBRANCH   3  20
TORSDOF 6
