REMARK  Name = ZINC01376221
REMARK  8 active torsions:
REMARK  status: ('A' for Active; 'I' for Inactive)
REMARK    1  A    between atoms: C_4  and  N_7
REMARK    2  A    between atoms: N_7  and  C_8
REMARK    3  A    between atoms: C_8  and  C_10
REMARK    4  A    between atoms: C_8  and  C_16
REMARK    5  A    between atoms: N_18  and  C_19
REMARK    6  A    between atoms: C_19  and  C_20
REMARK    7  A    between atoms: C_25  and  C_27
REMARK    8  A    between atoms: C_27  and  N_28
REMARK                            x       y       z     vdW  Elec       q    Type
REMARK                         _______ _______ _______ _____ _____    ______ ____
ROOT
ATOM      1  N   UNL     1       3.639  -0.665   0.522  0.00  0.00    -0.254 N 
ATOM      2  C   UNL     1       4.855  -0.086   0.555  0.00  0.00    +0.242 C 
ATOM      3  O   UNL     1       5.833  -0.710   0.199  0.00  0.00    -0.273 OA
ENDROOT
BRANCH   1   7
ATOM      4  C   UNL     1       0.251   1.557   1.494  0.00  0.00    +0.000 A 
ATOM      5  C   UNL     1       0.694   0.565   2.349  0.00  0.00    +0.002 A 
ATOM      6  C   UNL     1       1.817  -0.173   2.030  0.00  0.00    +0.023 A 
ATOM      7  C   UNL     1       2.500   0.081   0.848  0.00  0.00    +0.037 A 
ATOM      8  C   UNL     1       2.052   1.077  -0.009  0.00  0.00    +0.023 A 
ATOM      9  C   UNL     1       0.929   1.812   0.316  0.00  0.00    +0.002 A 
ENDBRANCH   1   7
BRANCH   1  10
ATOM     10  C   UNL     1       3.507  -2.074   0.145  0.00  0.00    +0.197 C 
BRANCH  10  11
ATOM     11  C   UNL     1       2.082  -2.518   0.348  0.00  0.00    -0.015 A 
ATOM     12  C   UNL     1       1.036  -1.853  -0.274  0.00  0.00    +0.025 A 
ATOM     13  C   UNL     1      -0.259  -2.289  -0.064  0.00  0.00    +0.111 A 
ATOM     14  N   UNL     1      -0.504  -3.322   0.717  0.00  0.00    -0.263 NA
ATOM     15  C   UNL     1       0.465  -3.978   1.325  0.00  0.00    +0.111 A 
ATOM     16  C   UNL     1       1.785  -3.604   1.157  0.00  0.00    +0.025 A 
ENDBRANCH  10  11
BRANCH  10  17
ATOM     17  C   UNL     1       3.885  -2.244  -1.304  0.00  0.00    +0.239 C 
ATOM     18  O   UNL     1       4.229  -1.282  -1.958  0.00  0.00    -0.273 OA
ATOM     19  N   UNL     1       3.839  -3.464  -1.874  0.00  0.00    -0.306 N 
ATOM     20  H   UNL     1       3.563  -4.234  -1.351  0.00  0.00    +0.149 HD
BRANCH  19  21
ATOM     21  C   UNL     1       4.206  -3.629  -3.283  0.00  0.00    +0.178 C 
BRANCH  21  22
ATOM     22  C   UNL     1       4.071  -5.079  -3.671  0.00  0.00    +0.122 A 
ATOM     23  C   UNL     1       2.965  -5.660  -4.169  0.00  0.00    +0.046 A 
ATOM     24  C   UNL     1       3.281  -7.021  -4.389  0.00  0.00    +0.041 A 
ATOM     25  C   UNL     1       4.561  -7.189  -4.012  0.00  0.00    +0.195 A 
ATOM     26  O   UNL     1       5.036  -6.009  -3.583  0.00  0.00    -0.466 OA
ENDBRANCH  21  22
ENDBRANCH  19  21
ENDBRANCH  10  17
ENDBRANCH   1  10
BRANCH   2  27
ATOM     27  C   UNL     1       5.002   1.335   1.034  0.00  0.00    +0.242 C 
BRANCH  27  28
ATOM     28  N   UNL     1       6.399   1.754   0.900  0.00  0.00    -0.235 N 
ATOM     29  C   UNL     1       7.391   1.620   1.842  0.00  0.00    +0.090 A 
ATOM     30  C   UNL     1       7.438   1.096   3.129  0.00  0.00    +0.029 A 
ATOM     31  C   UNL     1       8.613   1.111   3.827  0.00  0.00    +0.002 A 
ATOM     32  C   UNL     1       9.763   1.647   3.262  0.00  0.00    +0.002 A 
ATOM     33  C   UNL     1       9.744   2.167   2.001  0.00  0.00    +0.032 A 
ATOM     34  C   UNL     1       8.552   2.163   1.264  0.00  0.00    +0.113 A 
ATOM     35  N   UNL     1       8.231   2.594   0.028  0.00  0.00    -0.129 NA
ATOM     36  N   UNL     1       6.989   2.366  -0.216  0.00  0.00    -0.064 NA
ENDBRANCH  27  28
ENDBRANCH   2  27
TORSDOF 8
