REMARK  Name = ZINC39609703
REMARK  7 active torsions:
REMARK  status: ('A' for Active; 'I' for Inactive)
REMARK    1  A    between atoms: C_1  and  C_2
REMARK    2  A    between atoms: C_2  and  C_4
REMARK    3  A    between atoms: C_2  and  O_29
REMARK    4  A    between atoms: C_8  and  C_17
REMARK    5  A    between atoms: N_19  and  C_20
REMARK    6  A    between atoms: C_20  and  C_21
REMARK    7  A    between atoms: O_29  and  C_30
REMARK                            x       y       z     vdW  Elec       q    Type
REMARK                         _______ _______ _______ _____ _____    ______ ____
ROOT
ATOM      1  C   UNL     1      -1.338  -0.405   0.070  0.00  0.00    +0.256 C 
ATOM      2  O   UNL     1      -1.717  -0.847   1.134  0.00  0.00    -0.272 OA
ATOM      3  N   UNL     1      -2.232  -0.106  -0.893  0.00  0.00    -0.297 N 
ATOM      4  C   UNL     1      -1.963   0.432  -2.247  0.00  0.00    +0.121 C 
ATOM      5  C   UNL     1      -2.960  -0.309  -3.167  0.00  0.00    +0.100 C 
ATOM      6  C   UNL     1      -4.103  -0.746  -2.235  0.00  0.00    -0.004 C 
ATOM      7  C   UNL     1      -3.707  -0.246  -0.838  0.00  0.00    +0.115 C 
ATOM      8  C   UNL     1      -4.227  -2.267  -2.229  0.00  0.00    -0.010 C 
ATOM      9  C   UNL     1      -5.406  -2.674  -1.341  0.00  0.00    -0.082 C 
ATOM     10  N   UNL     1      -6.640  -2.064  -1.852  0.00  0.00    +0.379 N 
ATOM     11  C   UNL     1      -6.547  -0.601  -1.768  0.00  0.00    -0.082 C 
ATOM     12  C   UNL     1      -5.416  -0.106  -2.674  0.00  0.00    -0.010 C 
ATOM     13  H   UNL     1      -6.775  -2.336  -2.814  0.00  0.00    -0.086 HD
ATOM     14  H   UNL     1      -7.424  -2.382  -1.302  0.00  0.00    -0.086 HD
ENDROOT
BRANCH   5  15
ATOM     15  C   UNL     1      -3.477   0.618  -4.236  0.00  0.00    +0.218 C 
ATOM     16  O   UNL     1      -3.581   1.805  -4.011  0.00  0.00    -0.275 OA
ATOM     17  N   UNL     1      -3.823   0.129  -5.443  0.00  0.00    -0.311 N 
ATOM     18  H   UNL     1      -3.739  -0.821  -5.623  0.00  0.00    +0.149 HD
BRANCH  17  19
ATOM     19  C   UNL     1      -4.325   1.030  -6.483  0.00  0.00    +0.139 C 
BRANCH  19  20
ATOM     20  C   UNL     1      -4.638   0.239  -7.726  0.00  0.00    -0.029 A 
ATOM     21  C   UNL     1      -3.660   0.044  -8.685  0.00  0.00    +0.007 A 
ATOM     22  C   UNL     1      -3.946  -0.682  -9.826  0.00  0.00    +0.022 A 
ATOM     23  C   UNL     1      -5.209  -1.214 -10.010  0.00  0.00    +0.059 A 
ATOM     24  C   UNL     1      -6.188  -1.019  -9.050  0.00  0.00    +0.060 A 
ATOM     25  C   UNL     1      -5.899  -0.297  -7.905  0.00  0.00    +0.026 A 
ATOM     26 CL   UNL     1      -7.774  -1.686  -9.279  0.00  0.00    -0.082 Cl
ATOM     27 CL   UNL     1      -5.568  -2.125 -11.443  0.00  0.00    -0.082 Cl
ENDBRANCH  19  20
ENDBRANCH  17  19
ENDBRANCH   5  15
BRANCH   1  29
ATOM     28  C   UNL     1       0.410   1.304  -0.350  0.00  0.00    +0.062 C 
ATOM     29  C   UNL     1       0.134  -0.191  -0.176  0.00  0.00    +0.256 C 
BRANCH  29  30
ATOM     30  O   UNL     1       0.880  -0.687   0.937  0.00  0.00    -0.480 OA
BRANCH  30  31
ATOM     31  C   UNL     1       2.165  -1.061   0.702  0.00  0.00    +0.122 A 
ATOM     32  C   UNL     1       2.911  -1.657   1.708  0.00  0.00    +0.045 A 
ATOM     33  C   UNL     1       4.217  -2.036   1.466  0.00  0.00    +0.004 A 
ATOM     34  C   UNL     1       4.781  -1.822   0.222  0.00  0.00    +0.000 A 
ATOM     35  C   UNL     1       4.040  -1.228  -0.783  0.00  0.00    +0.004 A 
ATOM     36  C   UNL     1       2.731  -0.852  -0.548  0.00  0.00    +0.045 A 
ENDBRANCH  30  31
ENDBRANCH  29  30
ENDBRANCH   1  29
TORSDOF 6
