REMARK  Name = ZINC00326079
REMARK  5 active torsions:
REMARK  status: ('A' for Active; 'I' for Inactive)
REMARK    1  A    between atoms: C_4  and  C_7
REMARK    2  A    between atoms: C_7  and  C_9
REMARK    3  A    between atoms: C_7  and  N_47
REMARK    4  A    between atoms: N_11  and  N_12
REMARK    5  A    between atoms: C_13  and  C_14
REMARK                            x       y       z     vdW  Elec       q    Type
REMARK                         _______ _______ _______ _____ _____    ______ ____
ROOT
ATOM      1  C   UNL     1      -0.099   0.979   2.425  0.00  0.00    +0.052 C 
ENDROOT
BRANCH   1   7
ATOM      2  C   UNL     1      -0.013   1.086   0.008  0.00  0.00    -0.077 C 
ATOM      3  C   UNL     1      -0.752   1.593  -1.232  0.00  0.00    -0.019 C 
ATOM      4  C   UNL     1      -0.788   3.123  -1.209  0.00  0.00    -0.004 C 
ATOM      5  C   UNL     1      -1.465   3.591   0.082  0.00  0.00    -0.019 C 
ATOM      6  C   UNL     1      -0.705   3.026   1.284  0.00  0.00    -0.077 C 
ATOM      7  N   UNL     1      -0.728   1.550   1.216  0.00  0.00    +0.390 N 
ATOM      8  H   UNL     1      -1.704   1.234   1.167  0.00  0.00    -0.080 HD
ENDBRANCH   1   7
BRANCH   1  12
ATOM      9  C   UNL     1      -1.935   2.682   5.886  0.00  0.00    +0.000 A 
ATOM     10  C   UNL     1      -0.572   2.451   5.869  0.00  0.00    +0.000 A 
ATOM     11  C   UNL     1       0.022   1.900   4.749  0.00  0.00    +0.002 A 
ATOM     12  C   UNL     1      -0.747   1.579   3.646  0.00  0.00    -0.052 A 
ATOM     13  C   UNL     1      -2.109   1.815   3.661  0.00  0.00    +0.002 A 
ATOM     14  C   UNL     1      -2.704   2.361   4.782  0.00  0.00    +0.000 A 
ENDBRANCH   1  12
BRANCH   1  15
ATOM     15  C   UNL     1      -0.313  -0.513   2.425  0.00  0.00    +0.223 C 
ATOM     16  O   UNL     1      -1.187  -1.001   1.740  0.00  0.00    -0.276 OA
ATOM     17  N   UNL     1       0.467  -1.306   3.187  0.00  0.00    -0.208 N 
ATOM     18  H   UNL     1       1.165  -0.916   3.735  0.00  0.00    +0.177 HD
BRANCH  17  19
ATOM     19  N   UNL     1       0.268  -2.692   3.188  0.00  0.00    -0.188 NA
ATOM     20  C   UNL     1       1.018  -3.455   3.921  0.00  0.00    +0.138 C 
BRANCH  20  21
ATOM     21  C   UNL     1       0.809  -4.915   3.921  0.00  0.00    -0.005 A 
ATOM     22  C   UNL     1      -0.200  -5.479   3.137  0.00  0.00    +0.012 A 
ATOM     23  C   UNL     1      -0.389  -6.845   3.138  0.00  0.00    +0.039 A 
ATOM     24  C   UNL     1       0.415  -7.657   3.923  0.00  0.00    +0.123 A 
ATOM     25  C   UNL     1       1.415  -7.103   4.707  0.00  0.00    +0.039 A 
ATOM     26  C   UNL     1       1.616  -5.739   4.710  0.00  0.00    +0.012 A 
ATOM     27  F   UNL     1       0.223  -8.995   3.923  0.00  0.00    -0.205 F 
ENDBRANCH  20  21
ENDBRANCH  17  19
ENDBRANCH   1  15
TORSDOF 5
