REMARK  Name = ZINC13643908
REMARK  9 active torsions:
REMARK  status: ('A' for Active; 'I' for Inactive)
REMARK    1  A    between atoms: C_1  and  C_2
REMARK    2  A    between atoms: C_4  and  C_37
REMARK    3  A    between atoms: C_6  and  N_8
REMARK    4  A    between atoms: N_8  and  S_9
REMARK    5  A    between atoms: S_9  and  C_12
REMARK    6  A    between atoms: C_25  and  C_28
REMARK    7  A    between atoms: C_31  and  N_34
REMARK    8  A    between atoms: N_34  and  C_35
REMARK    9  A    between atoms: N_34  and  C_36
REMARK                            x       y       z     vdW  Elec       q    Type
REMARK                         _______ _______ _______ _____ _____    ______ ____
ROOT
ATOM      1  C   UNL     1      -1.410  -2.561   0.892  0.00  0.00    +0.109 A 
ATOM      2  C   UNL     1      -2.786  -2.557   1.027  0.00  0.00    +0.030 A 
ATOM      3  C   UNL     1      -3.420  -1.445   1.544  0.00  0.00    +0.025 A 
ATOM      4  C   UNL     1      -2.676  -0.336   1.925  0.00  0.00    +0.031 A 
ATOM      5  C   UNL     1      -1.295  -0.335   1.793  0.00  0.00    -0.018 A 
ATOM      6  C   UNL     1      -0.670  -1.460   1.272  0.00  0.00    +0.034 A 
ATOM      7  C   UNL     1      -0.453   0.834   2.195  0.00  0.00    +0.049 C 
ATOM      8  C   UNL     1       0.033   1.606   0.992  0.00  0.00    -0.023 C 
ATOM      9  C   UNL     1       0.061   2.889   1.258  0.00  0.00    -0.030 C 
ATOM     10  C   UNL     1      -0.400   3.147   2.679  0.00  0.00    +0.033 C 
ATOM     11  C   UNL     1      -1.229   1.875   3.025  0.00  0.00    +0.029 C 
ATOM     12  C   UNL     1      -2.630   2.072   2.438  0.00  0.00    +0.105 C 
ATOM     13  N   UNL     1      -3.333   0.785   2.446  0.00  0.00    -0.336 N 
ATOM     14  H   UNL     1      -4.233   0.713   2.800  0.00  0.00    +0.147 HD
ENDROOT
BRANCH  12  15
ATOM     15  C   UNL     1      -3.392   3.069   3.272  0.00  0.00    -0.027 A 
ATOM     16  C   UNL     1      -3.978   2.670   4.459  0.00  0.00    +0.007 A 
ATOM     17  C   UNL     1      -4.673   3.582   5.229  0.00  0.00    +0.023 A 
ATOM     18  C   UNL     1      -4.792   4.899   4.803  0.00  0.00    +0.029 A 
ATOM     19  C   UNL     1      -4.207   5.295   3.607  0.00  0.00    +0.023 A 
ATOM     20  C   UNL     1      -3.509   4.379   2.845  0.00  0.00    +0.007 A 
BRANCH  18  21
ATOM     21  N   UNL     1      -5.498   5.823   5.576  0.00  0.00    -0.336 N 
ATOM     22  C   UNL     1      -5.623   7.212   5.126  0.00  0.00    +0.129 C 
ATOM     23  C   UNL     1      -6.115   5.404   6.837  0.00  0.00    +0.129 C 
ENDBRANCH  18  21
ENDBRANCH  12  15
BRANCH   1  24
ATOM     24  S   UNL     1      -0.597  -3.978   0.232  0.00  0.00    +0.072 S 
ATOM     25  O   UNL     1      -1.518  -4.599  -0.654  0.00  0.00    -0.150 OA
ATOM     26  O   UNL     1       0.691  -3.549  -0.187  0.00  0.00    -0.150 OA
BRANCH  24  27
ATOM     27  N   UNL     1      -0.359  -5.034   1.485  0.00  0.00    -0.216 N 
ATOM     28  H   UNL     1      -0.784  -5.906   1.471  0.00  0.00    +0.174 HD
BRANCH  27  34
ATOM     29  C   UNL     1       4.133  -4.288   3.332  0.00  0.00    +0.044 C 
ATOM     30  C   UNL     1       2.634  -4.299   3.485  0.00  0.00    -0.048 A 
ATOM     31  C   UNL     1       2.061  -3.949   4.694  0.00  0.00    +0.006 A 
ATOM     32  C   UNL     1       0.686  -3.958   4.839  0.00  0.00    -0.048 A 
ATOM     33  C   UNL     1      -0.120  -4.317   3.777  0.00  0.00    +0.028 A 
ATOM     34  C   UNL     1       0.453  -4.670   2.561  0.00  0.00    +0.049 A 
ATOM     35  C   UNL     1       1.835  -4.665   2.420  0.00  0.00    +0.028 A 
ATOM     36  C   UNL     1       0.066  -3.575   6.158  0.00  0.00    +0.044 C 
ENDBRANCH  27  34
ENDBRANCH  24  27
ENDBRANCH   1  24
TORSDOF 5
