REMARK  Name = ZINC52345138
REMARK  7 active torsions:
REMARK  status: ('A' for Active; 'I' for Inactive)
REMARK    1  A    between atoms: C_1  and  C_2
REMARK    2  A    between atoms: C_2  and  C_3
REMARK    3  A    between atoms: C_3  and  C_5
REMARK    4  A    between atoms: C_3  and  N_11
REMARK    5  A    between atoms: C_12  and  C_14
REMARK    6  A    between atoms: C_18  and  N_20
REMARK    7  A    between atoms: N_20  and  N_21
REMARK                            x       y       z     vdW  Elec       q    Type
REMARK                         _______ _______ _______ _____ _____    ______ ____
ROOT
ATOM      1  N   UNL     1      -2.105  -0.148  -1.230  0.00  0.00    -0.307 N 
ATOM      2  C   UNL     1      -2.690   1.062  -1.334  0.00  0.00    +0.264 C 
ATOM      3  O   UNL     1      -2.659   1.833  -0.395  0.00  0.00    -0.268 OA
ATOM      4  H   UNL     1      -2.130  -0.764  -1.980  0.00  0.00    +0.149 HD
ENDROOT
BRANCH   2   5
ATOM      5  C   UNL     1      -3.369   1.451  -2.590  0.00  0.00    +0.146 A 
ATOM      6  C   UNL     1      -3.966   2.705  -2.692  0.00  0.00    +0.072 A 
ATOM      7  C   UNL     1      -4.600   3.060  -3.876  0.00  0.00    +0.026 A 
ATOM      8  C   UNL     1      -4.615   2.150  -4.916  0.00  0.00    +0.046 A 
ATOM      9  C   UNL     1      -3.998   0.910  -4.748  0.00  0.00    +0.133 A 
ATOM     10  N   UNL     1      -3.399   0.603  -3.613  0.00  0.00    -0.225 NA
ATOM     11 CL   UNL     1      -3.919   3.812  -1.355  0.00  0.00    -0.081 Cl
BRANCH   9  12
ATOM     12  N   UNL     1      -4.010  -0.010  -5.790  0.00  0.00    -0.268 N 
ATOM     13  H   UNL     1      -4.446   0.211  -6.628  0.00  0.00    +0.167 HD
BRANCH  12  14
ATOM     14  N   UNL     1      -3.409  -1.226  -5.634  0.00  0.00    -0.255 NA
ATOM     15  H   UNL     1      -3.780  -1.714  -4.832  0.00  0.00    +0.140 HD
ATOM     16  H   UNL     1      -3.498  -1.784  -6.470  0.00  0.00    +0.140 HD
ENDBRANCH  12  14
ENDBRANCH   9  12
ENDBRANCH   2   5
BRANCH   1  17
ATOM     17  C   UNL     1      -1.433  -0.534   0.013  0.00  0.00    +0.076 C 
BRANCH  17  18
ATOM     18  C   UNL     1      -1.413  -2.059   0.130  0.00  0.00    +0.009 C 
ATOM     19  C   UNL     1      -0.660  -2.652  -1.062  0.00  0.00    +0.005 C 
ATOM     20  C   UNL     1      -0.640  -4.178  -0.945  0.00  0.00    +0.000 C 
ATOM     21  C   UNL     1      -2.075  -4.707  -0.934  0.00  0.00    +0.000 C 
ATOM     22  C   UNL     1      -2.829  -4.114   0.258  0.00  0.00    +0.000 C 
ATOM     23  C   UNL     1      -2.849  -2.589   0.141  0.00  0.00    +0.005 C 
ENDBRANCH  17  18
BRANCH  17  25
ATOM     24  C   UNL     1      -0.019   1.526   0.010  0.00  0.00    +0.006 C 
ATOM     25  C   UNL     1       0.002  -0.004   0.002  0.00  0.00    +0.019 C 
ENDBRANCH  17  25
ENDBRANCH   1  17
TORSDOF 6
