REMARK  Name = ZINC39689489
REMARK  7 active torsions:
REMARK  status: ('A' for Active; 'I' for Inactive)
REMARK    1  A    between atoms: C_1  and  C_2
REMARK    2  A    between atoms: C_6  and  C_8
REMARK    3  A    between atoms: C_8  and  C_9
REMARK    4  A    between atoms: C_9  and  N_10
REMARK    5  A    between atoms: C_11  and  C_13
REMARK    6  A    between atoms: C_24  and  C_26
REMARK    7  A    between atoms: C_29  and  C_31
REMARK                            x       y       z     vdW  Elec       q    Type
REMARK                         _______ _______ _______ _____ _____    ______ ____
ROOT
ATOM      1  C   UNL     1       2.709  -4.908   6.063  0.00  0.00    +0.100 C 
ATOM      2  C   UNL     1       1.957  -6.249   5.911  0.00  0.00    +0.121 C 
ATOM      3  N   UNL     1       3.016  -7.240   5.606  0.00  0.00    -0.294 N 
ATOM      4  C   UNL     1       4.152  -6.843   6.472  0.00  0.00    +0.115 C 
ATOM      5  C   UNL     1       4.148  -5.302   6.434  0.00  0.00    -0.004 C 
ATOM      6  C   UNL     1       4.513  -4.739   7.805  0.00  0.00    -0.010 C 
ATOM      7  C   UNL     1       5.967  -5.094   8.127  0.00  0.00    -0.082 C 
ATOM      8  N   UNL     1       6.849  -4.535   7.095  0.00  0.00    +0.379 N 
ATOM      9  C   UNL     1       6.553  -5.151   5.796  0.00  0.00    -0.082 C 
ATOM     10  C   UNL     1       5.124  -4.798   5.375  0.00  0.00    -0.010 C 
ATOM     11  C   UNL     1       2.959  -8.269   4.739  0.00  0.00    +0.282 C 
ATOM     12  O   UNL     1       3.921  -9.002   4.599  0.00  0.00    -0.267 OA
ATOM     13  H   UNL     1       6.704  -3.538   7.035  0.00  0.00    -0.086 HD
ATOM     14  H   UNL     1       7.811  -4.717   7.342  0.00  0.00    -0.086 HD
ENDROOT
BRANCH  11  15
ATOM     15  C   UNL     1       1.739  -8.507   3.963  0.00  0.00    +0.190 A 
ATOM     16  C   UNL     1       1.546  -9.521   3.050  0.00  0.00    +0.055 A 
ATOM     17  C   UNL     1       0.248  -9.372   2.551  0.00  0.00    +0.051 A 
ATOM     18  C   UNL     1      -0.298  -8.284   3.170  0.00  0.00    +0.139 A 
ATOM     19  O   UNL     1       0.607  -7.774   4.022  0.00  0.00    -0.450 OA
BRANCH  18  20
ATOM     20  C   UNL     1      -1.659  -7.758   2.945  0.00  0.00    +0.052 A 
ATOM     21  C   UNL     1      -2.118  -7.532   1.645  0.00  0.00    +0.014 A 
ATOM     22  C   UNL     1      -3.390  -7.041   1.442  0.00  0.00    +0.001 A 
ATOM     23  C   UNL     1      -4.214  -6.772   2.522  0.00  0.00    +0.003 A 
ATOM     24  C   UNL     1      -3.769  -6.993   3.812  0.00  0.00    +0.039 A 
ATOM     25  C   UNL     1      -2.498  -7.491   4.032  0.00  0.00    +0.134 A 
ATOM     26  F   UNL     1      -2.066  -7.713   5.292  0.00  0.00    -0.205 F 
ENDBRANCH  18  20
ENDBRANCH  11  15
BRANCH   1  28
ATOM     27  N   UNL     1       2.752  -2.801   4.768  0.00  0.00    -0.315 N 
ATOM     28  C   UNL     1       2.692  -4.147   4.762  0.00  0.00    +0.218 C 
ATOM     29  O   UNL     1       2.625  -4.747   3.710  0.00  0.00    -0.275 OA
ATOM     30  H   UNL     1       2.806  -2.322   5.609  0.00  0.00    +0.149 HD
BRANCH  27  31
ATOM     31  C   UNL     1       2.736  -2.062   3.503  0.00  0.00    +0.109 C 
BRANCH  31  32
ATOM     32  C   UNL     1       2.814  -0.561   3.789  0.00  0.00    +0.054 C 
BRANCH  32  38
ATOM     33  C   UNL     1       5.265   1.518  -0.048  0.00  0.00    +0.044 C 
ATOM     34  C   UNL     1       3.970   1.195   0.653  0.00  0.00    -0.050 A 
ATOM     35  C   UNL     1       2.767   1.596   0.102  0.00  0.00    +0.003 A 
ATOM     36  C   UNL     1       1.580   1.300   0.744  0.00  0.00    +0.001 A 
ATOM     37  C   UNL     1       1.595   0.602   1.937  0.00  0.00    +0.004 A 
ATOM     38  C   UNL     1       2.797   0.200   2.488  0.00  0.00    -0.046 A 
ATOM     39  C   UNL     1       3.985   0.493   1.843  0.00  0.00    +0.007 A 
ENDBRANCH  32  38
ENDBRANCH  31  32
ENDBRANCH  27  31
ENDBRANCH   1  28
TORSDOF 6
