REMARK  Name = ZINC20995182
REMARK  5 active torsions:
REMARK  status: ('A' for Active; 'I' for Inactive)
REMARK    1  A    between atoms: C_6  and  C_7
REMARK    2  A    between atoms: C_8  and  C_9
REMARK    3  A    between atoms: C_9  and  N_10
REMARK    4  A    between atoms: C_14  and  N_17
REMARK    5  A    between atoms: N_20  and  C_23
REMARK                            x       y       z     vdW  Elec       q    Type
REMARK                         _______ _______ _______ _____ _____    ______ ____
ROOT
ATOM      1  N   UNL     1      -2.063   8.234  -1.066  0.00  0.00    +0.383 N 
ATOM      2  C   UNL     1      -3.474   7.864  -0.895  0.00  0.00    -0.078 C 
ATOM      3  C   UNL     1      -4.260   8.257  -2.148  0.00  0.00    -0.017 C 
ATOM      4  C   UNL     1      -4.132   9.766  -2.373  0.00  0.00    +0.015 C 
ATOM      5  C   UNL     1      -2.651  10.131  -2.500  0.00  0.00    +0.040 C 
ATOM      6  C   UNL     1      -1.911   9.684  -1.237  0.00  0.00    -0.059 C 
ATOM      7  H   UNL     1      -1.698   7.748  -1.983  0.00  0.00    -0.081 HD
ENDROOT
BRANCH   5   8
ATOM      8  N   UNL     1      -2.516  11.585  -2.660  0.00  0.00    -0.298 NA
ATOM      9  C   UNL     1      -3.105  12.297  -1.517  0.00  0.00    +0.103 C 
ATOM     10  C   UNL     1      -2.874  13.801  -1.683  0.00  0.00    +0.120 C 
ATOM     11  N   UNL     1      -3.476  14.250  -2.946  0.00  0.00    -0.327 N 
ATOM     12  C   UNL     1      -2.887  13.538  -4.089  0.00  0.00    +0.120 C 
ATOM     13  C   UNL     1      -3.118  12.034  -3.923  0.00  0.00    +0.103 C 
BRANCH  11  14
ATOM     14  C   UNL     1      -3.348  15.634  -3.098  0.00  0.00    +0.030 A 
ATOM     15  C   UNL     1      -2.721  16.155  -4.223  0.00  0.00    +0.026 A 
ATOM     16  C   UNL     1      -2.599  17.523  -4.373  0.00  0.00    +0.040 A 
ATOM     17  C   UNL     1      -3.093  18.374  -3.399  0.00  0.00    +0.124 A 
ATOM     18  C   UNL     1      -3.714  17.857  -2.275  0.00  0.00    +0.040 A 
ATOM     19  C   UNL     1      -3.842  16.490  -2.123  0.00  0.00    +0.026 A 
ATOM     20  F   UNL     1      -2.969  19.711  -3.546  0.00  0.00    -0.205 F 
ENDBRANCH  11  14
ENDBRANCH   5   8
BRANCH   1  21
ATOM     21  C   UNL     1      -1.251   7.748   0.058  0.00  0.00    -0.051 C 
BRANCH  21  23
ATOM     22  C   UNL     1      -0.074   5.594   0.034  0.00  0.00    +0.002 C 
ATOM     23  C   UNL     1      -1.231   6.241   0.049  0.00  0.00    -0.045 C 
BRANCH  22  29
ATOM     24  C   UNL     1       1.163   3.433   0.010  0.00  0.00    +0.011 A 
ATOM     25  C   UNL     1       1.176   2.054   0.002  0.00  0.00    +0.039 A 
ATOM     26  C   UNL     1      -0.016   1.347   0.009  0.00  0.00    +0.123 A 
ATOM     27  C   UNL     1      -1.227   2.021   0.019  0.00  0.00    +0.039 A 
ATOM     28  C   UNL     1      -1.251   3.400   0.032  0.00  0.00    +0.011 A 
ATOM     29  C   UNL     1      -0.054   4.116   0.025  0.00  0.00    -0.025 A 
ATOM     30  F   UNL     1       0.002  -0.004   0.002  0.00  0.00    -0.205 F 
ENDBRANCH  22  29
ENDBRANCH  21  23
ENDBRANCH   1  21
TORSDOF 5
