REMARK  Name = ZINC02793963
REMARK  14 active torsions:
REMARK  status: ('A' for Active; 'I' for Inactive)
REMARK    1  A    between atoms: C_1  and  C_2
REMARK    2  A    between atoms: C_5  and  C_9
REMARK    3  A    between atoms: C_7  and  C_8
REMARK    4  A    between atoms: C_12  and  C_33
REMARK    5  A    between atoms: C_17  and  C_19
REMARK    6  A    between atoms: N_21  and  N_22
REMARK    7  A    between atoms: N_22  and  C_23
REMARK    8  A    between atoms: C_23  and  N_25
REMARK    9  A    between atoms: N_25  and  C_26
REMARK   10  A    between atoms: C_26  and  C_27
REMARK   11  A    between atoms: C_27  and  C_28
REMARK   12  A    between atoms: C_28  and  N_29
REMARK   13  A    between atoms: N_29  and  C_30
REMARK   14  A    between atoms: N_29  and  C_31
REMARK                            x       y       z     vdW  Elec       q    Type
REMARK                         _______ _______ _______ _____ _____    ______ ____
ROOT
ATOM      1  C   UNL     1       1.415   2.070  -0.000  0.00  0.00    +0.104 C 
ATOM      2  C   UNL     1      -0.019   1.529   0.010  0.00  0.00    +0.063 C 
ATOM      3  C   UNL     1       0.002  -0.004   0.002  0.00  0.00    +0.215 C 
ATOM      4  N   UNL     1       0.891  -0.461  -1.070  0.00  0.00    -0.238 N 
ATOM      5  C   UNL     1       1.847   0.326  -1.648  0.00  0.00    +0.119 A 
ATOM      6  C   UNL     1       2.475  -0.403  -2.593  0.00  0.00    +0.078 A 
ATOM      7  C   UNL     1       1.888  -1.688  -2.600  0.00  0.00    +0.150 A 
ATOM      8  N   UNL     1       0.938  -1.712  -1.682  0.00  0.00    -0.164 NA
ATOM      9  N   UNL     1       2.066   1.649  -1.256  0.00  0.00    -0.322 N 
ATOM     10  H   UNL     1       2.681   2.364  -1.824  0.00  0.00    +0.148 HD
ENDROOT
BRANCH   1  15
ATOM     11  C   UNL     1       1.313   7.841   0.293  0.00  0.00    +0.044 C 
ATOM     12  C   UNL     1       1.340   6.336   0.217  0.00  0.00    -0.048 A 
ATOM     13  C   UNL     1       1.114   5.701  -0.991  0.00  0.00    +0.004 A 
ATOM     14  C   UNL     1       1.142   4.321  -1.062  0.00  0.00    +0.006 A 
ATOM     15  C   UNL     1       1.388   3.575   0.076  0.00  0.00    -0.027 A 
ATOM     16  C   UNL     1       1.615   4.210   1.283  0.00  0.00    +0.009 A 
ATOM     17  C   UNL     1       1.590   5.590   1.353  0.00  0.00    -0.047 A 
ATOM     18  C   UNL     1       1.837   6.282   2.669  0.00  0.00    +0.044 C 
ENDBRANCH   1  15
BRANCH   7  19
ATOM     19  C   UNL     1       2.269  -2.810  -3.482  0.00  0.00    +0.280 C 
ATOM     20  O   UNL     1       3.163  -2.668  -4.294  0.00  0.00    -0.267 OA
ATOM     21  N   UNL     1       1.626  -3.991  -3.388  0.00  0.00    -0.230 N 
ATOM     22  H   UNL     1       0.817  -4.119  -2.654  0.00  0.00    +0.173 HD
BRANCH  21  23
ATOM     23  N   UNL     1       1.988  -5.055  -4.224  0.00  0.00    -0.246 N 
ATOM     24  H   UNL     1       2.797  -4.926  -4.959  0.00  0.00    +0.172 HD
BRANCH  23  25
ATOM     25  C   UNL     1       1.345  -6.235  -4.130  0.00  0.00    +0.147 C 
ATOM     26  S   UNL     1       1.787  -7.535  -5.152  0.00  0.00    -0.017 S 
BRANCH  25  27
ATOM     27  N   UNL     1       0.354  -6.392  -3.230  0.00  0.00    -0.326 N 
ATOM     28  H   UNL     1       0.070  -5.557  -2.573  0.00  0.00    +0.148 HD
BRANCH  27  29
ATOM     29  C   UNL     1      -0.345  -7.676  -3.127  0.00  0.00    +0.101 C 
BRANCH  29  30
ATOM     30  C   UNL     1      -1.416  -7.587  -2.038  0.00  0.00    +0.000 C 
BRANCH  30  31
ATOM     31  C   UNL     1      -2.146  -8.928  -1.931  0.00  0.00    -0.078 C 
BRANCH  31  32
ATOM     32  N   UNL     1      -3.175  -8.842  -0.885  0.00  0.00    +0.376 N 
ATOM     33  C   UNL     1      -4.234  -7.897  -1.264  0.00  0.00    -0.097 C 
ATOM     34  C   UNL     1      -3.734 -10.168  -0.588  0.00  0.00    -0.097 C 
ATOM     35  H   UNL     1      -2.696  -8.465   0.030  0.00  0.00    -0.083 HD
ENDBRANCH  31  32
ENDBRANCH  30  31
ENDBRANCH  29  30
ENDBRANCH  27  29
ENDBRANCH  25  27
ENDBRANCH  23  25
ENDBRANCH  21  23
ENDBRANCH   7  19
BRANCH   3  36
ATOM     36  C   UNL     1      -1.412  -0.534  -0.244  0.00  0.00    +0.412 C 
ATOM     37  F   UNL     1      -1.877  -0.069  -1.478  0.00  0.00    -0.168 F 
ATOM     38  F   UNL     1      -1.391  -1.933  -0.251  0.00  0.00    -0.168 F 
ATOM     39  F   UNL     1      -2.261  -0.086   0.773  0.00  0.00    -0.168 F 
ENDBRANCH   3  36
TORSDOF 10
