REMARK  Name = ZINC39916021
REMARK  16 active torsions:
REMARK  status: ('A' for Active; 'I' for Inactive)
REMARK    1  A    between atoms: C_1  and  C_2
REMARK    2  A    between atoms: C_2  and  C_3
REMARK    3  A    between atoms: C_2  and  C_4
REMARK    4  A    between atoms: C_2  and  C_5
REMARK    5  A    between atoms: C_8  and  O_11
REMARK    6  A    between atoms: O_11  and  C_12
REMARK    7  A    between atoms: C_12  and  C_13
REMARK    8  A    between atoms: C_13  and  C_14
REMARK    9  A    between atoms: C_14  and  N_15
REMARK   10  A    between atoms: C_23  and  S_24
REMARK   11  A    between atoms: S_24  and  C_25
REMARK   12  A    between atoms: C_27  and  O_40
REMARK   13  A    between atoms: C_29  and  O_39
REMARK   14  A    between atoms: C_31  and  O_38
REMARK   15  A    between atoms: C_33  and  C_36
REMARK   16  A    between atoms: C_36  and  O_37
REMARK                            x       y       z     vdW  Elec       q    Type
REMARK                         _______ _______ _______ _____ _____    ______ ____
ROOT
ATOM      1  N   UNL     1       6.837  -2.288  -7.548  0.00  0.00    -0.318 N 
ATOM      2  C   UNL     1       7.488  -3.493  -7.758  0.00  0.00    +0.069 A 
ATOM      3  C   UNL     1       7.880  -4.531  -6.927  0.00  0.00    +0.028 A 
ATOM      4  C   UNL     1       8.528  -5.628  -7.457  0.00  0.00    +0.002 A 
ATOM      5  C   UNL     1       8.792  -5.699  -8.817  0.00  0.00    +0.002 A 
ATOM      6  C   UNL     1       8.410  -4.677  -9.657  0.00  0.00    +0.030 A 
ATOM      7  C   UNL     1       7.751  -3.560  -9.136  0.00  0.00    +0.090 A 
ATOM      8  N   UNL     1       7.262  -2.422  -9.693  0.00  0.00    -0.222 NA
ATOM      9  C   UNL     1       6.719  -1.675  -8.764  0.00  0.00    +0.172 A 
ENDROOT
BRANCH   1  10
ATOM     10  C   UNL     1       6.359  -1.771  -6.264  0.00  0.00    +0.127 C 
BRANCH  10  11
ATOM     11  C   UNL     1       4.924  -2.246  -6.025  0.00  0.00    +0.063 C 
BRANCH  11  12
ATOM     12  C   UNL     1       4.425  -1.706  -4.683  0.00  0.00    +0.231 C 
BRANCH  12  13
ATOM     13  O   UNL     1       3.085  -2.150  -4.460  0.00  0.00    -0.492 OA
BRANCH  13  17
ATOM     14  C   UNL     1       1.275  -0.953  -0.951  0.00  0.00    -0.042 A 
ATOM     15  C   UNL     1       0.585  -1.748  -1.848  0.00  0.00    +0.008 A 
ATOM     16  C   UNL     1       1.189  -2.150  -3.023  0.00  0.00    +0.046 A 
ATOM     17  C   UNL     1       2.489  -1.755  -3.304  0.00  0.00    +0.121 A 
ATOM     18  C   UNL     1       3.179  -0.958  -2.404  0.00  0.00    +0.046 A 
ATOM     19  C   UNL     1       2.569  -0.554  -1.232  0.00  0.00    +0.008 A 
BRANCH  14  21
ATOM     20  C   UNL     1       0.548   1.012   0.376  0.00  0.00    +0.015 C 
ATOM     21  C   UNL     1       0.614  -0.516   0.331  0.00  0.00    -0.013 C 
ATOM     22  C   UNL     1       1.426  -1.027   1.523  0.00  0.00    +0.015 C 
ATOM     23  C   UNL     1      -0.803  -1.090   0.395  0.00  0.00    +0.015 C 
ENDBRANCH  14  21
ENDBRANCH  13  17
ENDBRANCH  12  13
ENDBRANCH  11  12
ENDBRANCH  10  11
ENDBRANCH   1  10
BRANCH   9  24
ATOM     24  S   UNL     1       5.955  -0.111  -9.039  0.00  0.00    -0.054 S 
BRANCH  24  25
ATOM     25  C   UNL     1       6.115   0.147 -10.827  0.00  0.00    +0.214 C 
ATOM     26  C   UNL     1       5.376   1.427 -11.226  0.00  0.00    +0.185 C 
ATOM     27  C   UNL     1       5.566   1.670 -12.727  0.00  0.00    +0.177 C 
ATOM     28  C   UNL     1       7.064   1.744 -13.035  0.00  0.00    +0.176 C 
ATOM     29  C   UNL     1       7.738   0.452 -12.566  0.00  0.00    +0.176 C 
ATOM     30  O   UNL     1       7.497   0.270 -11.169  0.00  0.00    -0.355 OA
BRANCH  28  31
ATOM     31  O   UNL     1       7.255   1.899 -14.443  0.00  0.00    -0.386 OA
ATOM     32  H   UNL     1       6.849   2.697 -14.809  0.00  0.00    +0.210 HD
ENDBRANCH  28  31
BRANCH  27  33
ATOM     33  O   UNL     1       4.977   0.596 -13.463  0.00  0.00    -0.386 OA
ATOM     34  H   UNL     1       4.028   0.488 -13.310  0.00  0.00    +0.210 HD
ENDBRANCH  27  33
BRANCH  26  35
ATOM     35  O   UNL     1       3.984   1.284 -10.937  0.00  0.00    -0.386 OA
ATOM     36  H   UNL     1       3.790   1.123 -10.003  0.00  0.00    +0.210 HD
ENDBRANCH  26  35
BRANCH  29  37
ATOM     37  C   UNL     1       7.163  -0.735 -13.342  0.00  0.00    +0.190 C 
BRANCH  37  38
ATOM     38  O   UNL     1       7.895  -1.918 -13.016  0.00  0.00    -0.392 OA
ATOM     39  H   UNL     1       7.584  -2.711 -13.473  0.00  0.00    +0.210 HD
ENDBRANCH  37  38
ENDBRANCH  29  37
ENDBRANCH  24  25
ENDBRANCH   9  24
TORSDOF 13
