REMARK  Name = ZINC66923802
REMARK  9 active torsions:
REMARK  status: ('A' for Active; 'I' for Inactive)
REMARK    1  A    between atoms: C_1  and  N_2
REMARK    2  A    between atoms: N_2  and  C_3
REMARK    3  A    between atoms: N_2  and  C_27
REMARK    4  A    between atoms: C_3  and  C_4
REMARK    5  A    between atoms: C_4  and  N_5
REMARK    6  A    between atoms: C_6  and  C_8
REMARK    7  A    between atoms: C_14  and  C_16
REMARK    8  A    between atoms: C_17  and  C_18
REMARK    9  A    between atoms: C_21  and  C_24
REMARK                            x       y       z     vdW  Elec       q    Type
REMARK                         _______ _______ _______ _____ _____    ______ ____
ROOT
ATOM      1  C   UNL     1       4.932  -0.793   3.679  0.00  0.00    +0.162 C 
ATOM      2  C   UNL     1       5.297  -2.281   3.501  0.00  0.00    +0.033 C 
ATOM      3  C   UNL     1       6.769  -2.223   3.013  0.00  0.00    +0.021 C 
ATOM      4  C   UNL     1       7.311  -1.009   3.808  0.00  0.00    +0.109 C 
ATOM      5  N   UNL     1       6.189  -0.050   3.850  0.00  0.00    -0.286 N 
ATOM      6  C   UNL     1       6.297   1.284   4.015  0.00  0.00    +0.240 C 
ATOM      7  O   UNL     1       5.298   1.978   4.031  0.00  0.00    -0.271 OA
ENDROOT
BRANCH   1   9
ATOM      8  N   UNL     1       2.889  -0.551   2.306  0.00  0.00    -0.316 N 
ATOM      9  C   UNL     1       4.203  -0.293   2.458  0.00  0.00    +0.234 C 
ATOM     10  O   UNL     1       4.799   0.340   1.613  0.00  0.00    -0.274 OA
ATOM     11  H   UNL     1       2.412  -1.058   2.982  0.00  0.00    +0.149 HD
BRANCH   8  12
ATOM     12  C   UNL     1       2.180  -0.066   1.119  0.00  0.00    +0.086 C 
BRANCH  12  13
ATOM     13  C   UNL     1       0.713  -0.491   1.192  0.00  0.00    -0.060 C 
BRANCH  13  15
ATOM     14  C   UNL     1      -0.018   1.465   0.010  0.00  0.00    -0.096 C 
ATOM     15  N   UNL     1       0.002  -0.004   0.002  0.00  0.00    +0.381 N 
ATOM     16  H   UNL     1       0.474  -0.330  -0.828  0.00  0.00    -0.082 HD
BRANCH  15  17
ATOM     17  C   UNL     1      -1.376  -0.512   0.012  0.00  0.00    -0.069 C 
ATOM     18  C   UNL     1      -1.756  -1.546  -1.050  0.00  0.00    -0.017 C 
ATOM     19  C   UNL     1      -2.285  -0.114  -1.152  0.00  0.00    -0.017 C 
ENDBRANCH  15  17
ENDBRANCH  13  15
ENDBRANCH  12  13
ENDBRANCH   8  12
ENDBRANCH   1   9
BRANCH   6  20
ATOM     20  C   UNL     1       7.619   1.898   4.175  0.00  0.00    +0.068 C 
ATOM     21  C   UNL     1       7.727   3.231   4.340  0.00  0.00    +0.013 C 
BRANCH  21  22
ATOM     22  C   UNL     1       9.054   3.848   4.500  0.00  0.00    -0.025 A 
ATOM     23  C   UNL     1      10.204   3.051   4.475  0.00  0.00    +0.008 A 
ATOM     24  C   UNL     1      11.444   3.629   4.625  0.00  0.00    +0.013 A 
ATOM     25  C   UNL     1      11.555   5.010   4.801  0.00  0.00    +0.037 A 
ATOM     26  C   UNL     1      10.408   5.806   4.826  0.00  0.00    +0.013 A 
ATOM     27  C   UNL     1       9.167   5.231   4.671  0.00  0.00    +0.008 A 
BRANCH  25  28
ATOM     28  C   UNL     1      12.888   5.629   4.963  0.00  0.00    +0.242 C 
ATOM     29  O   UNL     1      13.887   4.937   4.942  0.00  0.00    -0.270 OA
ATOM     30  N   UNL     1      12.996   6.962   5.133  0.00  0.00    -0.325 N 
ATOM     31  H   UNL     1      12.199   7.515   5.150  0.00  0.00    +0.145 HD
ATOM     32  H   UNL     1      13.870   7.368   5.239  0.00  0.00    +0.145 HD
ENDBRANCH  25  28
ENDBRANCH  21  22
ENDBRANCH   6  20
TORSDOF 8
