REMARK  Name = ZINC47998815
REMARK  7 active torsions:
REMARK  status: ('A' for Active; 'I' for Inactive)
REMARK    1  A    between atoms: C_1  and  N_2
REMARK    2  A    between atoms: N_2  and  C_3
REMARK    3  A    between atoms: C_7  and  C_10
REMARK    4  A    between atoms: C_10  and  N_11
REMARK    5  A    between atoms: C_12  and  C_14
REMARK    6  A    between atoms: N_16  and  C_17
REMARK    7  A    between atoms: C_18  and  C_26
REMARK                            x       y       z     vdW  Elec       q    Type
REMARK                         _______ _______ _______ _____ _____    ______ ____
ROOT
ATOM      1  N   UNL     1      -5.295  -3.029   1.416  0.00  0.00    -0.303 N 
ATOM      2  C   UNL     1      -6.459  -3.659   1.670  0.00  0.00    +0.300 C 
ATOM      3  O   UNL     1      -7.160  -4.031   0.751  0.00  0.00    -0.265 OA
ATOM      4  H   UNL     1      -4.735  -2.731   2.150  0.00  0.00    +0.149 HD
ENDROOT
BRANCH   2   5
ATOM      5  C   UNL     1      -6.887  -3.897   3.080  0.00  0.00    +0.304 C 
ATOM      6  O   UNL     1      -6.187  -3.524   3.998  0.00  0.00    -0.265 OA
ATOM      7  N   UNL     1      -8.052  -4.527   3.333  0.00  0.00    -0.271 N 
ATOM      8  H   UNL     1      -8.612  -4.824   2.599  0.00  0.00    +0.156 HD
BRANCH   7   9
ATOM      9  C   UNL     1      -8.449  -4.748   4.641  0.00  0.00    +0.090 A 
ATOM     10  C   UNL     1      -9.597  -5.376   5.109  0.00  0.00    +0.084 A 
ATOM     11  C   UNL     1      -9.776  -5.478   6.547  0.00  0.00    -0.018 A 
ATOM     12  C   UNL     1      -8.795  -4.945   7.311  0.00  0.00    -0.004 A 
ATOM     13  S   UNL     1      -7.614  -4.306   6.154  0.00  0.00    -0.077 S 
ATOM     14  C   UNL     1      -8.727  -4.912   8.807  0.00  0.00    +0.043 C 
ATOM     15  C   UNL     1     -10.120  -5.245   9.362  0.00  0.00    +0.005 C 
ATOM     16  C   UNL     1     -10.651  -6.487   8.642  0.00  0.00    +0.005 C 
ATOM     17  C   UNL     1     -10.989  -6.143   7.191  0.00  0.00    +0.037 C 
BRANCH  10  18
ATOM     18  C   UNL     1     -10.572  -5.904   4.204  0.00  0.00    +0.102 C 
ATOM     19  N   UNL     1     -11.346  -6.324   3.486  0.00  0.00    -0.191 NA
ENDBRANCH  10  18
ENDBRANCH   7   9
ENDBRANCH   2   5
BRANCH   1  20
ATOM     20  C   UNL     1      -4.874  -2.795   0.033  0.00  0.00    +0.141 C 
BRANCH  20  27
ATOM     21  C   UNL     1      -0.018   1.461   0.010  0.00  0.00    +0.130 C 
ATOM     22  N   UNL     1       0.002  -0.004   0.002  0.00  0.00    -0.323 N 
ATOM     23  C   UNL     1       1.281  -0.719  -0.014  0.00  0.00    +0.130 C 
ATOM     24  C   UNL     1      -1.192  -0.715   0.010  0.00  0.00    +0.098 A 
ATOM     25  C   UNL     1      -1.166  -2.107   0.008  0.00  0.00    +0.042 A 
ATOM     26  C   UNL     1      -2.362  -2.802   0.015  0.00  0.00    +0.010 A 
ATOM     27  C   UNL     1      -3.548  -2.080   0.025  0.00  0.00    -0.014 A 
ATOM     28  C   UNL     1      -3.500  -0.700   0.026  0.00  0.00    +0.089 A 
ATOM     29  N   UNL     1      -2.344  -0.063   0.024  0.00  0.00    -0.349 N 
ATOM     30  H   UNL     1      -2.339   0.907   0.029  0.00  0.00    +0.167 HD
ENDBRANCH  20  27
ENDBRANCH   1  20
TORSDOF 5
