REMARK  Name = ZINC22303681
REMARK  3 active torsions:
REMARK  status: ('A' for Active; 'I' for Inactive)
REMARK    1  A    between atoms: C_9  and  C_11
REMARK    2  A    between atoms: C_12  and  C_24
REMARK    3  A    between atoms: C_18  and  C_19
REMARK                            x       y       z     vdW  Elec       q    Type
REMARK                         _______ _______ _______ _____ _____    ______ ____
ROOT
ATOM      1  C   UNL     1       3.625  -3.317   0.022  0.00  0.00    +0.040 C 
ATOM      2  C   UNL     1       5.131  -3.289  -0.136  0.00  0.00    +0.138 C 
ATOM      3  N   UNL     1       5.823  -4.587  -0.199  0.00  0.00    -0.315 N 
ATOM      4  C   UNL     1       5.094  -5.716  -0.114  0.00  0.00    +0.135 C 
ATOM      5  S   UNL     1       5.899  -7.225  -0.186  0.00  0.00    -0.019 S 
ATOM      6  N   UNL     1       3.763  -5.701   0.026  0.00  0.00    -0.296 N 
ATOM      7  C   UNL     1       3.018  -4.540   0.101  0.00  0.00    +0.055 C 
ATOM      8  H   UNL     1       6.787  -4.628  -0.300  0.00  0.00    +0.149 HD
ATOM      9  H   UNL     1       3.297  -6.550   0.081  0.00  0.00    +0.154 HD
ENDROOT
BRANCH   1  18
ATOM     10  C   UNL     1       0.459   1.683  -0.378  0.00  0.00    +0.002 A 
ATOM     11  C   UNL     1       0.534   1.650   1.007  0.00  0.00    +0.002 A 
ATOM     12  C   UNL     1       1.203   0.628   1.646  0.00  0.00    +0.028 A 
ATOM     13  C   UNL     1       1.808  -0.379   0.897  0.00  0.00    +0.064 A 
ATOM     14  C   UNL     1       1.731  -0.345  -0.506  0.00  0.00    +0.064 A 
ATOM     15  C   UNL     1       1.051   0.696  -1.135  0.00  0.00    +0.028 A 
ATOM     16  N   UNL     1       2.405  -1.444  -0.964  0.00  0.00    -0.340 N 
ATOM     17  H   UNL     1       2.523  -1.690  -1.895  0.00  0.00    +0.167 HD
ATOM     18  C   UNL     1       2.874  -2.122   0.092  0.00  0.00    +0.117 A 
ATOM     19  N   UNL     1       2.525  -1.496   1.225  0.00  0.00    -0.340 N 
ATOM     20  H   UNL     1       2.743  -1.787   2.124  0.00  0.00    +0.167 HD
ENDBRANCH   1  18
BRANCH   7  21
ATOM     21  C   UNL     1       1.562  -4.619   0.260  0.00  0.00    +0.034 A 
ATOM     22  C   UNL     1       0.768  -5.731   0.492  0.00  0.00    +0.017 A 
ATOM     23  C   UNL     1      -0.583  -5.489   0.598  0.00  0.00    +0.008 A 
ATOM     24  C   UNL     1      -1.035  -4.218   0.472  0.00  0.00    +0.046 A 
ATOM     25  S   UNL     1       0.354  -3.309   0.214  0.00  0.00    -0.095 S 
ENDBRANCH   7  21
BRANCH   2  26
ATOM     26  C   UNL     1       5.451  -2.533  -1.400  0.00  0.00    -0.016 A 
ATOM     27  C   UNL     1       5.957  -1.248  -1.339  0.00  0.00    +0.013 A 
ATOM     28  C   UNL     1       6.233  -0.595  -2.494  0.00  0.00    +0.045 A 
ATOM     29  S   UNL     1       5.776  -1.808  -3.722  0.00  0.00    -0.105 S 
ATOM     30  C   UNL     1       5.252  -3.104  -2.613  0.00  0.00    +0.051 A 
ENDBRANCH   2  26
TORSDOF 3
