REMARK  Name = ZINC09746272
REMARK  12 active torsions:
REMARK  status: ('A' for Active; 'I' for Inactive)
REMARK    1  A    between atoms: C_1  and  C_2
REMARK    2  A    between atoms: C_6  and  C_35
REMARK    3  A    between atoms: C_7  and  N_8
REMARK    4  A    between atoms: C_9  and  C_11
REMARK    5  A    between atoms: N_13  and  C_14
REMARK    6  A    between atoms: C_14  and  C_15
REMARK    7  A    between atoms: C_15  and  C_16
REMARK    8  A    between atoms: N_22  and  S_23
REMARK    9  A    between atoms: S_23  and  C_26
REMARK   10  A    between atoms: C_27  and  C_34
REMARK   11  A    between atoms: C_29  and  C_33
REMARK   12  A    between atoms: C_31  and  C_32
REMARK                            x       y       z     vdW  Elec       q    Type
REMARK                         _______ _______ _______ _____ _____    ______ ____
ROOT
ATOM      1  C   UNL     1      -0.825   3.223  -2.710  0.00  0.00    +0.039 C 
ENDROOT
BRANCH   1   2
ATOM      2  C   UNL     1      -1.181   3.392  -1.231  0.00  0.00    +0.081 C 
ATOM      3  C   UNL     1      -0.860   2.099  -0.475  0.00  0.00    +0.021 C 
ATOM      4  C   UNL     1      -1.345   2.223   0.971  0.00  0.00    +0.003 C 
ATOM      5  C   UNL     1      -2.862   2.428   0.985  0.00  0.00    +0.017 C 
ATOM      6  C   UNL     1      -3.206   3.724   0.245  0.00  0.00    +0.110 C 
ATOM      7  N   UNL     1      -2.617   3.672  -1.100  0.00  0.00    -0.173 NA
BRANCH   7   8
ATOM      8  S   UNL     1      -3.554   3.924  -2.442  0.00  0.00    +0.062 S 
ATOM      9  O   UNL     1      -4.838   4.312  -1.973  0.00  0.00    -0.153 OA
ATOM     10  O   UNL     1      -2.789   4.732  -3.325  0.00  0.00    -0.153 OA
BRANCH   8  11
ATOM     11  C   UNL     1      -3.758   2.364  -3.235  0.00  0.00    +0.111 A 
ATOM     12  C   UNL     1      -3.210   2.147  -4.486  0.00  0.00    -0.024 A 
ATOM     13  C   UNL     1      -3.365   0.922  -5.106  0.00  0.00    +0.008 A 
ATOM     14  C   UNL     1      -4.079  -0.084  -4.480  0.00  0.00    -0.050 A 
ATOM     15  C   UNL     1      -4.631   0.134  -3.232  0.00  0.00    +0.008 A 
ATOM     16  C   UNL     1      -4.471   1.358  -2.609  0.00  0.00    -0.024 A 
ATOM     17  C   UNL     1      -5.074   1.596  -1.249  0.00  0.00    +0.046 C 
ATOM     18  C   UNL     1      -4.253  -1.418  -5.159  0.00  0.00    +0.044 C 
ATOM     19  C   UNL     1      -2.438   3.246  -5.170  0.00  0.00    +0.046 C 
ENDBRANCH   8  11
ENDBRANCH   7   8
ENDBRANCH   1   2
BRANCH   1  20
ATOM     20  C   UNL     1       0.663   2.890  -2.841  0.00  0.00    +0.106 C 
BRANCH  20  23
ATOM     21  C   UNL     1       2.297   2.560  -4.618  0.00  0.00    +0.299 C 
ATOM     22  O   UNL     1       3.137   2.351  -3.767  0.00  0.00    -0.265 OA
ATOM     23  N   UNL     1       1.028   2.839  -4.259  0.00  0.00    -0.308 N 
ATOM     24  H   UNL     1       0.357   3.006  -4.939  0.00  0.00    +0.149 HD
BRANCH  21  26
ATOM     25  N   UNL     1       3.939   2.230  -6.423  0.00  0.00    -0.277 N 
ATOM     26  C   UNL     1       2.670   2.509  -6.063  0.00  0.00    +0.303 C 
ATOM     27  O   UNL     1       1.831   2.718  -6.915  0.00  0.00    -0.265 OA
ATOM     28  H   UNL     1       4.594   1.996  -5.747  0.00  0.00    +0.155 HD
BRANCH  25  35
ATOM     29  C   UNL     1       2.500   0.617  -8.273  0.00  0.00    +0.045 C 
ATOM     30  C   UNL     1       3.635   1.508  -8.706  0.00  0.00    -0.029 A 
ATOM     31  C   UNL     1       4.003   1.563 -10.036  0.00  0.00    +0.005 A 
ATOM     32  C   UNL     1       5.048   2.376 -10.434  0.00  0.00    +0.001 A 
ATOM     33  C   UNL     1       5.726   3.141  -9.502  0.00  0.00    +0.005 A 
ATOM     34  C   UNL     1       5.361   3.095  -8.171  0.00  0.00    -0.029 A 
ATOM     35  C   UNL     1       4.311   2.279  -7.768  0.00  0.00    +0.040 A 
ATOM     36  C   UNL     1       6.100   3.930  -7.157  0.00  0.00    +0.045 C 
ENDBRANCH  25  35
ENDBRANCH  21  26
ENDBRANCH  20  23
ENDBRANCH   1  20
TORSDOF 7
