REMARK  Name = ZINC35799173
REMARK  12 active torsions:
REMARK  status: ('A' for Active; 'I' for Inactive)
REMARK    1  A    between atoms: C_1  and  C_2
REMARK    2  A    between atoms: C_2  and  C_3
REMARK    3  A    between atoms: C_3  and  C_5
REMARK    4  A    between atoms: C_3  and  C_6
REMARK    5  A    between atoms: C_6  and  N_7
REMARK    6  A    between atoms: N_7  and  C_8
REMARK    7  A    between atoms: C_8  and  C_9
REMARK    8  A    between atoms: N_11  and  C_12
REMARK    9  A    between atoms: N_11  and  C_19
REMARK   10  A    between atoms: C_12  and  C_13
REMARK   11  A    between atoms: C_19  and  C_20
REMARK   12  A    between atoms: N_27  and  C_28
REMARK                            x       y       z     vdW  Elec       q    Type
REMARK                         _______ _______ _______ _____ _____    ______ ____
ROOT
ATOM      1  N   UNL     1      -2.795  -2.538  -0.230  0.00  0.00    -0.276 N 
ATOM      2  C   UNL     1      -3.478  -2.882   0.880  0.00  0.00    +0.307 C 
ATOM      3  O   UNL     1      -4.615  -3.302   0.788  0.00  0.00    -0.252 OA
ATOM      4  N   UNL     1      -2.901  -2.760   2.092  0.00  0.00    -0.268 N 
ATOM      5  H   UNL     1      -1.968  -2.503   2.161  0.00  0.00    +0.156 HD
ENDROOT
BRANCH   4   6
ATOM      6  C   UNL     1      -3.647  -3.003   3.251  0.00  0.00    +0.049 A 
ATOM      7  C   UNL     1      -5.028  -2.862   3.231  0.00  0.00    +0.024 A 
ATOM      8  C   UNL     1      -5.762  -3.103   4.376  0.00  0.00    +0.002 A 
ATOM      9  C   UNL     1      -5.123  -3.486   5.541  0.00  0.00    +0.001 A 
ATOM     10  C   UNL     1      -3.748  -3.627   5.565  0.00  0.00    +0.017 A 
ATOM     11  C   UNL     1      -3.008  -3.392   4.421  0.00  0.00    +0.039 A 
ATOM     12 BR   UNL     1      -1.128  -3.593   4.452  0.00  0.00    -0.048 Br
ENDBRANCH   4   6
BRANCH   1  13
ATOM     13  C   UNL     1      -1.425  -2.032  -0.119  0.00  0.00    +0.113 C 
BRANCH  13  14
ATOM     14  C   UNL     1      -1.454  -0.509   0.025  0.00  0.00    +0.003 C 
ATOM     15  C   UNL     1      -2.131  -0.134   1.345  0.00  0.00    +0.009 C 
BRANCH  14  17
ATOM     16  C   UNL     1      -0.054   1.561   0.034  0.00  0.00    +0.004 C 
ATOM     17  C   UNL     1      -0.022   0.032   0.016  0.00  0.00    +0.001 C 
ENDBRANCH  14  17
ENDBRANCH  13  14
ENDBRANCH   1  13
BRANCH   1  18
ATOM     18  C   UNL     1      -3.423  -2.670  -1.547  0.00  0.00    +0.205 C 
BRANCH  18  19
ATOM     19  C   UNL     1      -3.140  -4.042  -2.102  0.00  0.00    +0.234 C 
ATOM     20  O   UNL     1      -2.479  -4.832  -1.461  0.00  0.00    -0.274 OA
ATOM     21  N   UNL     1      -3.621  -4.392  -3.312  0.00  0.00    -0.291 N 
BRANCH  21  22
ATOM     22  C   UNL     1      -3.346  -5.726  -3.852  0.00  0.00    +0.143 C 
BRANCH  22  23
ATOM     23  C   UNL     1      -4.435  -6.676  -3.424  0.00  0.00    -0.030 A 
ATOM     24  C   UNL     1      -4.313  -7.378  -2.239  0.00  0.00    +0.005 A 
ATOM     25  C   UNL     1      -5.312  -8.249  -1.846  0.00  0.00    +0.000 A 
ATOM     26  C   UNL     1      -6.432  -8.418  -2.638  0.00  0.00    +0.000 A 
ATOM     27  C   UNL     1      -6.554  -7.715  -3.822  0.00  0.00    +0.000 A 
ATOM     28  C   UNL     1      -5.558  -6.841  -4.213  0.00  0.00    +0.005 A 
ENDBRANCH  22  23
ENDBRANCH  21  22
BRANCH  21  29
ATOM     29  C   UNL     1      -4.420  -3.438  -4.086  0.00  0.00    +0.150 C 
BRANCH  29  30
ATOM     30  C   UNL     1      -3.510  -2.619  -4.965  0.00  0.00    +0.007 A 
ATOM     31  C   UNL     1      -3.103  -2.863  -6.234  0.00  0.00    +0.013 A 
ATOM     32  C   UNL     1      -2.257  -1.960  -6.852  0.00  0.00    +0.008 A 
ATOM     33  C   UNL     1      -1.861  -0.858  -6.170  0.00  0.00    +0.045 A 
ATOM     34  S   UNL     1      -2.697  -1.071  -4.607  0.00  0.00    -0.100 S 
ENDBRANCH  29  30
ENDBRANCH  21  29
ENDBRANCH  18  19
ENDBRANCH   1  18
TORSDOF 10
