REMARK  Name = ZINC38677382
REMARK  11 active torsions:
REMARK  status: ('A' for Active; 'I' for Inactive)
REMARK    1  A    between atoms: C_1  and  O_2
REMARK    2  A    between atoms: O_2  and  C_3
REMARK    3  A    between atoms: C_3  and  C_5
REMARK    4  A    between atoms: C_8  and  O_11
REMARK    5  A    between atoms: O_11  and  C_12
REMARK    6  A    between atoms: C_16  and  C_18
REMARK    7  A    between atoms: C_21  and  O_25
REMARK    8  A    between atoms: C_23  and  O_24
REMARK    9  A    between atoms: O_25  and  C_26
REMARK   10  A    between atoms: C_26  and  C_27
REMARK   11  A    between atoms: C_30  and  N_33
REMARK                            x       y       z     vdW  Elec       q    Type
REMARK                         _______ _______ _______ _____ _____    ______ ____
ROOT
ATOM      1  C   UNL     1      -2.162  -9.052  -1.242  0.00  0.00    +0.025 A 
ATOM      2  C   UNL     1      -2.910  -9.295  -2.378  0.00  0.00    +0.013 A 
ATOM      3  C   UNL     1      -2.325  -9.891  -3.479  0.00  0.00    +0.046 A 
ATOM      4  C   UNL     1      -0.984 -10.247  -3.446  0.00  0.00    +0.124 A 
ATOM      5  C   UNL     1      -0.231 -10.004  -2.307  0.00  0.00    +0.091 A 
ATOM      6  C   UNL     1      -0.820  -9.401  -1.206  0.00  0.00    +0.126 A 
ENDROOT
BRANCH   1  11
ATOM      7  C   UNL     1      -2.579  -6.900  -0.061  0.00  0.00    +0.153 C 
ATOM      8  C   UNL     1      -3.826  -6.393  -0.137  0.00  0.00    +0.176 C 
ATOM      9  N   UNL     1      -4.736  -7.374  -0.159  0.00  0.00    -0.182 NA
ATOM     10  N   UNL     1      -4.271  -8.515  -0.108  0.00  0.00    -0.294 N 
ATOM     11  C   UNL     1      -2.803  -8.402  -0.043  0.00  0.00    +0.199 C 
ATOM     12  H   UNL     1      -4.780  -9.340  -0.113  0.00  0.00    +0.184 HD
BRANCH   7  13
ATOM     13  O   UNL     1      -1.407  -6.230  -0.018  0.00  0.00    -0.456 OA
BRANCH  13  17
ATOM     14  C   UNL     1       0.816  -6.437   3.454  0.00  0.00    +0.059 A 
ATOM     15  C   UNL     1      -0.455  -7.017   3.400  0.00  0.00    +0.018 A 
ATOM     16  C   UNL     1      -1.194  -6.946   2.240  0.00  0.00    +0.047 A 
ATOM     17  C   UNL     1      -0.677  -6.298   1.123  0.00  0.00    +0.128 A 
ATOM     18  C   UNL     1       0.587  -5.721   1.173  0.00  0.00    +0.047 A 
ATOM     19  C   UNL     1       1.329  -5.782   2.331  0.00  0.00    +0.018 A 
BRANCH  14  20
ATOM     20  C   UNL     1       1.610  -6.511   4.694  0.00  0.00    +0.339 C 
ATOM     21  O   UNL     1       2.712  -6.002   4.741  0.00  0.00    -0.245 OA
BRANCH  20  23
ATOM     22  C   UNL     1       1.937  -7.176   6.943  0.00  0.00    +0.280 C 
ATOM     23  O   UNL     1       1.113  -7.143   5.776  0.00  0.00    -0.464 OA
ENDBRANCH  20  23
ENDBRANCH  14  20
ENDBRANCH  13  17
ENDBRANCH   7  13
ENDBRANCH   1  11
BRANCH   6  24
ATOM     24  O   UNL     1      -0.083  -9.157  -0.090  0.00  0.00    -0.506 OA
ATOM     25  H   UNL     1      -0.085  -9.882   0.549  0.00  0.00    +0.292 HD
ENDBRANCH   6  24
BRANCH   4  26
ATOM     26  O   UNL     1      -0.409 -10.833  -4.529  0.00  0.00    -0.487 OA
BRANCH  26  27
ATOM     27  C   UNL     1      -1.244 -11.053  -5.667  0.00  0.00    +0.264 C 
BRANCH  27  28
ATOM     28  C   UNL     1      -0.440 -11.707  -6.761  0.00  0.00    -0.010 A 
ATOM     29  C   UNL     1       0.230 -10.929  -7.686  0.00  0.00    +0.009 A 
ATOM     30  C   UNL     1       0.968 -11.528  -8.689  0.00  0.00    +0.033 A 
ATOM     31  C   UNL     1       1.036 -12.907  -8.768  0.00  0.00    +0.126 A 
ATOM     32  C   UNL     1       0.366 -13.686  -7.842  0.00  0.00    +0.033 A 
ATOM     33  C   UNL     1      -0.368 -13.086  -6.836  0.00  0.00    +0.009 A 
BRANCH  31  34
ATOM     34  N   UNL     1       1.825 -13.549  -9.843  0.00  0.00    +0.056 N 
ATOM     35  O   UNL     1       2.410 -12.868 -10.652  0.00  0.00    -0.126 OA
ATOM     36  O   UNL     1       1.884 -14.755  -9.912  0.00  0.00    -0.126 OA
ENDBRANCH  31  34
ENDBRANCH  27  28
ENDBRANCH  26  27
ENDBRANCH   4  26
TORSDOF 10
