REMARK  Name = ZINC38657460
REMARK  9 active torsions:
REMARK  status: ('A' for Active; 'I' for Inactive)
REMARK    1  A    between atoms: C_1  and  C_2
REMARK    2  A    between atoms: C_2  and  C_4
REMARK    3  A    between atoms: C_2  and  O_26
REMARK    4  A    between atoms: C_4  and  O_6
REMARK    5  A    between atoms: O_6  and  C_7
REMARK    6  A    between atoms: C_14  and  N_25
REMARK    7  A    between atoms: C_15  and  C_23
REMARK    8  A    between atoms: C_16  and  C_18
REMARK    9  A    between atoms: O_26  and  C_27
REMARK                            x       y       z     vdW  Elec       q    Type
REMARK                         _______ _______ _______ _____ _____    ______ ____
ROOT
ATOM      1  C   UNL     1      -3.570  -1.329  -0.309  0.00  0.00    +0.135 A 
ATOM      2  C   UNL     1      -3.678  -1.662   1.034  0.00  0.00    +0.047 A 
ATOM      3  C   UNL     1      -4.798  -2.328   1.492  0.00  0.00    +0.012 A 
ATOM      4  C   UNL     1      -5.815  -2.664   0.617  0.00  0.00    +0.011 A 
ATOM      5  C   UNL     1      -5.713  -2.334  -0.725  0.00  0.00    +0.138 A 
ATOM      6  C   UNL     1      -4.589  -1.659  -1.186  0.00  0.00    +0.093 A 
ATOM      7  O   UNL     1      -6.699  -2.655  -1.598  0.00  0.00    -0.441 OA
ATOM      8  C   UNL     1      -7.930  -2.941  -1.143  0.00  0.00    +0.199 C 
ATOM      9  C   UNL     1      -8.153  -3.296   0.145  0.00  0.00    +0.101 C 
ATOM     10  C   UNL     1      -7.028  -3.391   1.136  0.00  0.00    +0.134 C 
ENDROOT
BRANCH  10  11
ATOM     11  C   UNL     1      -6.683  -4.840   1.363  0.00  0.00    +0.117 A 
ATOM     12  C   UNL     1      -6.758  -5.492   2.537  0.00  0.00    +0.045 A 
ATOM     13  C   UNL     1      -6.344  -6.822   2.294  0.00  0.00    +0.041 A 
ATOM     14  C   UNL     1      -6.041  -6.903   0.986  0.00  0.00    +0.195 A 
ATOM     15  O   UNL     1      -6.253  -5.701   0.426  0.00  0.00    -0.467 OA
ENDBRANCH  10  11
BRANCH   8  16
ATOM     16  N   UNL     1      -8.993  -2.870  -2.008  0.00  0.00    -0.328 N 
ATOM     17  H   UNL     1      -8.850  -2.616  -2.933  0.00  0.00    +0.145 HD
ATOM     18  H   UNL     1      -9.888  -3.073  -1.694  0.00  0.00    +0.145 HD
ENDBRANCH   8  16
BRANCH   9  19
ATOM     19  C   UNL     1      -9.489  -3.588   0.570  0.00  0.00    +0.101 C 
ATOM     20  N   UNL     1     -10.549  -3.819   0.908  0.00  0.00    -0.191 NA
ENDBRANCH   9  19
BRANCH   1  21
ATOM     21  O   UNL     1      -2.468  -0.674  -0.761  0.00  0.00    -0.423 OA
BRANCH  21  22
ATOM     22  C   UNL     1      -1.339  -1.381  -0.927  0.00  0.00    +0.353 C 
ATOM     23  O   UNL     1      -1.335  -2.571  -0.722  0.00  0.00    -0.246 OA
BRANCH  22  25
ATOM     24  C   UNL     1       0.375   0.293  -0.286  0.00  0.00    +0.064 C 
ATOM     25  C   UNL     1      -0.075  -0.689  -1.369  0.00  0.00    +0.279 C 
BRANCH  25  26
ATOM     26  O   UNL     1       0.950  -1.661  -1.585  0.00  0.00    -0.478 OA
BRANCH  26  27
ATOM     27  C   UNL     1       1.964  -1.314  -2.422  0.00  0.00    +0.122 A 
ATOM     28  C   UNL     1       2.961  -2.231  -2.722  0.00  0.00    +0.048 A 
ATOM     29  C   UNL     1       3.991  -1.876  -3.572  0.00  0.00    +0.042 A 
ATOM     30  C   UNL     1       4.029  -0.607  -4.123  0.00  0.00    +0.124 A 
ATOM     31  C   UNL     1       3.034   0.309  -3.824  0.00  0.00    +0.042 A 
ATOM     32  C   UNL     1       2.000  -0.044  -2.979  0.00  0.00    +0.048 A 
ATOM     33  F   UNL     1       5.037  -0.261  -4.954  0.00  0.00    -0.205 F 
ENDBRANCH  26  27
ENDBRANCH  25  26
ENDBRANCH  22  25
ENDBRANCH  21  22
ENDBRANCH   1  21
TORSDOF 8
