REMARK  Name = ZINC62257739
REMARK  8 active torsions:
REMARK  status: ('A' for Active; 'I' for Inactive)
REMARK    1  A    between atoms: C_5  and  C_7
REMARK    2  A    between atoms: C_7  and  O_8
REMARK    3  A    between atoms: O_8  and  C_9
REMARK    4  A    between atoms: C_12  and  C_15
REMARK    5  A    between atoms: C_15  and  N_16
REMARK    6  A    between atoms: N_16  and  C_17
REMARK    7  A    between atoms: N_21  and  C_23
REMARK    8  A    between atoms: C_23  and  C_24
REMARK                            x       y       z     vdW  Elec       q    Type
REMARK                         _______ _______ _______ _____ _____    ______ ____
ROOT
ATOM      1  C   UNL     1      -0.776  -8.274  -0.037  0.00  0.00    -0.046 C 
ENDROOT
BRANCH   1   5
ATOM      2  C   UNL     1      -0.273  -4.030  -0.018  0.00  0.00    +0.121 A 
ATOM      3  C   UNL     1       0.838  -4.861  -0.028  0.00  0.00    +0.046 A 
ATOM      4  C   UNL     1       0.672  -6.233  -0.033  0.00  0.00    +0.005 A 
ATOM      5  C   UNL     1      -0.599  -6.777  -0.030  0.00  0.00    -0.064 A 
ATOM      6  C   UNL     1      -1.707  -5.951  -0.021  0.00  0.00    +0.005 A 
ATOM      7  C   UNL     1      -1.547  -4.579  -0.009  0.00  0.00    +0.046 A 
BRANCH   2   8
ATOM      8  O   UNL     1      -0.113  -2.680  -0.012  0.00  0.00    -0.487 OA
BRANCH   8   9
ATOM      9  C   UNL     1       1.228  -2.186  -0.022  0.00  0.00    +0.267 C 
BRANCH   9  14
ATOM     10  C   UNL     1      -0.017   1.378   0.010  0.00  0.00    +0.001 A 
ATOM     11  C   UNL     1       1.171   2.087   0.002  0.00  0.00    +0.003 A 
ATOM     12  C   UNL     1       2.377   1.414  -0.013  0.00  0.00    +0.039 A 
ATOM     13  C   UNL     1       2.397   0.029  -0.021  0.00  0.00    +0.130 A 
ATOM     14  C   UNL     1       1.208  -0.679  -0.013  0.00  0.00    +0.025 A 
ATOM     15  C   UNL     1       0.002  -0.004   0.002  0.00  0.00    +0.010 A 
ATOM     16  F   UNL     1       3.577  -0.630  -0.036  0.00  0.00    -0.205 F 
ENDBRANCH   9  14
ENDBRANCH   8   9
ENDBRANCH   2   8
ENDBRANCH   1   5
BRANCH   1  17
ATOM     17  N   UNL     1      -0.827  -8.767   1.346  0.00  0.00    +0.384 N 
ATOM     18  H   UNL     1       0.033  -8.533   1.819  0.00  0.00    -0.085 HD
ATOM     19  H   UNL     1      -1.603  -8.338   1.828  0.00  0.00    -0.085 HD
BRANCH  17  20
ATOM     20  C   UNL     1      -1.000 -10.226   1.339  0.00  0.00    -0.057 C 
ATOM     21  C   UNL     1       0.238 -10.885   0.724  0.00  0.00    -0.013 C 
ATOM     22  C   UNL     1       0.075 -12.406   0.776  0.00  0.00    +0.014 C 
ATOM     23  C   UNL     1      -0.134 -12.843   2.228  0.00  0.00    +0.085 C 
ATOM     24  N   UNL     1      -1.330 -12.186   2.771  0.00  0.00    -0.296 NA
ATOM     25  C   UNL     1      -1.178 -10.726   2.775  0.00  0.00    +0.069 C 
BRANCH  24  26
ATOM     26  C   UNL     1      -1.641 -12.687   4.116  0.00  0.00    +0.180 C 
BRANCH  26  27
ATOM     27  C   UNL     1      -2.035 -14.139   4.033  0.00  0.00    +0.225 C 
ATOM     28  O   UNL     1      -2.056 -14.701   2.958  0.00  0.00    -0.275 OA
ATOM     29  N   UNL     1      -2.366 -14.813   5.152  0.00  0.00    -0.328 N 
ATOM     30  H   UNL     1      -2.350 -14.363   6.011  0.00  0.00    +0.145 HD
ATOM     31  H   UNL     1      -2.620 -15.748   5.098  0.00  0.00    +0.145 HD
ENDBRANCH  26  27
ENDBRANCH  24  26
ENDBRANCH  17  20
ENDBRANCH   1  17
TORSDOF 8
