REMARK  Name = ZINC13575212
REMARK  8 active torsions:
REMARK  status: ('A' for Active; 'I' for Inactive)
REMARK    1  A    between atoms: C_1  and  C_2
REMARK    2  A    between atoms: C_2  and  C_35
REMARK    3  A    between atoms: C_5  and  C_27
REMARK    4  A    between atoms: C_9  and  C_20
REMARK    5  A    between atoms: N_12  and  C_19
REMARK    6  A    between atoms: N_15  and  C_18
REMARK    7  A    between atoms: C_30  and  O_34
REMARK    8  A    between atoms: C_32  and  O_33
REMARK                            x       y       z     vdW  Elec       q    Type
REMARK                         _______ _______ _______ _____ _____    ______ ____
ROOT
ATOM      1  C   UNL     1      -3.335   7.378  -0.801  0.00  0.00    +0.036 C 
ATOM      2  C   UNL     1      -4.414   6.324  -0.545  0.00  0.00    +0.064 C 
ATOM      3  C   UNL     1      -4.481   6.006   0.954  0.00  0.00    +0.189 C 
ATOM      4  O   UNL     1      -3.314   5.279   1.344  0.00  0.00    -0.363 OA
ATOM      5  C   UNL     1      -3.274   3.933   0.851  0.00  0.00    +0.200 C 
ATOM      6  C   UNL     1      -3.554   3.973  -0.635  0.00  0.00    +0.078 A 
ATOM      7  N   UNL     1      -4.080   5.087  -1.263  0.00  0.00    -0.331 N 
ATOM      8  C   UNL     1      -4.229   4.851  -2.597  0.00  0.00    +0.064 A 
ATOM      9  C   UNL     1      -3.799   3.572  -2.842  0.00  0.00    +0.089 A 
ATOM     10  C   UNL     1      -3.363   3.018  -1.536  0.00  0.00    +0.083 A 
ATOM     11  N   UNL     1      -2.870   1.705  -1.489  0.00  0.00    -0.294 N 
ATOM     12  C   UNL     1      -2.824   1.020  -2.653  0.00  0.00    +0.332 A 
ATOM     13  O   UNL     1      -2.397  -0.118  -2.613  0.00  0.00    -0.246 OA
ATOM     14  N   UNL     1      -3.208   1.487  -3.845  0.00  0.00    -0.263 N 
ATOM     15  C   UNL     1      -3.703   2.736  -4.043  0.00  0.00    +0.266 A 
ATOM     16  O   UNL     1      -4.044   3.134  -5.141  0.00  0.00    -0.267 OA
ATOM     17  C   UNL     1      -3.087   0.601  -5.005  0.00  0.00    +0.157 C 
ATOM     18  C   UNL     1      -2.424   1.102  -0.231  0.00  0.00    +0.154 C 
ATOM     19  C   UNL     1      -5.771   6.848  -1.022  0.00  0.00    +0.036 C 
ENDROOT
BRANCH   8  20
ATOM     20  C   UNL     1      -4.756   5.801  -3.596  0.00  0.00    -0.001 A 
ATOM     21  C   UNL     1      -6.023   5.604  -4.151  0.00  0.00    +0.011 A 
ATOM     22  C   UNL     1      -6.512   6.497  -5.080  0.00  0.00    +0.020 A 
ATOM     23  C   UNL     1      -5.746   7.582  -5.473  0.00  0.00    +0.041 A 
ATOM     24  C   UNL     1      -4.486   7.779  -4.932  0.00  0.00    +0.020 A 
ATOM     25  C   UNL     1      -3.988   6.897  -3.997  0.00  0.00    +0.011 A 
ATOM     26 CL   UNL     1      -6.366   8.697  -6.650  0.00  0.00    -0.084 Cl
ENDBRANCH   8  20
BRANCH   5  27
ATOM     27  C   UNL     1      -1.910   3.341   1.097  0.00  0.00    +0.029 A 
ATOM     28  C   UNL     1      -0.876   3.600   0.216  0.00  0.00    +0.014 A 
ATOM     29  C   UNL     1       0.375   3.059   0.438  0.00  0.00    +0.046 A 
ATOM     30  C   UNL     1       0.598   2.254   1.547  0.00  0.00    +0.120 A 
ATOM     31  C   UNL     1      -0.437   1.993   2.431  0.00  0.00    +0.091 A 
ATOM     32  C   UNL     1      -1.694   2.533   2.203  0.00  0.00    +0.126 A 
BRANCH  32  33
ATOM     33  O   UNL     1      -2.712   2.274   3.065  0.00  0.00    -0.506 OA
ATOM     34  H   UNL     1      -2.832   2.950   3.746  0.00  0.00    +0.292 HD
ENDBRANCH  32  33
BRANCH  30  35
ATOM     35  O   UNL     1       1.829   1.722   1.765  0.00  0.00    -0.507 OA
ATOM     36  H   UNL     1       1.962   0.856   1.356  0.00  0.00    +0.292 HD
ENDBRANCH  30  35
ENDBRANCH   5  27
TORSDOF 4
