REMARK  Name = ZINC09541401
REMARK  7 active torsions:
REMARK  status: ('A' for Active; 'I' for Inactive)
REMARK    1  A    between atoms: C_1  and  C_2
REMARK    2  A    between atoms: C_2  and  O_3
REMARK    3  A    between atoms: O_3  and  C_4
REMARK    4  A    between atoms: C_8  and  C_11
REMARK    5  A    between atoms: C_9  and  O_10
REMARK    6  A    between atoms: C_14  and  C_25
REMARK    7  A    between atoms: C_16  and  C_18
REMARK                            x       y       z     vdW  Elec       q    Type
REMARK                         _______ _______ _______ _____ _____    ______ ____
ROOT
ATOM      1  C   UNL     1       1.147   1.523  -2.506  0.00  0.00    -0.028 C 
ATOM      2  C   UNL     1       0.233   2.689  -2.892  0.00  0.00    +0.044 C 
ATOM      3  C   UNL     1      -0.209   2.530  -4.320  0.00  0.00    +0.040 C 
ATOM      4  N   UNL     1       0.363   1.734  -5.144  0.00  0.00    -0.299 NA
ATOM      5  C   UNL     1       1.496   0.882  -4.805  0.00  0.00    +0.081 C 
ATOM      6  N   UNL     1       2.151   1.350  -3.574  0.00  0.00    +0.401 N 
ATOM      7  H   UNL     1       2.850   0.658  -3.276  0.00  0.00    -0.081 HD
ATOM      8  H   UNL     1       2.615   2.248  -3.755  0.00  0.00    -0.081 HD
ENDROOT
BRANCH   5   9
ATOM      9  C   UNL     1       1.013  -0.531  -4.606  0.00  0.00    -0.040 A 
ATOM     10  C   UNL     1       1.690  -1.379  -3.749  0.00  0.00    +0.005 A 
ATOM     11  C   UNL     1       1.244  -2.674  -3.562  0.00  0.00    +0.020 A 
ATOM     12  C   UNL     1       0.126  -3.125  -4.241  0.00  0.00    +0.041 A 
ATOM     13  C   UNL     1      -0.548  -2.278  -5.102  0.00  0.00    +0.020 A 
ATOM     14  C   UNL     1      -0.104  -0.982  -5.285  0.00  0.00    +0.005 A 
ATOM     15 CL   UNL     1      -0.430  -4.753  -4.012  0.00  0.00    -0.084 Cl
ENDBRANCH   5   9
BRANCH   3  16
ATOM     16  C   UNL     1      -1.356   3.328  -4.795  0.00  0.00    -0.004 A 
ATOM     17  C   UNL     1      -2.009   4.203  -3.925  0.00  0.00    +0.011 A 
ATOM     18  C   UNL     1      -3.077   4.950  -4.376  0.00  0.00    +0.016 A 
ATOM     19  C   UNL     1      -3.508   4.825  -5.686  0.00  0.00    +0.018 A 
ATOM     20  C   UNL     1      -2.868   3.955  -6.553  0.00  0.00    +0.016 A 
ATOM     21  C   UNL     1      -1.796   3.207  -6.115  0.00  0.00    +0.011 A 
ATOM     22 BR   UNL     1      -4.978   5.848  -6.295  0.00  0.00    -0.050 Br
ENDBRANCH   3  16
BRANCH   1  27
ATOM     23  C   UNL     1       1.866   1.824   1.198  0.00  0.00    +0.162 A 
ATOM     24  C   UNL     1       3.126   2.399   1.184  0.00  0.00    +0.049 A 
ATOM     25  C   UNL     1       3.738   2.693  -0.020  0.00  0.00    +0.004 A 
ATOM     26  C   UNL     1       3.098   2.410  -1.212  0.00  0.00    +0.006 A 
ATOM     27  C   UNL     1       1.843   1.830  -1.205  0.00  0.00    -0.016 A 
ATOM     28  C   UNL     1       1.224   1.533  -0.001  0.00  0.00    +0.160 A 
BRANCH  28  29
ATOM     29  O   UNL     1      -0.011   0.963   0.007  0.00  0.00    -0.503 OA
ATOM     30  H   UNL     1       0.002  -0.004   0.002  0.00  0.00    +0.292 HD
ENDBRANCH  28  29
BRANCH  23  31
ATOM     31  O   UNL     1       1.260   1.539   2.382  0.00  0.00    -0.489 OA
BRANCH  31  33
ATOM     32  C   UNL     1       1.144   1.475   4.795  0.00  0.00    +0.048 C 
ATOM     33  C   UNL     1       1.978   1.865   3.574  0.00  0.00    +0.226 C 
ENDBRANCH  31  33
ENDBRANCH  23  31
ENDBRANCH   1  27
TORSDOF 6
