REMARK  Name = ZINC50093066
REMARK  8 active torsions:
REMARK  status: ('A' for Active; 'I' for Inactive)
REMARK    1  A    between atoms: C_1  and  C_2
REMARK    2  A    between atoms: C_3  and  S_9
REMARK    3  A    between atoms: C_4  and  C_8
REMARK    4  A    between atoms: S_9  and  N_12
REMARK    5  A    between atoms: N_12  and  C_13
REMARK    6  A    between atoms: N_12  and  C_14
REMARK    7  A    between atoms: C_14  and  C_21
REMARK    8  A    between atoms: C_21  and  N_22
REMARK                            x       y       z     vdW  Elec       q    Type
REMARK                         _______ _______ _______ _____ _____    ______ ____
ROOT
ATOM      1  N   UNL     1       1.293  -0.259  -3.075  0.00  0.00    -0.175 NA
ATOM      2  C   UNL     1       0.635  -0.810  -4.263  0.00  0.00    +0.132 C 
ENDROOT
BRANCH   1   3
ATOM      3  C   UNL     1       1.904   1.072  -3.128  0.00  0.00    +0.027 C 
ATOM      4  C   UNL     1       3.337   0.987  -2.563  0.00  0.00    +0.022 C 
ATOM      5  C   UNL     1       3.973  -0.281  -3.064  0.00  0.00    +0.002 C 
ATOM      6  C   UNL     1       4.799  -0.059  -4.346  0.00  0.00    +0.000 C 
ATOM      7  C   UNL     1       4.103   0.880  -5.350  0.00  0.00    +0.000 C 
ATOM      8  C   UNL     1       2.628   0.607  -5.466  0.00  0.00    +0.002 C 
ATOM      9  C   UNL     1       1.877   1.549  -4.503  0.00  0.00    +0.022 C 
BRANCH   3  10
ATOM     10  C   UNL     1       1.086   2.027  -2.256  0.00  0.00    -0.062 C 
BRANCH  10  11
ATOM     11  N   UNL     1      -0.327   1.965  -2.655  0.00  0.00    +0.379 N 
ATOM     12  H   UNL     1      -0.690   1.043  -2.466  0.00  0.00    -0.090 HD
ATOM     13  H   UNL     1      -0.854   2.649  -2.132  0.00  0.00    -0.090 HD
ATOM     14  H   UNL     1      -0.406   2.162  -3.642  0.00  0.00    -0.090 HD
ENDBRANCH  10  11
ENDBRANCH   3  10
ENDBRANCH   1   3
BRANCH   1  15
ATOM     15  S   UNL     1       1.347  -1.140  -1.674  0.00  0.00    +0.064 S 
ATOM     16  O   UNL     1       0.144  -1.895  -1.623  0.00  0.00    -0.153 OA
ATOM     17  O   UNL     1       1.725  -0.239  -0.642  0.00  0.00    -0.153 OA
BRANCH  15  20
ATOM     18  C   UNL     1       4.225  -1.280  -0.098  0.00  0.00    +0.067 C 
ATOM     19  C   UNL     1       3.825  -2.287  -1.146  0.00  0.00    +0.060 A 
ATOM     20  C   UNL     1       2.663  -2.299  -1.838  0.00  0.00    +0.148 A 
ATOM     21  C   UNL     1       2.691  -3.395  -2.707  0.00  0.00    +0.086 A 
ATOM     22  N   UNL     1       3.829  -4.019  -2.542  0.00  0.00    -0.177 NA
ATOM     23  N   UNL     1       4.565  -3.335  -1.565  0.00  0.00    -0.280 N 
ATOM     24  H   UNL     1       5.449  -3.574  -1.245  0.00  0.00    +0.189 HD
ATOM     25  C   UNL     1       1.599  -3.790  -3.667  0.00  0.00    +0.069 C 
ENDBRANCH  15  20
ENDBRANCH   1  15
TORSDOF 5
