REMARK  Name = ZINC58670158
REMARK  14 active torsions:
REMARK  status: ('A' for Active; 'I' for Inactive)
REMARK    1  A    between atoms: C_1  and  C_2
REMARK    2  A    between atoms: C_2  and  C_3
REMARK    3  A    between atoms: C_2  and  N_4
REMARK    4  A    between atoms: N_4  and  C_5
REMARK    5  A    between atoms: N_4  and  C_32
REMARK    6  A    between atoms: C_5  and  C_6
REMARK    7  A    between atoms: C_6  and  N_7
REMARK    8  A    between atoms: C_17  and  S_18
REMARK    9  A    between atoms: S_18  and  C_19
REMARK   10  A    between atoms: C_19  and  C_20
REMARK   11  A    between atoms: N_24  and  C_25
REMARK   12  A    between atoms: C_25  and  C_26
REMARK   13  A    between atoms: C_32  and  C_33
REMARK   14  A    between atoms: C_32  and  C_34
REMARK                            x       y       z     vdW  Elec       q    Type
REMARK                         _______ _______ _______ _____ _____    ______ ____
ROOT
ATOM      1  N   UNL     1      -3.164   1.948  -2.266  0.00  0.00    -0.289 N 
ATOM      2  C   UNL     1      -2.572   2.233  -3.449  0.00  0.00    +0.262 A 
ATOM      3  O   UNL     1      -1.368   2.124  -3.595  0.00  0.00    -0.267 OA
ATOM      4  C   UNL     1      -3.436   2.680  -4.550  0.00  0.00    +0.065 A 
ATOM      5  C   UNL     1      -2.922   2.997  -5.807  0.00  0.00    +0.015 A 
ATOM      6  C   UNL     1      -3.771   3.407  -6.798  0.00  0.00    +0.001 A 
ATOM      7  C   UNL     1      -5.136   3.510  -6.565  0.00  0.00    +0.002 A 
ATOM      8  C   UNL     1      -5.666   3.206  -5.343  0.00  0.00    +0.028 A 
ATOM      9  C   UNL     1      -4.824   2.784  -4.310  0.00  0.00    +0.079 A 
ATOM     10  N   UNL     1      -5.305   2.473  -3.089  0.00  0.00    -0.223 NA
ATOM     11  C   UNL     1      -4.517   2.072  -2.122  0.00  0.00    +0.172 A 
ENDROOT
BRANCH   1  12
ATOM     12  C   UNL     1      -2.350   1.499  -1.134  0.00  0.00    +0.109 C 
BRANCH  12  13
ATOM     13  C   UNL     1      -2.237  -0.026  -1.162  0.00  0.00    -0.056 C 
BRANCH  13  14
ATOM     14  N   UNL     1      -1.553  -0.489   0.054  0.00  0.00    +0.384 N 
ATOM     15  H   UNL     1      -2.020  -0.113   0.866  0.00  0.00    -0.081 HD
BRANCH  14  17
ATOM     16  C   UNL     1       0.316   0.104  -1.414  0.00  0.00    -0.014 C 
ATOM     17  C   UNL     1      -0.158  -0.029   0.035  0.00  0.00    -0.074 C 
ATOM     18  C   UNL     1      -0.059   1.329   0.731  0.00  0.00    -0.014 C 
ENDBRANCH  14  17
BRANCH  14  19
ATOM     19  C   UNL     1      -1.585  -1.956   0.105  0.00  0.00    -0.074 C 
ATOM     20  C   UNL     1      -0.984  -2.433   1.429  0.00  0.00    -0.014 C 
ATOM     21  C   UNL     1      -3.033  -2.439  -0.001  0.00  0.00    -0.014 C 
ENDBRANCH  14  19
ENDBRANCH  13  14
ENDBRANCH  12  13
ENDBRANCH   1  12
BRANCH  11  22
ATOM     22  S   UNL     1      -5.235   1.680  -0.561  0.00  0.00    -0.080 S 
BRANCH  22  23
ATOM     23  C   UNL     1      -7.008   1.976  -0.807  0.00  0.00    +0.151 C 
BRANCH  23  24
ATOM     24  C   UNL     1      -7.749   1.675   0.470  0.00  0.00    +0.120 A 
ATOM     25  N   UNL     1      -8.158   0.496   0.852  0.00  0.00    -0.240 NA
ATOM     26  C   UNL     1      -8.778   0.605   2.037  0.00  0.00    +0.130 A 
ATOM     27  C   UNL     1      -8.752   1.901   2.402  0.00  0.00    +0.107 A 
ATOM     28  N   UNL     1      -8.095   2.579   1.411  0.00  0.00    -0.329 N 
BRANCH  28  29
ATOM     29  C   UNL     1      -7.820   4.018   1.377  0.00  0.00    +0.158 C 
BRANCH  29  30
ATOM     30  C   UNL     1      -8.953   4.729   0.684  0.00  0.00    -0.028 A 
ATOM     31  C   UNL     1      -8.958   4.843  -0.694  0.00  0.00    +0.005 A 
ATOM     32  C   UNL     1      -9.997   5.496  -1.330  0.00  0.00    +0.000 A 
ATOM     33  C   UNL     1     -11.033   6.033  -0.589  0.00  0.00    +0.000 A 
ATOM     34  C   UNL     1     -11.029   5.918   0.789  0.00  0.00    +0.000 A 
ATOM     35  C   UNL     1      -9.991   5.262   1.425  0.00  0.00    +0.005 A 
ENDBRANCH  29  30
ENDBRANCH  28  29
ENDBRANCH  23  24
ENDBRANCH  22  23
ENDBRANCH  11  22
TORSDOF 10
