REMARK  Name = ZINC31045816
REMARK  7 active torsions:
REMARK  status: ('A' for Active; 'I' for Inactive)
REMARK    1  A    between atoms: C_4  and  C_7
REMARK    2  A    between atoms: C_8  and  C_9
REMARK    3  A    between atoms: C_9  and  N_10
REMARK    4  A    between atoms: C_16  and  C_18
REMARK    5  A    between atoms: N_23  and  C_25
REMARK    6  A    between atoms: C_25  and  C_26
REMARK    7  A    between atoms: C_28  and  C_31
REMARK                            x       y       z     vdW  Elec       q    Type
REMARK                         _______ _______ _______ _____ _____    ______ ____
ROOT
ATOM      1  C   UNL     1       4.869   0.627  -5.870  0.00  0.00    +0.059 C 
ATOM      2  C   UNL     1       4.415   1.956  -6.480  0.00  0.00    +0.009 C 
ATOM      3  C   UNL     1       3.857   1.701  -7.883  0.00  0.00    -0.018 C 
ATOM      4  C   UNL     1       4.931   1.026  -8.739  0.00  0.00    -0.078 C 
ATOM      5  N   UNL     1       5.332  -0.241  -8.114  0.00  0.00    +0.386 N 
ATOM      6  C   UNL     1       5.914  -0.017  -6.785  0.00  0.00    -0.065 C 
ATOM      7  H   UNL     1       4.426  -0.852  -7.985  0.00  0.00    -0.081 HD
ENDROOT
BRANCH   1  14
ATOM      8  N   UNL     1       6.356  -2.357  -2.197  0.00  0.00    -0.296 NA
ATOM      9  C   UNL     1       5.823  -2.520  -3.557  0.00  0.00    +0.103 C 
ATOM     10  C   UNL     1       4.826  -1.393  -3.849  0.00  0.00    +0.123 C 
ATOM     11  N   UNL     1       5.487  -0.105  -3.590  0.00  0.00    -0.299 N 
ATOM     12  C   UNL     1       6.164   0.082  -2.298  0.00  0.00    +0.123 C 
ATOM     13  C   UNL     1       7.108  -1.102  -2.066  0.00  0.00    +0.103 C 
ATOM     14  C   UNL     1       5.474   0.877  -4.513  0.00  0.00    +0.217 C 
ATOM     15  O   UNL     1       5.949   1.962  -4.251  0.00  0.00    -0.275 OA
BRANCH   8  16
ATOM     16  C   UNL     1       7.183  -3.509  -1.815  0.00  0.00    +0.111 C 
BRANCH  16  18
ATOM     17  C   UNL     1       6.630  -5.822  -2.424  0.00  0.00    +0.005 C 
ATOM     18  C   UNL     1       6.319  -4.740  -1.724  0.00  0.00    -0.011 C 
BRANCH  17  22
ATOM     19  C   UNL     1       4.184  -9.286  -2.182  0.00  0.00    +0.000 A 
ATOM     20  C   UNL     1       5.303  -9.288  -2.996  0.00  0.00    +0.001 A 
ATOM     21  C   UNL     1       6.101  -8.166  -3.079  0.00  0.00    +0.008 A 
ATOM     22  C   UNL     1       5.779  -7.028  -2.339  0.00  0.00    -0.025 A 
ATOM     23  C   UNL     1       4.653  -7.034  -1.515  0.00  0.00    +0.008 A 
ATOM     24  C   UNL     1       3.859  -8.160  -1.446  0.00  0.00    +0.001 A 
ENDBRANCH  17  22
ENDBRANCH  16  18
ENDBRANCH   8  16
ENDBRANCH   1  14
BRANCH   5  25
ATOM     25  C   UNL     1       6.260  -0.983  -8.977  0.00  0.00    +0.022 C 
BRANCH  25  26
ATOM     26  C   UNL     1       7.553  -0.219  -9.099  0.00  0.00    +0.211 A 
ATOM     27  N   UNL     1       8.599  -0.331  -8.319  0.00  0.00    -0.193 NA
ATOM     28  C   UNL     1       9.510   0.542  -8.806  0.00  0.00    +0.202 A 
ATOM     29  N   UNL     1       8.969   1.126  -9.843  0.00  0.00    -0.056 NA
ATOM     30  O   UNL     1       7.850   0.697 -10.026  0.00  0.00    -0.340 OA
BRANCH  28  31
ATOM     31  C   UNL     1      10.870   0.789  -8.264  0.00  0.00    +0.023 A 
ATOM     32  C   UNL     1      11.313   0.093  -7.142  0.00  0.00    +0.013 A 
ATOM     33  C   UNL     1      12.580   0.322  -6.647  0.00  0.00    +0.021 A 
ATOM     34  C   UNL     1      13.406   1.252  -7.255  0.00  0.00    +0.041 A 
ATOM     35  C   UNL     1      12.968   1.951  -8.367  0.00  0.00    +0.021 A 
ATOM     36  C   UNL     1      11.705   1.724  -8.874  0.00  0.00    +0.013 A 
ATOM     37 CL   UNL     1      14.997   1.541  -6.622  0.00  0.00    -0.084 Cl
ENDBRANCH  28  31
ENDBRANCH  25  26
ENDBRANCH   5  25
TORSDOF 7
