REMARK  Name = ZINC09536193
REMARK  11 active torsions:
REMARK  status: ('A' for Active; 'I' for Inactive)
REMARK    1  A    between atoms: C_1  and  C_2
REMARK    2  A    between atoms: C_5  and  S_8
REMARK    3  A    between atoms: S_8  and  N_11
REMARK    4  A    between atoms: N_11  and  C_12
REMARK    5  A    between atoms: N_11  and  C_13
REMARK    6  A    between atoms: C_16  and  C_19
REMARK    7  A    between atoms: N_21  and  C_22
REMARK    8  A    between atoms: C_22  and  C_23
REMARK    9  A    between atoms: C_23  and  C_25
REMARK   10  A    between atoms: C_23  and  N_66
REMARK   11  A    between atoms: C_28  and  C_30
REMARK                            x       y       z     vdW  Elec       q    Type
REMARK                         _______ _______ _______ _____ _____    ______ ____
ROOT
ATOM      1  C   UNL     1       4.922   6.804  -3.725  0.00  0.00    +0.244 C 
ATOM      2  O   UNL     1       4.854   6.367  -4.857  0.00  0.00    -0.270 OA
ATOM      3  N   UNL     1       4.210   6.228  -2.736  0.00  0.00    -0.312 N 
ATOM      4  H   UNL     1       4.265   6.576  -1.832  0.00  0.00    +0.149 HD
ENDROOT
BRANCH   1   8
ATOM      5  C   UNL     1       7.403  10.146  -2.884  0.00  0.00    +0.051 A 
ATOM      6  C   UNL     1       7.326   9.647  -4.181  0.00  0.00    +0.025 A 
ATOM      7  C   UNL     1       6.523   8.564  -4.457  0.00  0.00    +0.015 A 
ATOM      8  C   UNL     1       5.784   7.965  -3.433  0.00  0.00    +0.037 A 
ATOM      9  C   UNL     1       5.859   8.472  -2.132  0.00  0.00    +0.015 A 
ATOM     10  C   UNL     1       6.668   9.552  -1.861  0.00  0.00    +0.025 A 
BRANCH   5  11
ATOM     11  N   UNL     1       8.215  11.241  -2.609  0.00  0.00    -0.206 N 
ATOM     12  C   UNL     1       9.383  11.516  -3.450  0.00  0.00    +0.157 C 
BRANCH  11  13
ATOM     13  S   UNL     1       7.863  12.232  -1.330  0.00  0.00    +0.074 S 
ATOM     14  O   UNL     1       8.445  13.495  -1.623  0.00  0.00    -0.150 OA
ATOM     15  O   UNL     1       6.476  12.076  -1.065  0.00  0.00    -0.150 OA
BRANCH  13  20
ATOM     16  C   UNL     1      10.793  10.058   3.476  0.00  0.00    +0.044 C 
ATOM     17  C   UNL     1      10.061  10.601   2.275  0.00  0.00    -0.050 A 
ATOM     18  C   UNL     1      10.717  11.425   1.381  0.00  0.00    +0.005 A 
ATOM     19  C   UNL     1      10.046  11.924   0.280  0.00  0.00    +0.029 A 
ATOM     20  C   UNL     1       8.719  11.597   0.073  0.00  0.00    +0.109 A 
ATOM     21  C   UNL     1       8.061  10.777   0.971  0.00  0.00    +0.029 A 
ATOM     22  C   UNL     1       8.734  10.275   2.069  0.00  0.00    +0.005 A 
ENDBRANCH  13  20
ENDBRANCH  11  13
ENDBRANCH   5  11
ENDBRANCH   1   8
BRANCH   3  23
ATOM     23  C   UNL     1       3.354   5.075  -3.026  0.00  0.00    +0.097 C 
BRANCH  23  24
ATOM     24  C   UNL     1       2.663   4.616  -1.740  0.00  0.00    +0.017 C 
BRANCH  24  30
ATOM     25  C   UNL     1       4.665   3.373  -1.182  0.00  0.00    -0.049 C 
ATOM     26  C   UNL     1       5.731   3.170  -0.102  0.00  0.00    +0.141 C 
ATOM     27  O   UNL     1       5.099   2.755   1.112  0.00  0.00    -0.383 OA
ATOM     28  C   UNL     1       4.128   3.684   1.602  0.00  0.00    +0.141 C 
ATOM     29  C   UNL     1       3.046   3.892   0.539  0.00  0.00    -0.049 C 
ATOM     30  N   UNL     1       3.688   4.373  -0.703  0.00  0.00    +0.390 N 
ATOM     31  H   UNL     1       4.179   5.252  -0.506  0.00  0.00    -0.081 HD
ENDBRANCH  24  30
BRANCH  24  32
ATOM     32  C   UNL     1       1.879   3.358  -2.012  0.00  0.00    +0.093 A 
ATOM     33  C   UNL     1       0.539   3.262  -2.063  0.00  0.00    +0.043 A 
ATOM     34  C   UNL     1       0.236   1.910  -2.347  0.00  0.00    +0.044 A 
ATOM     35  C   UNL     1       1.409   1.260  -2.446  0.00  0.00    +0.102 A 
ATOM     36  O   UNL     1       2.401   2.143  -2.245  0.00  0.00    -0.466 OA
ATOM     37  C   UNL     1       1.581  -0.208  -2.738  0.00  0.00    +0.086 C 
ENDBRANCH  24  32
ENDBRANCH  23  24
ENDBRANCH   3  23
TORSDOF 8
