REMARK  Name = ZINC66895949
REMARK  8 active torsions:
REMARK  status: ('A' for Active; 'I' for Inactive)
REMARK    1  A    between atoms: C_1  and  C_2
REMARK    2  A    between atoms: C_2  and  C_4
REMARK    3  A    between atoms: C_2  and  N_9
REMARK    4  A    between atoms: C_10  and  C_12
REMARK    5  A    between atoms: C_12  and  N_13
REMARK    6  A    between atoms: C_16  and  N_19
REMARK    7  A    between atoms: C_20  and  O_22
REMARK    8  A    between atoms: O_22  and  C_23
REMARK                            x       y       z     vdW  Elec       q    Type
REMARK                         _______ _______ _______ _____ _____    ______ ____
ROOT
ATOM      1  N   UNL     1      -3.954  -1.349  -2.540  0.00  0.00    +0.385 N 
ATOM      2  C   UNL     1      -4.051   0.030  -3.032  0.00  0.00    -0.076 C 
ATOM      3  C   UNL     1      -4.515   0.024  -4.490  0.00  0.00    +0.004 C 
ATOM      4  C   UNL     1      -5.888  -0.650  -4.581  0.00  0.00    +0.073 C 
ATOM      5  C   UNL     1      -5.791  -2.062  -3.996  0.00  0.00    +0.004 C 
ATOM      6  C   UNL     1      -5.280  -1.978  -2.557  0.00  0.00    -0.076 C 
ATOM      7  H   UNL     1      -3.327  -1.872  -3.133  0.00  0.00    -0.081 HD
ENDROOT
BRANCH   4   8
ATOM      8  N   UNL     1      -6.304  -0.727  -5.983  0.00  0.00    -0.278 N 
ATOM      9  C   UNL     1      -7.613  -0.796  -6.294  0.00  0.00    +0.406 C 
ATOM     10  O   UNL     1      -8.449  -0.795  -5.412  0.00  0.00    -0.226 OA
ATOM     11  H   UNL     1      -5.637  -0.729  -6.688  0.00  0.00    +0.152 HD
BRANCH   9  12
ATOM     12  O   UNL     1      -7.996  -0.868  -7.584  0.00  0.00    -0.412 OA
BRANCH  12  13
ATOM     13  C   UNL     1      -9.319  -1.039  -7.848  0.00  0.00    +0.133 A 
ATOM     14  C   UNL     1      -9.796  -2.286  -8.223  0.00  0.00    +0.046 A 
ATOM     15  C   UNL     1     -11.141  -2.457  -8.492  0.00  0.00    +0.004 A 
ATOM     16  C   UNL     1     -12.010  -1.387  -8.387  0.00  0.00    +0.000 A 
ATOM     17  C   UNL     1     -11.536  -0.143  -8.013  0.00  0.00    +0.004 A 
ATOM     18  C   UNL     1     -10.193   0.032  -7.738  0.00  0.00    +0.046 A 
ENDBRANCH  12  13
ENDBRANCH   9  12
ENDBRANCH   4   8
BRANCH   1  19
ATOM     19  C   UNL     1      -3.434  -1.342  -1.166  0.00  0.00    +0.019 C 
BRANCH  19  21
ATOM     20  N   UNL     1      -1.341  -0.710  -0.008  0.00  0.00    -0.307 N 
ATOM     21  C   UNL     1      -2.024  -0.809  -1.166  0.00  0.00    +0.197 C 
ATOM     22  O   UNL     1      -1.504  -0.469  -2.207  0.00  0.00    -0.278 OA
ATOM     23  H   UNL     1      -1.758  -0.982   0.825  0.00  0.00    +0.149 HD
BRANCH  20  25
ATOM     24  C   UNL     1      -0.004   1.336   0.052  0.00  0.00    +0.036 C 
ATOM     25  C   UNL     1       0.029  -0.192  -0.007  0.00  0.00    +0.136 C 
BRANCH  25  26
ATOM     26  C   UNL     1       0.767  -0.726   1.193  0.00  0.00    +0.125 A 
ATOM     27  C   UNL     1       2.048  -1.135   1.211  0.00  0.00    +0.046 A 
ATOM     28  C   UNL     1       2.326  -1.554   2.533  0.00  0.00    +0.041 A 
ATOM     29  C   UNL     1       1.198  -1.375   3.244  0.00  0.00    +0.195 A 
ATOM     30  O   UNL     1       0.259  -0.868   2.429  0.00  0.00    -0.466 OA
ENDBRANCH  25  26
ENDBRANCH  20  25
ENDBRANCH  19  21
ENDBRANCH   1  19
TORSDOF 7
