REMARK  Name = ZINC13190308
REMARK  7 active torsions:
REMARK  status: ('A' for Active; 'I' for Inactive)
REMARK    1  A    between atoms: C_10  and  N_12
REMARK    2  A    between atoms: N_12  and  C_13
REMARK    3  A    between atoms: C_16  and  S_22
REMARK    4  A    between atoms: C_18  and  N_19
REMARK    5  A    between atoms: S_22  and  N_25
REMARK    6  A    between atoms: N_25  and  C_26
REMARK    7  A    between atoms: C_30  and  C_32
REMARK                            x       y       z     vdW  Elec       q    Type
REMARK                         _______ _______ _______ _____ _____    ______ ____
ROOT
ATOM      1  C   UNL     1      -0.275   0.028   5.252  0.00  0.00    +0.058 A 
ATOM      2  C   UNL     1       0.681   0.849   4.665  0.00  0.00    +0.027 A 
ATOM      3  C   UNL     1       1.106   0.597   3.376  0.00  0.00    +0.031 A 
ATOM      4  C   UNL     1       0.574  -0.463   2.664  0.00  0.00    +0.111 A 
ATOM      5  C   UNL     1      -0.378  -1.281   3.245  0.00  0.00    +0.063 A 
ATOM      6  C   UNL     1      -0.803  -1.039   4.537  0.00  0.00    +0.149 A 
ENDROOT
BRANCH   6   7
ATOM      7  N   UNL     1      -1.822  -1.915   5.157  0.00  0.00    +0.058 N 
ATOM      8  O   UNL     1      -2.364  -2.782   4.496  0.00  0.00    -0.126 OA
ATOM      9  O   UNL     1      -2.118  -1.768   6.330  0.00  0.00    -0.126 OA
ENDBRANCH   6   7
BRANCH   4  10
ATOM     10  S   UNL     1       1.114  -0.775   1.016  0.00  0.00    +0.072 S 
ATOM     11  O   UNL     1       0.869  -2.152   0.763  0.00  0.00    -0.150 OA
ATOM     12  O   UNL     1       2.406  -0.196   0.896  0.00  0.00    -0.150 OA
BRANCH  10  13
ATOM     13  N   UNL     1       0.118   0.077   0.005  0.00  0.00    -0.216 N 
ATOM     14  H   UNL     1      -0.464  -0.393  -0.613  0.00  0.00    +0.174 HD
BRANCH  13  15
ATOM     15  C   UNL     1       0.115   1.474   0.040  0.00  0.00    +0.049 A 
ATOM     16  C   UNL     1       1.317   2.171   0.081  0.00  0.00    +0.024 A 
ATOM     17  C   UNL     1       1.320   3.552   0.117  0.00  0.00    +0.003 A 
ATOM     18  C   UNL     1       0.129   4.250   0.111  0.00  0.00    +0.015 A 
ATOM     19  C   UNL     1      -1.084   3.560   0.070  0.00  0.00    +0.065 A 
ATOM     20  C   UNL     1      -1.087   2.165   0.029  0.00  0.00    +0.039 A 
BRANCH  19  21
ATOM     21  C   UNL     1      -2.360   4.304   0.064  0.00  0.00    +0.387 C 
ATOM     22  O   UNL     1      -3.414   3.702   0.029  0.00  0.00    -0.241 OA
ATOM     23  O   UNL     1      -2.354   5.651   0.098  0.00  0.00    -0.241 OA
ENDBRANCH  19  21
ENDBRANCH  13  15
ENDBRANCH  10  13
ENDBRANCH   4  10
BRANCH   1  24
ATOM     24  N   UNL     1      -0.704   0.276   6.558  0.00  0.00    -0.335 N 
ATOM     25  H   UNL     1      -1.296  -0.351   7.001  0.00  0.00    +0.147 HD
BRANCH  24  35
ATOM     26  C   UNL     1      -2.821   4.706   6.097  0.00  0.00    +0.000 A 
ATOM     27  C   UNL     1      -2.373   3.787   5.166  0.00  0.00    +0.000 A 
ATOM     28  C   UNL     1      -1.549   2.755   5.564  0.00  0.00    +0.006 A 
ATOM     29  C   UNL     1      -1.165   2.631   6.893  0.00  0.00    -0.024 A 
ATOM     30  C   UNL     1      -1.614   3.544   7.821  0.00  0.00    -0.042 A 
ATOM     31  C   UNL     1      -2.442   4.584   7.417  0.00  0.00    +0.004 A 
ATOM     32  C   UNL     1      -1.251   3.462   9.280  0.00  0.00    +0.035 C 
ATOM     33  C   UNL     1      -0.033   2.564   9.481  0.00  0.00    +0.007 C 
ATOM     34  C   UNL     1      -0.289   1.233   8.764  0.00  0.00    +0.027 C 
ATOM     35  C   UNL     1      -0.259   1.484   7.258  0.00  0.00    +0.101 C 
ENDBRANCH  24  35
ENDBRANCH   1  24
TORSDOF 7
