REMARK  Name = ZINC66087636
REMARK  11 active torsions:
REMARK  status: ('A' for Active; 'I' for Inactive)
REMARK    1  A    between atoms: C_1  and  O_2
REMARK    2  A    between atoms: O_2  and  C_3
REMARK    3  A    between atoms: C_10  and  C_13
REMARK    4  A    between atoms: C_13  and  C_14
REMARK    5  A    between atoms: C_14  and  N_15
REMARK    6  A    between atoms: C_16  and  C_31
REMARK    7  A    between atoms: C_19  and  C_26
REMARK    8  A    between atoms: C_34  and  O_39
REMARK    9  A    between atoms: C_36  and  O_37
REMARK   10  A    between atoms: O_37  and  C_38
REMARK   11  A    between atoms: O_39  and  C_40
REMARK                            x       y       z     vdW  Elec       q    Type
REMARK                         _______ _______ _______ _____ _____    ______ ____
ROOT
ATOM      1  N   UNL     1       4.502  -6.900   4.577  0.00  0.00    -0.285 N 
ATOM      2  C   UNL     1       5.328  -6.914   5.791  0.00  0.00    +0.145 C 
ATOM      3  C   UNL     1       5.520  -8.363   6.148  0.00  0.00    +0.038 A 
ATOM      4  C   UNL     1       6.084  -9.299   7.024  0.00  0.00    +0.133 A 
ATOM      5  N   UNL     1       5.746 -10.499   6.590  0.00  0.00    -0.170 NA
ATOM      6  N   UNL     1       5.026 -10.412   5.529  0.00  0.00    -0.272 N 
ATOM      7  H   UNL     1       4.665 -11.167   5.038  0.00  0.00    +0.189 HD
ATOM      8  C   UNL     1       4.845  -9.100   5.195  0.00  0.00    +0.126 A 
ATOM      9  C   UNL     1       4.222  -8.173   4.243  0.00  0.00    +0.265 C 
ATOM     10  O   UNL     1       3.550  -8.507   3.286  0.00  0.00    -0.268 OA
ENDROOT
BRANCH   2  11
ATOM     11  C   UNL     1       6.661  -6.265   5.519  0.00  0.00    +0.019 A 
ATOM     12  C   UNL     1       7.114  -6.136   4.220  0.00  0.00    +0.013 A 
ATOM     13  C   UNL     1       8.335  -5.541   3.968  0.00  0.00    +0.046 A 
ATOM     14  C   UNL     1       9.110  -5.072   5.019  0.00  0.00    +0.124 A 
ATOM     15  C   UNL     1       8.658  -5.200   6.323  0.00  0.00    +0.091 A 
ATOM     16  C   UNL     1       7.429  -5.792   6.573  0.00  0.00    +0.129 A 
BRANCH  16  17
ATOM     17  O   UNL     1       6.981  -5.913   7.850  0.00  0.00    -0.495 OA
ATOM     18  C   UNL     1       7.824  -5.404   8.886  0.00  0.00    +0.277 C 
ENDBRANCH  16  17
BRANCH  14  19
ATOM     19  O   UNL     1      10.311  -4.487   4.770  0.00  0.00    -0.495 OA
ATOM     20  C   UNL     1      10.714  -4.389   3.402  0.00  0.00    +0.277 C 
ENDBRANCH  14  19
ENDBRANCH   2  11
BRANCH   4  21
ATOM     21  C   UNL     1       6.907  -8.998   8.216  0.00  0.00    +0.155 A 
ATOM     22  C   UNL     1       6.915  -9.702   9.378  0.00  0.00    +0.051 A 
ATOM     23  C   UNL     1       7.839  -9.066  10.232  0.00  0.00    +0.042 A 
ATOM     24  C   UNL     1       8.343  -8.017   9.556  0.00  0.00    +0.196 A 
ATOM     25  O   UNL     1       7.782  -7.981   8.336  0.00  0.00    -0.461 OA
ENDBRANCH   4  21
BRANCH   1  26
ATOM     26  C   UNL     1       4.054  -5.705   3.858  0.00  0.00    +0.115 C 
BRANCH  26  27
ATOM     27  C   UNL     1       2.710  -5.243   4.424  0.00  0.00    +0.072 C 
BRANCH  27  35
ATOM     28  C   UNL     1       0.626  -0.619   1.042  0.00  0.00    +0.121 A 
ATOM     29  C   UNL     1       1.204   0.145   2.054  0.00  0.00    +0.047 A 
ATOM     30  C   UNL     1       1.839  -0.461   3.114  0.00  0.00    +0.030 A 
ATOM     31  C   UNL     1       1.909  -1.849   3.182  0.00  0.00    +0.047 A 
ATOM     32  C   UNL     1       1.327  -2.623   2.162  0.00  0.00    +0.003 A 
ATOM     33  C   UNL     1       0.680  -1.997   1.094  0.00  0.00    +0.055 A 
ATOM     34  C   UNL     1       1.570  -4.021   2.526  0.00  0.00    +0.031 A 
ATOM     35  C   UNL     1       2.249  -4.014   3.683  0.00  0.00    +0.018 A 
ATOM     36  N   UNL     1       2.461  -2.726   4.092  0.00  0.00    -0.358 N 
ATOM     37  H   UNL     1       2.931  -2.467   4.900  0.00  0.00    +0.166 HD
BRANCH  28  39
ATOM     38  C   UNL     1      -0.017   1.425   0.010  0.00  0.00    +0.277 C 
ATOM     39  O   UNL     1       0.002  -0.004   0.002  0.00  0.00    -0.495 OA
ENDBRANCH  28  39
ENDBRANCH  27  35
ENDBRANCH  26  27
ENDBRANCH   1  26
TORSDOF 8
