REMARK  Name = ZINC10053439
REMARK  10 active torsions:
REMARK  status: ('A' for Active; 'I' for Inactive)
REMARK    1  A    between atoms: C_1  and  C_2
REMARK    2  A    between atoms: C_8  and  C_9
REMARK    3  A    between atoms: C_8  and  N_53
REMARK    4  A    between atoms: N_11  and  C_12
REMARK    5  A    between atoms: C_12  and  C_14
REMARK    6  A    between atoms: C_12  and  C_22
REMARK    7  A    between atoms: C_17  and  O_20
REMARK    8  A    between atoms: O_20  and  C_21
REMARK    9  A    between atoms: C_22  and  C_23
REMARK   10  A    between atoms: C_22  and  C_24
REMARK                            x       y       z     vdW  Elec       q    Type
REMARK                         _______ _______ _______ _____ _____    ______ ____
ROOT
ATOM      1  C   UNL     1      -4.455  -0.214   0.139  0.00  0.00    +0.197 C 
ATOM      2  O   UNL     1      -3.480  -0.934   0.189  0.00  0.00    -0.278 OA
ATOM      3  N   UNL     1      -5.690  -0.751   0.164  0.00  0.00    -0.310 N 
ATOM      4  H   UNL     1      -6.470  -0.176   0.123  0.00  0.00    +0.149 HD
ENDROOT
BRANCH   1   5
ATOM      5  C   UNL     1      -4.284   1.280   0.048  0.00  0.00    +0.019 C 
BRANCH   5  12
ATOM      6  C   UNL     1      -2.914   1.605   2.484  0.00  0.00    -0.013 C 
ATOM      7  C   UNL     1      -2.185   1.096   1.239  0.00  0.00    -0.071 C 
ATOM      8  C   UNL     1      -0.732   1.581   1.266  0.00  0.00    -0.016 C 
ATOM      9  C   UNL     1      -0.013   1.086   0.008  0.00  0.00    -0.003 C 
ATOM     10  C   UNL     1      -0.756   1.594  -1.230  0.00  0.00    -0.019 C 
ATOM     11  C   UNL     1      -2.207   1.109  -1.184  0.00  0.00    -0.078 C 
ATOM     12  N   UNL     1      -2.851   1.640   0.036  0.00  0.00    +0.387 N 
ATOM     13  H   UNL     1      -2.764   2.663   0.041  0.00  0.00    -0.081 HD
ENDBRANCH   5  12
ENDBRANCH   1   5
BRANCH   3  14
ATOM     14  C   UNL     1      -5.856  -2.204   0.252  0.00  0.00    +0.106 C 
BRANCH  14  15
ATOM     15  C   UNL     1      -7.197  -2.520   0.865  0.00  0.00    -0.027 A 
ATOM     16  C   UNL     1      -8.306  -1.770   0.522  0.00  0.00    +0.009 A 
ATOM     17  C   UNL     1      -9.537  -2.062   1.077  0.00  0.00    +0.046 A 
ATOM     18  C   UNL     1      -9.656  -3.100   1.990  0.00  0.00    +0.120 A 
ATOM     19  C   UNL     1      -8.540  -3.848   2.337  0.00  0.00    +0.046 A 
ATOM     20  C   UNL     1      -7.313  -3.556   1.773  0.00  0.00    +0.009 A 
BRANCH  18  21
ATOM     21  O   UNL     1     -10.865  -3.385   2.542  0.00  0.00    -0.495 OA
ATOM     22  C   UNL     1     -11.970  -2.574   2.139  0.00  0.00    +0.277 C 
ENDBRANCH  18  21
ENDBRANCH  14  15
BRANCH  14  23
ATOM     23  C   UNL     1      -5.780  -2.813  -1.149  0.00  0.00    +0.008 C 
ATOM     24  C   UNL     1      -4.419  -2.492  -1.771  0.00  0.00    +0.009 C 
ATOM     25  C   UNL     1      -5.953  -4.330  -1.057  0.00  0.00    +0.009 C 
ENDBRANCH  14  23
ENDBRANCH   3  14
TORSDOF 6
