REMARK  Name = ZINC39525933
REMARK  4 active torsions:
REMARK  status: ('A' for Active; 'I' for Inactive)
REMARK    1  A    between atoms: C_1  and  S_2
REMARK    2  A    between atoms: S_2  and  C_3
REMARK    3  A    between atoms: C_14  and  C_17
REMARK    4  A    between atoms: C_22  and  O_23
REMARK                            x       y       z     vdW  Elec       q    Type
REMARK                         _______ _______ _______ _____ _____    ______ ____
ROOT
ATOM      1  C   UNL     1       0.873  -0.423  -1.533  0.00  0.00    +0.124 C 
ATOM      2  C   UNL     1      -0.056  -0.189  -2.727  0.00  0.00    +0.031 C 
ATOM      3  C   UNL     1       0.678  -0.563  -4.018  0.00  0.00    +0.004 C 
ATOM      4  C   UNL     1       1.132  -2.022  -3.934  0.00  0.00    +0.023 C 
ATOM      5  C   UNL     1       2.026  -2.204  -2.705  0.00  0.00    +0.033 C 
ATOM      6  N   UNL     1       1.280  -1.833  -1.496  0.00  0.00    -0.228 NA
ATOM      7  I   UNL     1       2.368  -2.240   0.193  0.00  0.00    +0.022 I 
ATOM      8  C   UNL     1       2.465  -3.666  -2.606  0.00  0.00    +0.023 C 
ATOM      9  C   UNL     1       3.240  -4.052  -3.868  0.00  0.00    +0.002 C 
ATOM     10  C   UNL     1       4.474  -3.158  -4.001  0.00  0.00    +0.008 C 
ATOM     11  C   UNL     1       4.036  -1.695  -4.098  0.00  0.00    +0.024 C 
ATOM     12  C   UNL     1       3.261  -1.309  -2.837  0.00  0.00    +0.031 C 
ENDROOT
BRANCH  11  13
ATOM     13  C   UNL     1       5.252  -0.814  -4.229  0.00  0.00    -0.003 A 
ATOM     14  C   UNL     1       6.215  -0.813  -3.238  0.00  0.00    +0.007 A 
ATOM     15  C   UNL     1       7.330  -0.005  -3.357  0.00  0.00    +0.001 A 
ATOM     16  C   UNL     1       7.486   0.804  -4.468  0.00  0.00    +0.004 A 
ATOM     17  C   UNL     1       6.526   0.806  -5.461  0.00  0.00    +0.046 A 
ATOM     18  C   UNL     1       5.409  -0.008  -5.347  0.00  0.00    +0.120 A 
BRANCH  18  19
ATOM     19  O   UNL     1       4.466  -0.011  -6.326  0.00  0.00    -0.506 OA
ATOM     20  H   UNL     1       3.764   0.641  -6.198  0.00  0.00    +0.292 HD
ENDBRANCH  18  19
ENDBRANCH  11  13
BRANCH   1  22
ATOM     21  C   UNL     1      -0.022   1.810   0.012  0.00  0.00    +0.086 C 
ATOM     22  S   UNL     1       0.002  -0.004   0.002  0.00  0.00    -0.144 S 
ENDBRANCH   1  22
TORSDOF 3
