REMARK  Name = ZINC12756336
REMARK  8 active torsions:
REMARK  status: ('A' for Active; 'I' for Inactive)
REMARK    1  A    between atoms: C_1  and  C_2
REMARK    2  A    between atoms: C_5  and  C_31
REMARK    3  A    between atoms: C_6  and  N_8
REMARK    4  A    between atoms: C_9  and  C_11
REMARK    5  A    between atoms: C_11  and  C_13
REMARK    6  A    between atoms: C_11  and  N_61
REMARK    7  A    between atoms: C_16  and  C_19
REMARK    8  A    between atoms: C_19  and  C_21
REMARK                            x       y       z     vdW  Elec       q    Type
REMARK                         _______ _______ _______ _____ _____    ______ ____
ROOT
ATOM      1  C   UNL     1      -7.485  -0.227  -0.521  0.00  0.00    -0.077 C 
ATOM      2  C   UNL     1      -6.158  -0.981  -0.635  0.00  0.00    -0.007 C 
ATOM      3  C   UNL     1      -5.027  -0.097  -0.103  0.00  0.00    +0.057 C 
ATOM      4  C   UNL     1      -5.331   0.293   1.346  0.00  0.00    -0.007 C 
ATOM      5  C   UNL     1      -6.683   1.009   1.403  0.00  0.00    -0.077 C 
ATOM      6  N   UNL     1      -7.732   0.097   0.900  0.00  0.00    +0.387 N 
ATOM      7  H   UNL     1      -7.709  -0.771   1.448  0.00  0.00    -0.081 HD
ENDROOT
BRANCH   6   8
ATOM      8  C   UNL     1      -9.061   0.725   1.051  0.00  0.00    +0.016 C 
ATOM      9  C   UNL     1      -9.335   0.949   2.540  0.00  0.00    -0.004 C 
BRANCH   8  11
ATOM     10  N   UNL     1     -10.221   2.804   0.381  0.00  0.00    -0.287 N 
ATOM     11  C   UNL     1      -9.108   2.045   0.327  0.00  0.00    +0.203 C 
ATOM     12  O   UNL     1      -8.145   2.426  -0.304  0.00  0.00    -0.277 OA
ATOM     13  H   UNL     1     -10.971   2.526   0.929  0.00  0.00    +0.155 HD
BRANCH  10  19
ATOM     14  C   UNL     1      -7.994   6.772  -1.481  0.00  0.00    +0.044 C 
ATOM     15  C   UNL     1      -9.230   5.935  -1.272  0.00  0.00    -0.049 A 
ATOM     16  C   UNL     1     -10.439   6.342  -1.807  0.00  0.00    +0.004 A 
ATOM     17  C   UNL     1     -11.575   5.577  -1.618  0.00  0.00    +0.005 A 
ATOM     18  C   UNL     1     -11.506   4.404  -0.893  0.00  0.00    -0.029 A 
ATOM     19  C   UNL     1     -10.294   3.992  -0.354  0.00  0.00    +0.036 A 
ATOM     20  C   UNL     1      -9.156   4.766  -0.541  0.00  0.00    +0.027 A 
ATOM     21  C   UNL     1     -12.745   3.571  -0.686  0.00  0.00    +0.045 C 
ENDBRANCH  10  19
ENDBRANCH   8  11
ENDBRANCH   6   8
BRANCH   3  22
ATOM     22  C   UNL     1      -3.726  -0.857  -0.158  0.00  0.00    +0.166 C 
ATOM     23  O   UNL     1      -3.731  -2.070  -0.135  0.00  0.00    -0.292 OA
BRANCH  22  24
ATOM     24  C   UNL     1      -2.453  -0.129  -0.238  0.00  0.00    +0.021 A 
ATOM     25  C   UNL     1      -2.445   1.271  -0.266  0.00  0.00    +0.015 A 
ATOM     26  C   UNL     1      -1.251   1.950  -0.347  0.00  0.00    +0.050 A 
ATOM     27  C   UNL     1      -0.049   1.251  -0.395  0.00  0.00    +0.162 A 
ATOM     28  C   UNL     1      -0.049  -0.142  -0.366  0.00  0.00    +0.163 A 
ATOM     29  C   UNL     1      -1.244  -0.831  -0.289  0.00  0.00    +0.060 A 
ATOM     30  O   UNL     1       1.120  -0.840  -0.411  0.00  0.00    -0.485 OA
ATOM     31  C   UNL     1       2.276  -0.128  -0.865  0.00  0.00    +0.270 C 
ATOM     32  C   UNL     1       2.315   1.229  -0.148  0.00  0.00    +0.270 C 
ATOM     33  O   UNL     1       1.118   1.943  -0.475  0.00  0.00    -0.485 OA
ENDBRANCH  22  24
ENDBRANCH   3  22
TORSDOF 5
