REMARK  Name = ZINC14462620
REMARK  6 active torsions:
REMARK  status: ('A' for Active; 'I' for Inactive)
REMARK    1  A    between atoms: C_1  and  C_2
REMARK    2  A    between atoms: C_2  and  C_3
REMARK    3  A    between atoms: C_2  and  C_4
REMARK    4  A    between atoms: C_7  and  C_10
REMARK    5  A    between atoms: C_21  and  S_26
REMARK    6  A    between atoms: S_26  and  N_29
REMARK                            x       y       z     vdW  Elec       q    Type
REMARK                         _______ _______ _______ _____ _____    ______ ____
ROOT
ATOM      1  C   UNL     1       2.333   4.215  -0.439  0.00  0.00    +0.105 C 
ATOM      2  C   UNL     1       3.559   3.650   0.283  0.00  0.00    +0.029 C 
ATOM      3  C   UNL     1       4.820   4.182  -0.459  0.00  0.00    +0.033 C 
ATOM      4  C   UNL     1       4.963   3.232  -1.633  0.00  0.00    -0.030 C 
ATOM      5  C   UNL     1       4.345   2.103  -1.387  0.00  0.00    -0.023 C 
ATOM      6  C   UNL     1       3.701   2.146  -0.021  0.00  0.00    +0.049 C 
ATOM      7  C   UNL     1       2.392   1.422  -0.013  0.00  0.00    -0.018 A 
ATOM      8  C   UNL     1       2.398   0.034  -0.019  0.00  0.00    +0.034 A 
ATOM      9  C   UNL     1       1.213  -0.673  -0.012  0.00  0.00    +0.105 A 
ATOM     10  C   UNL     1       0.002  -0.004   0.002  0.00  0.00    +0.030 A 
ATOM     11  C   UNL     1      -0.017   1.376   0.010  0.00  0.00    +0.025 A 
ATOM     12  C   UNL     1       1.177   2.088   0.002  0.00  0.00    +0.031 A 
ATOM     13  N   UNL     1       1.141   3.486   0.006  0.00  0.00    -0.336 N 
ATOM     14  H   UNL     1       0.347   3.962   0.297  0.00  0.00    +0.147 HD
ENDROOT
BRANCH   1  18
ATOM     15  C   UNL     1       1.908   8.361   0.497  0.00  0.00    -0.045 A 
ATOM     16  C   UNL     1       2.482   7.979  -0.701  0.00  0.00    +0.004 A 
ATOM     17  C   UNL     1       2.619   6.637  -1.004  0.00  0.00    +0.006 A 
ATOM     18  C   UNL     1       2.183   5.678  -0.109  0.00  0.00    -0.027 A 
ATOM     19  C   UNL     1       1.604   6.061   1.087  0.00  0.00    +0.006 A 
ATOM     20  C   UNL     1       1.471   7.402   1.392  0.00  0.00    +0.004 A 
BRANCH  15  22
ATOM     21  C   UNL     1       0.278  10.153   1.028  0.00  0.00    +0.012 C 
ATOM     22  C   UNL     1       1.759   9.824   0.828  0.00  0.00    +0.013 C 
ATOM     23  C   UNL     1       2.529  10.137   2.112  0.00  0.00    +0.012 C 
ENDBRANCH  15  22
ENDBRANCH   1  18
BRANCH   9  24
ATOM     24  S   UNL     1       1.242  -2.434  -0.021  0.00  0.00    +0.056 S 
ATOM     25  O   UNL     1       2.498  -2.823   0.517  0.00  0.00    -0.153 OA
ATOM     26  O   UNL     1       0.008  -2.864   0.539  0.00  0.00    -0.153 OA
BRANCH  24  27
ATOM     27  N   UNL     1       1.235  -2.916  -1.605  0.00  0.00    -0.204 NA
ATOM     28  H   UNL     1       1.667  -3.747  -1.861  0.00  0.00    +0.144 HD
ATOM     29  H   UNL     1       0.800  -2.369  -2.277  0.00  0.00    +0.144 HD
ENDBRANCH  24  27
ENDBRANCH   9  24
TORSDOF 4
