REMARK  Name = ZINC40485765
REMARK  7 active torsions:
REMARK  status: ('A' for Active; 'I' for Inactive)
REMARK    1  A    between atoms: C_1  and  O_2
REMARK    2  A    between atoms: O_2  and  C_3
REMARK    3  A    between atoms: C_6  and  C_9
REMARK    4  A    between atoms: C_10  and  O_31
REMARK    5  A    between atoms: N_13  and  C_23
REMARK    6  A    between atoms: C_14  and  C_16
REMARK    7  A    between atoms: C_23  and  C_24
REMARK                            x       y       z     vdW  Elec       q    Type
REMARK                         _______ _______ _______ _____ _____    ______ ____
ROOT
ATOM      1  C   UNL     1      -4.952  -2.614   0.036  0.00  0.00    +0.031 C 
ATOM      2  C   UNL     1      -5.885  -2.588  -0.942  0.00  0.00    +0.185 C 
ATOM      3  C   UNL     1      -7.034  -3.401  -0.541  0.00  0.00    +0.282 C 
ATOM      4  O   UNL     1      -8.034  -3.572  -1.213  0.00  0.00    -0.267 OA
ATOM      5  N   UNL     1      -6.825  -3.932   0.677  0.00  0.00    -0.279 N 
ATOM      6  C   UNL     1      -5.503  -3.489   1.138  0.00  0.00    +0.142 C 
ENDROOT
BRANCH   6   7
ATOM      7  C   UNL     1      -4.602  -4.677   1.358  0.00  0.00    -0.022 A 
ATOM      8  C   UNL     1      -4.653  -5.753   0.491  0.00  0.00    +0.007 A 
ATOM      9  C   UNL     1      -3.826  -6.842   0.692  0.00  0.00    +0.015 A 
ATOM     10  C   UNL     1      -2.948  -6.855   1.761  0.00  0.00    +0.018 A 
ATOM     11  C   UNL     1      -2.897  -5.779   2.628  0.00  0.00    +0.015 A 
ATOM     12  C   UNL     1      -3.721  -4.688   2.423  0.00  0.00    +0.007 A 
ATOM     13 BR   UNL     1      -1.817  -8.346   2.037  0.00  0.00    -0.050 Br
ENDBRANCH   6   7
BRANCH   1  17
ATOM     14  C   UNL     1      -1.199  -0.637   0.010  0.00  0.00    +0.120 A 
ATOM     15  C   UNL     1      -2.373   0.106   0.020  0.00  0.00    +0.046 A 
ATOM     16  C   UNL     1      -3.594  -0.530   0.028  0.00  0.00    +0.012 A 
ATOM     17  C   UNL     1      -3.651  -1.929   0.027  0.00  0.00    -0.016 A 
ATOM     18  C   UNL     1      -2.466  -2.672   0.017  0.00  0.00    +0.012 A 
ATOM     19  C   UNL     1      -1.250  -2.026   0.003  0.00  0.00    +0.046 A 
BRANCH  14  21
ATOM     20  C   UNL     1      -0.017   1.425   0.010  0.00  0.00    +0.277 C 
ATOM     21  O   UNL     1       0.002  -0.004   0.002  0.00  0.00    -0.495 OA
ENDBRANCH  14  21
ENDBRANCH   1  17
BRANCH   2  22
ATOM     22  O   UNL     1      -5.773  -1.912  -2.117  0.00  0.00    -0.502 OA
ATOM     23  H   UNL     1      -6.539  -2.007  -2.700  0.00  0.00    +0.292 HD
ENDBRANCH   2  22
BRANCH   5  24
ATOM     24  C   UNL     1      -7.749  -4.801   1.410  0.00  0.00    +0.144 C 
BRANCH  24  25
ATOM     25  C   UNL     1      -7.469  -6.240   1.062  0.00  0.00    -0.030 A 
ATOM     26  C   UNL     1      -8.117  -6.832  -0.006  0.00  0.00    +0.006 A 
ATOM     27  C   UNL     1      -7.861  -8.151  -0.325  0.00  0.00    +0.020 A 
ATOM     28  C   UNL     1      -6.955  -8.881   0.424  0.00  0.00    +0.041 A 
ATOM     29  C   UNL     1      -6.306  -8.288   1.493  0.00  0.00    +0.020 A 
ATOM     30  C   UNL     1      -6.559  -6.966   1.808  0.00  0.00    +0.006 A 
ATOM     31 CL   UNL     1      -6.632 -10.539   0.024  0.00  0.00    -0.084 Cl
ENDBRANCH  24  25
ENDBRANCH   5  24
TORSDOF 6
