REMARK  Name = ZINC63072162
REMARK  11 active torsions:
REMARK  status: ('A' for Active; 'I' for Inactive)
REMARK    1  A    between atoms: C_1  and  C_2
REMARK    2  A    between atoms: C_2  and  O_3
REMARK    3  A    between atoms: O_3  and  C_4
REMARK    4  A    between atoms: C_9  and  N_10
REMARK    5  A    between atoms: C_11  and  C_13
REMARK    6  A    between atoms: C_22  and  N_24
REMARK    7  A    between atoms: N_24  and  C_25
REMARK    8  A    between atoms: C_25  and  C_26
REMARK    9  A    between atoms: C_35  and  O_37
REMARK   10  A    between atoms: O_37  and  C_38
REMARK   11  A    between atoms: C_38  and  C_39
REMARK                            x       y       z     vdW  Elec       q    Type
REMARK                         _______ _______ _______ _____ _____    ______ ____
ROOT
ATOM      1  C   UNL     1       3.314  -1.058  -5.409  0.00  0.00    +0.042 C 
ATOM      2  C   UNL     1       4.000  -1.534  -6.421  0.00  0.00    -0.043 C 
ATOM      3  C   UNL     1       4.089  -3.017  -6.782  0.00  0.00    +0.051 C 
ATOM      4  C   UNL     1       5.157  -3.156  -7.872  0.00  0.00    +0.115 C 
ATOM      5  N   UNL     1       4.853  -2.274  -9.001  0.00  0.00    -0.266 N 
ATOM      6  C   UNL     1       4.311  -0.926  -8.775  0.00  0.00    +0.129 C 
ATOM      7  C   UNL     1       4.677  -0.515  -7.346  0.00  0.00    +0.092 C 
ATOM      8  S   UNL     1       3.792   1.028  -6.887  0.00  0.00    -0.128 S 
ATOM      9  C   UNL     1       3.204   0.445  -5.239  0.00  0.00    +0.148 C 
ATOM     10  C   UNL     1       5.072  -2.703 -10.260  0.00  0.00    +0.403 C 
ATOM     11  O   UNL     1       4.822  -1.976 -11.202  0.00  0.00    -0.226 OA
ENDROOT
BRANCH   1  13
ATOM     12  N   UNL     1       1.953  -1.468  -3.424  0.00  0.00    -0.279 N 
ATOM     13  C   UNL     1       2.659  -1.968  -4.457  0.00  0.00    +0.247 C 
ATOM     14  O   UNL     1       2.753  -3.172  -4.603  0.00  0.00    -0.270 OA
ATOM     15  H   UNL     1       1.810  -0.511  -3.352  0.00  0.00    +0.155 HD
BRANCH  12  21
ATOM     16  C   UNL     1       0.317  -1.943  -1.704  0.00  0.00    +0.142 A 
ATOM     17  C   UNL     1      -0.203  -2.801  -0.749  0.00  0.00    +0.047 A 
ATOM     18  C   UNL     1       0.382  -4.036  -0.537  0.00  0.00    +0.004 A 
ATOM     19  C   UNL     1       1.486  -4.418  -1.277  0.00  0.00    +0.002 A 
ATOM     20  C   UNL     1       2.011  -3.568  -2.232  0.00  0.00    +0.027 A 
ATOM     21  C   UNL     1       1.426  -2.329  -2.453  0.00  0.00    +0.076 A 
BRANCH  16  22
ATOM     22  O   UNL     1      -0.257  -0.728  -1.913  0.00  0.00    -0.490 OA
BRANCH  22  24
ATOM     23  C   UNL     1      -1.896   0.996  -1.484  0.00  0.00    +0.048 C 
ATOM     24  C   UNL     1      -1.391  -0.399  -1.108  0.00  0.00    +0.226 C 
ENDBRANCH  22  24
ENDBRANCH  16  22
ENDBRANCH  12  21
ENDBRANCH   1  13
BRANCH   9  25
ATOM     25  N   UNL     1       4.085   0.923  -4.165  0.00  0.00    -0.297 NA
ATOM     26  H   UNL     1       3.565   1.090  -3.317  0.00  0.00    +0.124 HD
BRANCH  25  27
ATOM     27  C   UNL     1       4.816   2.128  -4.580  0.00  0.00    +0.115 C 
BRANCH  27  28
ATOM     28  C   UNL     1       5.707   2.587  -3.456  0.00  0.00    -0.028 C 
ATOM     29  C   UNL     1       7.018   2.297  -3.287  0.00  0.00    +0.000 A 
ATOM     30  C   UNL     1       7.968   1.496  -4.068  0.00  0.00    +0.010 A 
ATOM     31  C   UNL     1       9.244   1.387  -3.635  0.00  0.00    +0.001 A 
ATOM     32  C   UNL     1       9.682   2.017  -2.463  0.00  0.00    +0.002 A 
ATOM     33  C   UNL     1       8.868   2.769  -1.692  0.00  0.00    +0.026 A 
ATOM     34  C   UNL     1       7.505   2.953  -2.052  0.00  0.00    +0.043 A 
ATOM     35  N   UNL     1       6.533   3.623  -1.481  0.00  0.00    -0.380 N 
ATOM     36  C   UNL     1       5.320   3.472  -2.292  0.00  0.00    +0.146 C 
ATOM     37  H   UNL     1       6.606   4.136  -0.660  0.00  0.00    +0.160 HD
ENDBRANCH  27  28
ENDBRANCH  25  27
ENDBRANCH   9  25
BRANCH  10  38
ATOM     38  O   UNL     1       5.568  -3.936 -10.475  0.00  0.00    -0.451 OA
BRANCH  38  39
ATOM     39  C   UNL     1       5.775  -4.324 -11.835  0.00  0.00    +0.230 C 
ATOM     40  C   UNL     1       6.338  -5.746 -11.879  0.00  0.00    +0.048 C 
ENDBRANCH  38  39
ENDBRANCH  10  38
TORSDOF 9
