REMARK  Name = ZINC64270000
REMARK  6 active torsions:
REMARK  status: ('A' for Active; 'I' for Inactive)
REMARK    1  A    between atoms: C_1  and  C_2
REMARK    2  A    between atoms: C_2  and  O_3
REMARK    3  A    between atoms: O_3  and  C_4
REMARK    4  A    between atoms: C_4  and  C_6
REMARK    5  A    between atoms: N_9  and  C_13
REMARK    6  A    between atoms: C_10  and  N_12
REMARK                            x       y       z     vdW  Elec       q    Type
REMARK                         _______ _______ _______ _____ _____    ______ ____
ROOT
ATOM      1  C   UNL     1      -2.559  -2.089  -0.298  0.00  0.00    +0.084 C 
ATOM      2  C   UNL     1      -2.652  -3.429  -0.169  0.00  0.00    +0.098 C 
ATOM      3  N   UNL     1      -3.917  -3.812   0.138  0.00  0.00    -0.280 N 
ATOM      4  N   UNL     1      -4.760  -2.743   0.234  0.00  0.00    -0.167 NA
ATOM      5  C   UNL     1      -3.946  -1.541  -0.034  0.00  0.00    +0.182 C 
ATOM      6  H   UNL     1      -4.189  -4.733   0.272  0.00  0.00    +0.166 HD
ENDROOT
BRANCH   4   7
ATOM      7  C   UNL     1      -5.370  -2.672   1.569  0.00  0.00    +0.270 C 
ATOM      8  N   UNL     1      -4.330  -2.748   2.603  0.00  0.00    -0.350 N 
ATOM      9  C   UNL     1      -4.572  -3.805   3.323  0.00  0.00    +0.061 A 
ATOM     10  C   UNL     1      -3.894  -4.400   4.484  0.00  0.00    +0.027 A 
ATOM     11  C   UNL     1      -4.385  -5.528   5.035  0.00  0.00    +0.002 A 
ATOM     12  C   UNL     1      -5.534  -6.173   4.544  0.00  0.00    +0.002 A 
ATOM     13  C   UNL     1      -6.230  -5.713   3.485  0.00  0.00    +0.027 A 
ATOM     14  C   UNL     1      -5.788  -4.489   2.804  0.00  0.00    +0.061 A 
ATOM     15  N   UNL     1      -6.251  -3.828   1.782  0.00  0.00    -0.350 N 
ATOM     16  H   UNL     1      -3.597  -2.125   2.727  0.00  0.00    +0.163 HD
ATOM     17  H   UNL     1      -7.035  -4.056   1.259  0.00  0.00    +0.163 HD
ENDBRANCH   4   7
BRANCH   5  18
ATOM     18  N   UNL     1      -3.934  -0.652   1.136  0.00  0.00    -0.310 NA
ATOM     19  H   UNL     1      -3.227   0.062   1.040  0.00  0.00    +0.120 HD
ATOM     20  H   UNL     1      -4.844  -0.242   1.288  0.00  0.00    +0.120 HD
ENDBRANCH   5  18
BRANCH   1  21
ATOM     21  C   UNL     1      -1.399  -1.347  -0.611  0.00  0.00    +0.339 C 
ATOM     22  O   UNL     1      -0.342  -1.919  -0.800  0.00  0.00    -0.245 OA
BRANCH  21  23
ATOM     23  O   UNL     1      -1.463  -0.001  -0.700  0.00  0.00    -0.462 OA
BRANCH  23  25
ATOM     24  C   UNL     1      -0.519   2.191  -1.077  0.00  0.00    +0.048 C 
ATOM     25  C   UNL     1      -0.252   0.686  -1.020  0.00  0.00    +0.229 C 
ENDBRANCH  23  25
ENDBRANCH  21  23
ENDBRANCH   1  21
TORSDOF 5
