REMARK  Name = ZINC34750071
REMARK  9 active torsions:
REMARK  status: ('A' for Active; 'I' for Inactive)
REMARK    1  A    between atoms: C_1  and  C_2
REMARK    2  A    between atoms: C_2  and  C_3
REMARK    3  A    between atoms: C_2  and  C_4
REMARK    4  A    between atoms: C_4  and  S_5
REMARK    5  A    between atoms: S_5  and  C_6
REMARK    6  A    between atoms: C_17  and  C_19
REMARK    7  A    between atoms: C_17  and  C_20
REMARK    8  A    between atoms: N_24  and  C_27
REMARK    9  A    between atoms: C_27  and  C_28
REMARK                            x       y       z     vdW  Elec       q    Type
REMARK                         _______ _______ _______ _____ _____    ______ ____
ROOT
ATOM      1  C   UNL     1       3.140  -0.638  -2.691  0.00  0.00    +0.191 A 
ATOM      2  N   UNL     1       4.426  -0.442  -2.959  0.00  0.00    -0.206 NA
ATOM      3  C   UNL     1       4.988  -0.885  -4.070  0.00  0.00    +0.134 A 
ATOM      4  C   UNL     1       4.196  -1.595  -5.016  0.00  0.00    +0.051 A 
ATOM      5  C   UNL     1       4.595  -2.171  -6.299  0.00  0.00    -0.020 A 
ATOM      6  C   UNL     1       3.640  -2.802  -7.014  0.00  0.00    +0.021 A 
ATOM      7  S   UNL     1       2.170  -2.672  -6.036  0.00  0.00    -0.071 S 
ATOM      8  C   UNL     1       2.841  -1.766  -4.665  0.00  0.00    +0.115 A 
ATOM      9  N   UNL     1       2.355  -1.297  -3.532  0.00  0.00    -0.215 NA
ATOM     10  C   UNL     1       3.820  -3.459  -8.348  0.00  0.00    +0.203 C 
ATOM     11  O   UNL     1       5.084  -3.034  -8.882  0.00  0.00    -0.368 OA
ATOM     12  C   UNL     1       6.163  -3.144  -7.949  0.00  0.00    +0.068 C 
ATOM     13  C   UNL     1       6.017  -2.088  -6.850  0.00  0.00    +0.071 C 
ATOM     14  C   UNL     1       6.149  -4.538  -7.319  0.00  0.00    +0.041 C 
ATOM     15  C   UNL     1       7.490  -2.934  -8.682  0.00  0.00    +0.041 C 
ATOM     16  N   UNL     1       6.331  -0.660  -4.312  0.00  0.00    -0.318 N 
ATOM     17  C   UNL     1       6.772   0.488  -5.119  0.00  0.00    +0.088 C 
ATOM     18  C   UNL     1       7.862   1.236  -4.343  0.00  0.00    -0.059 C 
ATOM     19  N   UNL     1       8.934   0.301  -3.982  0.00  0.00    +0.387 N 
ATOM     20  C   UNL     1       8.420  -0.717  -3.058  0.00  0.00    -0.059 C 
ATOM     21  C   UNL     1       7.359  -1.559  -3.765  0.00  0.00    +0.088 C 
ATOM     22  H   UNL     1       9.282  -0.148  -4.816  0.00  0.00    -0.081 HD
ENDROOT
BRANCH   1  23
ATOM     23  S   UNL     1       2.466  -0.015  -1.187  0.00  0.00    -0.086 S 
BRANCH  23  24
ATOM     24  C   UNL     1       0.723  -0.515  -1.247  0.00  0.00    +0.080 C 
BRANCH  24  26
ATOM     25  C   UNL     1      -0.009   1.498   0.039  0.00  0.00    +0.008 C 
ATOM     26  C   UNL     1       0.009  -0.032   0.017  0.00  0.00    -0.007 C 
ATOM     27  C   UNL     1      -1.427  -0.559   0.025  0.00  0.00    +0.008 C 
ENDBRANCH  24  26
ENDBRANCH  23  24
ENDBRANCH   1  23
BRANCH  19  28
ATOM     28  C   UNL     1      10.028   1.039  -3.336  0.00  0.00    +0.019 C 
BRANCH  28  29
ATOM     29  C   UNL     1      11.180   0.103  -3.076  0.00  0.00    +0.199 C 
ATOM     30  O   UNL     1      11.098  -1.063  -3.397  0.00  0.00    -0.278 OA
ATOM     31  N   UNL     1      12.302   0.563  -2.486  0.00  0.00    -0.303 N 
ATOM     32  C   UNL     1      12.413   1.972  -2.086  0.00  0.00    +0.107 C 
ATOM     33  C   UNL     1      12.800   2.035  -0.605  0.00  0.00    +0.019 C 
ATOM     34  C   UNL     1      14.073   1.215  -0.380  0.00  0.00    +0.003 C 
ATOM     35  C   UNL     1      13.812  -0.247  -0.749  0.00  0.00    +0.019 C 
ATOM     36  C   UNL     1      13.433  -0.337  -2.226  0.00  0.00    +0.107 C 
ENDBRANCH  28  29
ENDBRANCH  19  28
TORSDOF 5
