REMARK  Name = ZINC44163814
REMARK  8 active torsions:
REMARK  status: ('A' for Active; 'I' for Inactive)
REMARK    1  A    between atoms: C_1  and  C_2
REMARK    2  A    between atoms: C_3  and  C_28
REMARK    3  A    between atoms: C_6  and  C_7
REMARK    4  A    between atoms: C_12  and  C_15
REMARK    5  A    between atoms: N_17  and  C_18
REMARK    6  A    between atoms: C_18  and  C_19
REMARK    7  A    between atoms: C_19  and  C_21
REMARK    8  A    between atoms: C_19  and  C_22
REMARK                            x       y       z     vdW  Elec       q    Type
REMARK                         _______ _______ _______ _____ _____    ______ ____
ROOT
ATOM      1  C   UNL     1       0.353  -0.337   2.498  0.00  0.00    +0.010 C 
ATOM      2  C   UNL     1      -0.973  -0.468   3.256  0.00  0.00    +0.061 C 
ATOM      3  S   UNL     1      -0.727   0.161   4.947  0.00  0.00    -0.163 S 
ATOM      4  C   UNL     1       0.779  -0.711   5.481  0.00  0.00    +0.062 C 
ATOM      5  C   UNL     1       1.843  -0.544   4.389  0.00  0.00    +0.027 C 
ATOM      6  N   UNL     1       1.377  -1.160   3.145  0.00  0.00    +0.394 N 
ATOM      7  H   UNL     1       0.991  -2.070   3.349  0.00  0.00    -0.084 HD
ATOM      8  H   UNL     1       2.160  -1.268   2.517  0.00  0.00    -0.084 HD
ENDROOT
BRANCH   1  14
ATOM      9  C   UNL     1       0.145   1.500  -0.006  0.00  0.00    +0.049 C 
ATOM     10  C   UNL     1       0.075  -0.005  -0.005  0.00  0.00    +0.018 A 
ATOM     11  C   UNL     1      -0.091  -0.831  -1.143  0.00  0.00    +0.116 A 
ATOM     12  N   UNL     1      -0.104  -2.077  -0.736  0.00  0.00    -0.078 NA
ATOM     13  O   UNL     1       0.053  -2.074   0.671  0.00  0.00    -0.360 OA
ATOM     14  C   UNL     1       0.164  -0.799   1.076  0.00  0.00    +0.128 A 
BRANCH  11  15
ATOM     15  C   UNL     1      -0.227  -0.368  -2.547  0.00  0.00    +0.004 A 
ATOM     16  C   UNL     1       0.575   0.668  -3.022  0.00  0.00    +0.010 A 
ATOM     17  C   UNL     1       0.445   1.094  -4.329  0.00  0.00    +0.001 A 
ATOM     18  C   UNL     1      -0.479   0.495  -5.166  0.00  0.00    +0.000 A 
ATOM     19  C   UNL     1      -1.278  -0.534  -4.699  0.00  0.00    +0.001 A 
ATOM     20  C   UNL     1      -1.152  -0.972  -3.396  0.00  0.00    +0.010 A 
ENDBRANCH  11  15
ENDBRANCH   1  14
BRANCH   5  21
ATOM     21  C   UNL     1       3.120  -1.212   4.829  0.00  0.00    +0.200 C 
ATOM     22  O   UNL     1       3.591  -2.115   4.171  0.00  0.00    -0.278 OA
ATOM     23  N   UNL     1       3.740  -0.805   5.955  0.00  0.00    -0.316 N 
ATOM     24  H   UNL     1       3.364  -0.082   6.481  0.00  0.00    +0.149 HD
BRANCH  23  25
ATOM     25  C   UNL     1       4.982  -1.454   6.383  0.00  0.00    +0.112 C 
BRANCH  25  26
ATOM     26  C   UNL     1       5.475  -0.808   7.679  0.00  0.00    +0.033 C 
ATOM     27  C   UNL     1       5.852   0.650   7.411  0.00  0.00    +0.014 C 
BRANCH  26  28
ATOM     28  C   UNL     1       6.682  -1.554   8.185  0.00  0.00    -0.043 A 
ATOM     29  C   UNL     1       7.821  -1.637   7.405  0.00  0.00    +0.004 A 
ATOM     30  C   UNL     1       8.928  -2.321   7.869  0.00  0.00    +0.000 A 
ATOM     31  C   UNL     1       8.898  -2.923   9.113  0.00  0.00    +0.000 A 
ATOM     32  C   UNL     1       7.760  -2.840   9.893  0.00  0.00    +0.000 A 
ATOM     33  C   UNL     1       6.654  -2.152   9.431  0.00  0.00    +0.004 A 
ENDBRANCH  26  28
ENDBRANCH  25  26
ENDBRANCH  23  25
ENDBRANCH   5  21
TORSDOF 6
