REMARK  Name = ZINC22810293
REMARK  8 active torsions:
REMARK  status: ('A' for Active; 'I' for Inactive)
REMARK    1  A    between atoms: C_4  and  C_7
REMARK    2  A    between atoms: C_7  and  N_8
REMARK    3  A    between atoms: C_9  and  C_11
REMARK    4  A    between atoms: C_11  and  N_12
REMARK    5  A    between atoms: N_15  and  C_18
REMARK    6  A    between atoms: C_18  and  C_19
REMARK    7  A    between atoms: C_19  and  C_20
REMARK    8  A    between atoms: N_22  and  N_23
REMARK                            x       y       z     vdW  Elec       q    Type
REMARK                         _______ _______ _______ _____ _____    ______ ____
ROOT
ATOM      1  N   UNL     1       6.306   2.442  -0.991  0.00  0.00    +0.387 N 
ATOM      2  C   UNL     1       6.149   1.690   0.262  0.00  0.00    -0.063 C 
ATOM      3  C   UNL     1       4.865   0.861   0.199  0.00  0.00    +0.066 C 
ATOM      4  N   UNL     1       3.719   1.753  -0.024  0.00  0.00    -0.305 NA
ATOM      5  C   UNL     1       3.876   2.505  -1.277  0.00  0.00    +0.066 C 
ATOM      6  C   UNL     1       5.160   3.335  -1.213  0.00  0.00    -0.063 C 
ATOM      7  H   UNL     1       6.340   1.719  -1.819  0.00  0.00    -0.081 HD
ENDROOT
BRANCH   1   8
ATOM      8  C   UNL     1       7.568   3.194  -0.999  0.00  0.00    +0.019 C 
BRANCH   8  10
ATOM      9  N   UNL     1       8.919   4.479  -2.624  0.00  0.00    -0.313 N 
ATOM     10  C   UNL     1       7.813   3.750  -2.378  0.00  0.00    +0.197 C 
ATOM     11  O   UNL     1       7.015   3.540  -3.267  0.00  0.00    -0.278 OA
ATOM     12  H   UNL     1       9.643   4.670  -1.817  0.00  0.00    +0.149 HD
BRANCH   9  13
ATOM     13  C   UNL     1       9.158   5.020  -3.964  0.00  0.00    +0.139 C 
BRANCH  13  17
ATOM     14  C   UNL     1      12.828   7.206  -3.988  0.00  0.00    +0.000 A 
ATOM     15  C   UNL     1      12.826   5.855  -4.281  0.00  0.00    +0.000 A 
ATOM     16  C   UNL     1      11.638   5.147  -4.273  0.00  0.00    +0.005 A 
ATOM     17  C   UNL     1      10.452   5.791  -3.973  0.00  0.00    -0.030 A 
ATOM     18  C   UNL     1      10.453   7.143  -3.685  0.00  0.00    +0.005 A 
ATOM     19  C   UNL     1      11.642   7.849  -3.688  0.00  0.00    +0.000 A 
ENDBRANCH  13  17
ENDBRANCH   9  13
ENDBRANCH   8  10
ENDBRANCH   1   8
BRANCH   4  20
ATOM     20  C   UNL     1       2.457   1.002  -0.016  0.00  0.00    +0.093 C 
BRANCH  20  21
ATOM     21  C   UNL     1       1.280   1.980   0.001  0.00  0.00    +0.112 C 
BRANCH  21  22
ATOM     22  C   UNL     1      -0.014   1.209   0.009  0.00  0.00    +0.231 C 
ATOM     23  O   UNL     1       0.002  -0.004   0.002  0.00  0.00    -0.274 OA
ATOM     24  N   UNL     1      -1.191   1.867   0.018  0.00  0.00    -0.224 N 
ATOM     25  H   UNL     1      -1.206   2.966   0.024  0.00  0.00    +0.174 HD
BRANCH  24  26
ATOM     26  N   UNL     1      -2.394   1.150   0.020  0.00  0.00    -0.137 N 
ATOM     27  C   UNL     1      -3.188   1.004   1.101  0.00  0.00    +0.263 C 
ATOM     28  O   UNL     1      -3.004   1.451   2.212  0.00  0.00    -0.271 OA
ATOM     29  C   UNL     1      -4.356   0.166   0.633  0.00  0.00    +0.114 C 
ATOM     30  C   UNL     1      -5.660   0.943   0.780  0.00  0.00    +0.035 C 
ATOM     31  C   UNL     1      -6.826   0.089   0.276  0.00  0.00    +0.003 C 
ATOM     32  C   UNL     1      -6.893  -1.209   1.084  0.00  0.00    +0.000 C 
ATOM     33  C   UNL     1      -5.588  -1.988   0.906  0.00  0.00    +0.003 C 
ATOM     34  C   UNL     1      -4.417  -1.143   1.413  0.00  0.00    +0.035 C 
ATOM     35  N   UNL     1      -4.067  -0.091  -0.783  0.00  0.00    -0.284 N 
ATOM     36  C   UNL     1      -2.902   0.529  -1.052  0.00  0.00    +0.326 C 
ATOM     37  O   UNL     1      -2.370   0.523  -2.145  0.00  0.00    -0.251 OA
ATOM     38  H   UNL     1      -4.762  -0.693  -1.386  0.00  0.00    +0.151 HD
ENDBRANCH  24  26
ENDBRANCH  21  22
ENDBRANCH  20  21
ENDBRANCH   4  20
TORSDOF 8
