REMARK  Name = ZINC04837445
REMARK  6 active torsions:
REMARK  status: ('A' for Active; 'I' for Inactive)
REMARK    1  A    between atoms: C_1  and  C_2
REMARK    2  A    between atoms: C_7  and  N_8
REMARK    3  A    between atoms: C_12  and  N_13
REMARK    4  A    between atoms: N_13  and  N_14
REMARK    5  A    between atoms: C_15  and  C_17
REMARK    6  A    between atoms: C_22  and  O_23
REMARK                            x       y       z     vdW  Elec       q    Type
REMARK                         _______ _______ _______ _____ _____    ______ ____
ROOT
ATOM      1  N   UNL     1       9.573   4.116  -0.380  0.00  0.00    -0.189 N 
ATOM      2  C   UNL     1       8.459   3.362  -0.275  0.00  0.00    +0.265 C 
ATOM      3  O   UNL     1       8.524   2.147  -0.286  0.00  0.00    -0.269 OA
ATOM      4  C   UNL     1       7.162   4.049  -0.147  0.00  0.00    +0.115 C 
ATOM      5  C   UNL     1       5.979   3.342  -0.035  0.00  0.00    +0.106 C 
ATOM      6  C   UNL     1       7.180   5.522  -0.149  0.00  0.00    +0.258 C 
ATOM      7  O   UNL     1       6.149   6.160  -0.051  0.00  0.00    -0.270 OA
ATOM      8  N   UNL     1       8.372   6.145  -0.256  0.00  0.00    -0.235 N 
ATOM      9  C   UNL     1       9.515   5.455  -0.369  0.00  0.00    +0.320 C 
ATOM     10  O   UNL     1      10.555   6.076  -0.467  0.00  0.00    -0.251 OA
ATOM     11  H   UNL     1       8.402   7.115  -0.255  0.00  0.00    +0.159 HD
ENDROOT
BRANCH   1  18
ATOM     12  C   UNL     1      11.016   3.510   1.997  0.00  0.00    +0.045 C 
ATOM     13  C   UNL     1      11.554   3.172   0.631  0.00  0.00    -0.029 A 
ATOM     14  C   UNL     1      12.779   2.545   0.506  0.00  0.00    +0.005 A 
ATOM     15  C   UNL     1      13.276   2.239  -0.747  0.00  0.00    +0.000 A 
ATOM     16  C   UNL     1      12.547   2.555  -1.879  0.00  0.00    +0.002 A 
ATOM     17  C   UNL     1      11.320   3.176  -1.761  0.00  0.00    +0.024 A 
ATOM     18  C   UNL     1      10.818   3.485  -0.503  0.00  0.00    +0.049 A 
ENDBRANCH   1  18
BRANCH   5  19
ATOM     19  N   UNL     1       4.800   3.995  -0.045  0.00  0.00    -0.271 N 
ATOM     20  H   UNL     1       4.783   4.965  -0.056  0.00  0.00    +0.169 HD
BRANCH  19  21
ATOM     21  N   UNL     1       3.599   3.274  -0.041  0.00  0.00    -0.233 N 
ATOM     22  C   UNL     1       2.420   3.927  -0.051  0.00  0.00    +0.264 C 
ATOM     23  O   UNL     1       2.399   5.143  -0.064  0.00  0.00    -0.269 OA
ATOM     24  H   UNL     1       3.616   2.304  -0.031  0.00  0.00    +0.173 HD
BRANCH  22  25
ATOM     25  C   UNL     1       1.156   3.167  -0.047  0.00  0.00    +0.079 A 
ATOM     26  C   UNL     1       1.175   1.770  -0.033  0.00  0.00    +0.017 A 
ATOM     27  C   UNL     1      -0.009   1.066  -0.028  0.00  0.00    +0.001 A 
ATOM     28  C   UNL     1      -1.221   1.737  -0.044  0.00  0.00    +0.004 A 
ATOM     29  C   UNL     1      -1.255   3.117  -0.052  0.00  0.00    +0.046 A 
ATOM     30  C   UNL     1      -0.072   3.842  -0.057  0.00  0.00    +0.129 A 
BRANCH  30  31
ATOM     31  O   UNL     1      -0.104   5.198  -0.071  0.00  0.00    -0.506 OA
ATOM     32  H   UNL     1      -0.111   5.582  -0.958  0.00  0.00    +0.292 HD
ENDBRANCH  30  31
ENDBRANCH  22  25
ENDBRANCH  19  21
ENDBRANCH   5  19
TORSDOF 5
