REMARK  Name = ZINC66931207
REMARK  5 active torsions:
REMARK  status: ('A' for Active; 'I' for Inactive)
REMARK    1  A    between atoms: N_11  and  C_12
REMARK    2  A    between atoms: C_12  and  C_13
REMARK    3  A    between atoms: N_15  and  C_16
REMARK    4  A    between atoms: C_16  and  C_17
REMARK    5  A    between atoms: C_17  and  O_27
REMARK                            x       y       z     vdW  Elec       q    Type
REMARK                         _______ _______ _______ _____ _____    ______ ____
ROOT
ATOM      1  C   UNL     1       2.904   0.229   1.407  0.00  0.00    +0.231 C 
ATOM      2  O   UNL     1       2.149   0.042   2.338  0.00  0.00    -0.274 OA
ATOM      3  N   UNL     1       4.215   0.443   1.635  0.00  0.00    -0.311 N 
ATOM      4  H   UNL     1       4.818   0.593   0.890  0.00  0.00    +0.149 HD
ENDROOT
BRANCH   1   5
ATOM      5  C   UNL     1       2.376   0.223  -0.004  0.00  0.00    +0.209 C 
BRANCH   5  16
ATOM      6  C   UNL     1       0.161   2.276   0.165  0.00  0.00    +0.034 C 
ATOM      7  C   UNL     1      -0.050   0.958   0.095  0.00  0.00    +0.038 C 
ATOM      8  C   UNL     1      -1.365   0.287   0.081  0.00  0.00    +0.008 A 
ATOM      9  C   UNL     1      -2.678   0.739   0.131  0.00  0.00    +0.010 A 
ATOM     10  C   UNL     1      -3.717  -0.170   0.099  0.00  0.00    +0.001 A 
ATOM     11  C   UNL     1      -3.459  -1.530   0.019  0.00  0.00    +0.001 A 
ATOM     12  C   UNL     1      -2.162  -1.996  -0.031  0.00  0.00    +0.014 A 
ATOM     13  C   UNL     1      -1.101  -1.095  -0.001  0.00  0.00    +0.046 A 
ATOM     14  C   UNL     1       0.362  -1.246  -0.036  0.00  0.00    +0.252 C 
ATOM     15  O   UNL     1       0.960  -2.303  -0.106  0.00  0.00    -0.270 OA
ATOM     16  N   UNL     1       0.932  -0.029   0.016  0.00  0.00    -0.259 N 
ENDBRANCH   5  16
ENDBRANCH   1   5
BRANCH   3  17
ATOM     17  C   UNL     1       4.729   0.449   3.007  0.00  0.00    +0.143 C 
BRANCH  17  18
ATOM     18  C   UNL     1       6.206   0.846   2.996  0.00  0.00    +0.107 C 
ATOM     19  C   UNL     1       6.357   2.212   2.330  0.00  0.00    +0.041 C 
ATOM     20  C   UNL     1       7.802   2.688   2.523  0.00  0.00    +0.008 C 
ATOM     21  C   UNL     1       8.004   3.026   3.999  0.00  0.00    +0.035 C 
ATOM     22  C   UNL     1       7.548   1.886   4.871  0.00  0.00    -0.041 A 
ATOM     23  C   UNL     1       6.720   0.887   4.412  0.00  0.00    -0.011 A 
ATOM     24  C   UNL     1       6.331  -0.133   5.270  0.00  0.00    +0.007 A 
ATOM     25  C   UNL     1       6.771  -0.155   6.578  0.00  0.00    +0.000 A 
ATOM     26  C   UNL     1       7.606   0.846   7.038  0.00  0.00    +0.000 A 
ATOM     27  C   UNL     1       7.992   1.861   6.187  0.00  0.00    +0.004 A 
BRANCH  18  28
ATOM     28  O   UNL     1       6.949  -0.124   2.254  0.00  0.00    -0.382 OA
ATOM     29  H   UNL     1       6.894  -1.020   2.612  0.00  0.00    +0.211 HD
ENDBRANCH  18  28
ENDBRANCH  17  18
ENDBRANCH   3  17
TORSDOF 5
