REMARK  Name = ZINC39623847
REMARK  6 active torsions:
REMARK  status: ('A' for Active; 'I' for Inactive)
REMARK    1  A    between atoms: C_1  and  C_2
REMARK    2  A    between atoms: C_2  and  C_3
REMARK    3  A    between atoms: C_3  and  C_4
REMARK    4  A    between atoms: C_4  and  N_5
REMARK    5  A    between atoms: C_6  and  C_8
REMARK    6  A    between atoms: C_19  and  C_21
REMARK                            x       y       z     vdW  Elec       q    Type
REMARK                         _______ _______ _______ _____ _____    ______ ____
ROOT
ATOM      1  C   UNL     1       2.386  -4.252  -4.176  0.00  0.00    +0.100 C 
ATOM      2  C   UNL     1       3.837  -3.723  -4.139  0.00  0.00    +0.121 C 
ATOM      3  N   UNL     1       4.609  -4.795  -3.467  0.00  0.00    -0.296 N 
ATOM      4  C   UNL     1       4.035  -6.053  -4.002  0.00  0.00    +0.115 C 
ATOM      5  C   UNL     1       2.520  -5.782  -4.089  0.00  0.00    -0.004 C 
ATOM      6  C   UNL     1       1.819  -6.303  -2.839  0.00  0.00    -0.010 C 
ATOM      7  C   UNL     1       1.917  -7.831  -2.804  0.00  0.00    -0.082 C 
ATOM      8  N   UNL     1       1.294  -8.391  -4.009  0.00  0.00    +0.379 N 
ATOM      9  C   UNL     1       2.031  -7.958  -5.202  0.00  0.00    -0.082 C 
ATOM     10  C   UNL     1       1.938  -6.436  -5.338  0.00  0.00    -0.010 C 
ATOM     11  C   UNL     1       5.607  -4.657  -2.572  0.00  0.00    +0.247 C 
ATOM     12  O   UNL     1       6.206  -5.637  -2.174  0.00  0.00    -0.270 OA
ATOM     13  H   UNL     1       1.306  -9.399  -3.955  0.00  0.00    -0.086 HD
ATOM     14  H   UNL     1       0.339  -8.071  -4.071  0.00  0.00    -0.086 HD
ENDROOT
BRANCH  11  15
ATOM     15  C   UNL     1       5.974  -3.315  -2.076  0.00  0.00    +0.045 A 
ATOM     16  C   UNL     1       6.213  -2.273  -2.979  0.00  0.00    +0.014 A 
ATOM     17  C   UNL     1       6.555  -1.020  -2.519  0.00  0.00    +0.001 A 
ATOM     18  C   UNL     1       6.667  -0.777  -1.159  0.00  0.00    +0.012 A 
ATOM     19  C   UNL     1       6.435  -1.799  -0.245  0.00  0.00    +0.031 A 
ATOM     20  C   UNL     1       6.079  -3.079  -0.699  0.00  0.00    +0.006 A 
ATOM     21  C   UNL     1       5.885  -3.965   0.476  0.00  0.00    -0.006 A 
ATOM     22  C   UNL     1       5.539  -5.305   0.579  0.00  0.00    +0.009 A 
ATOM     23  C   UNL     1       5.423  -5.898   1.826  0.00  0.00    +0.001 A 
ATOM     24  C   UNL     1       5.651  -5.164   2.974  0.00  0.00    +0.001 A 
ATOM     25  C   UNL     1       5.998  -3.825   2.888  0.00  0.00    +0.012 A 
ATOM     26  C   UNL     1       6.117  -3.219   1.644  0.00  0.00    +0.030 A 
ATOM     27  C   UNL     1       6.479  -1.839   1.236  0.00  0.00    +0.194 C 
ATOM     28  O   UNL     1       6.746  -0.914   1.976  0.00  0.00    -0.287 OA
ENDBRANCH  11  15
BRANCH   1  30
ATOM     29  N   UNL     1       0.276  -3.533  -3.103  0.00  0.00    -0.315 N 
ATOM     30  C   UNL     1       1.605  -3.726  -2.998  0.00  0.00    +0.218 C 
ATOM     31  O   UNL     1       2.174  -3.477  -1.957  0.00  0.00    -0.275 OA
ATOM     32  H   UNL     1      -0.179  -3.732  -3.936  0.00  0.00    +0.149 HD
BRANCH  29  33
ATOM     33  C   UNL     1      -0.482  -3.022  -1.959  0.00  0.00    +0.104 C 
BRANCH  33  34
ATOM     34  C   UNL     1      -1.959  -2.896  -2.340  0.00  0.00    +0.018 C 
BRANCH  34  36
ATOM     35  C   UNL     1      -4.227  -2.236  -1.527  0.00  0.00    +0.004 C 
ATOM     36  C   UNL     1      -2.751  -2.362  -1.145  0.00  0.00    -0.002 C 
ENDBRANCH  34  36
ENDBRANCH  33  34
ENDBRANCH  29  33
ENDBRANCH   1  30
TORSDOF 5
