REMARK  Name = ZINC33085382
REMARK  9 active torsions:
REMARK  status: ('A' for Active; 'I' for Inactive)
REMARK    1  A    between atoms: C_1  and  C_2
REMARK    2  A    between atoms: C_2  and  S_3
REMARK    3  A    between atoms: S_3  and  C_4
REMARK    4  A    between atoms: C_9  and  C_26
REMARK    5  A    between atoms: C_11  and  C_15
REMARK    6  A    between atoms: C_12  and  C_14
REMARK    7  A    between atoms: N_17  and  C_18
REMARK    8  A    between atoms: C_23  and  O_24
REMARK    9  A    between atoms: O_24  and  C_25
REMARK                            x       y       z     vdW  Elec       q    Type
REMARK                         _______ _______ _______ _____ _____    ______ ____
ROOT
ATOM      1  C   UNL     1      -1.383   5.609  -0.840  0.00  0.00    +0.210 A 
ATOM      2  N   UNL     1      -0.081   5.378  -0.619  0.00  0.00    -0.187 NA
ATOM      3  C   UNL     1       0.095   4.118  -0.327  0.00  0.00    +0.219 A 
ATOM      4  N   UNL     1      -1.115   3.507  -0.350  0.00  0.00    -0.220 N 
ATOM      5  N   UNL     1      -2.050   4.485  -0.686  0.00  0.00    -0.141 NA
ATOM      6  C   UNL     1      -1.310   2.089  -0.066  0.00  0.00    +0.179 C 
ATOM      7  C   UNL     1       0.025   1.393  -0.036  0.00  0.00    +0.060 C 
ATOM      8  C   UNL     1       1.193   2.052  -0.019  0.00  0.00    +0.018 C 
ATOM      9  N   UNL     1       1.260   3.424  -0.031  0.00  0.00    -0.287 N 
ATOM     10  C   UNL     1       2.475   1.260   0.016  0.00  0.00    +0.061 C 
ATOM     11  H   UNL     1       2.189   3.973   0.182  0.00  0.00    +0.155 HD
ENDROOT
BRANCH   6  12
ATOM     12  C   UNL     1      -1.984   1.938   1.274  0.00  0.00    -0.000 A 
ATOM     13  C   UNL     1      -1.376   2.431   2.413  0.00  0.00    +0.007 A 
ATOM     14  C   UNL     1      -1.994   2.292   3.642  0.00  0.00    +0.000 A 
ATOM     15  C   UNL     1      -3.221   1.662   3.732  0.00  0.00    +0.001 A 
ATOM     16  C   UNL     1      -3.831   1.169   2.593  0.00  0.00    +0.020 A 
ATOM     17  C   UNL     1      -3.215   1.312   1.363  0.00  0.00    +0.046 A 
ATOM     18 CL   UNL     1      -3.983   0.700  -0.069  0.00  0.00    -0.083 Cl
ENDBRANCH   6  12
BRANCH   7  19
ATOM     19  C   UNL     1       0.048  -0.021  -0.033  0.00  0.00    +0.248 C 
ATOM     20  O   UNL     1      -0.192  -0.636  -1.057  0.00  0.00    -0.270 OA
ATOM     21  N   UNL     1       0.336  -0.688   1.102  0.00  0.00    -0.279 N 
ATOM     22  H   UNL     1       0.460  -0.138   2.046  0.00  0.00    +0.155 HD
BRANCH  21  23
ATOM     23  C   UNL     1       0.476  -2.082   1.079  0.00  0.00    +0.076 A 
ATOM     24  C   UNL     1       1.013  -2.708  -0.036  0.00  0.00    +0.027 A 
ATOM     25  C   UNL     1       1.151  -4.083  -0.056  0.00  0.00    +0.002 A 
ATOM     26  C   UNL     1       0.755  -4.837   1.034  0.00  0.00    +0.004 A 
ATOM     27  C   UNL     1       0.220  -4.219   2.149  0.00  0.00    +0.047 A 
ATOM     28  C   UNL     1       0.083  -2.841   2.179  0.00  0.00    +0.141 A 
BRANCH  28  29
ATOM     29  O   UNL     1      -0.439  -2.232   3.277  0.00  0.00    -0.493 OA
ATOM     30  C   UNL     1      -0.820  -3.074   4.367  0.00  0.00    +0.277 C 
ENDBRANCH  28  29
ENDBRANCH  21  23
ENDBRANCH   7  19
BRANCH   1  31
ATOM     31  S   UNL     1      -2.088   7.166  -1.266  0.00  0.00    -0.085 S 
BRANCH  31  33
ATOM     32  C   UNL     1      -1.143   9.698  -1.686  0.00  0.00    +0.016 C 
ATOM     33  C   UNL     1      -0.666   8.291  -1.321  0.00  0.00    +0.074 C 
ENDBRANCH  31  33
ENDBRANCH   1  31
TORSDOF 6
