REMARK  Name = ZINC63634571
REMARK  8 active torsions:
REMARK  status: ('A' for Active; 'I' for Inactive)
REMARK    1  A    between atoms: C_1  and  C_2
REMARK    2  A    between atoms: C_2  and  S_3
REMARK    3  A    between atoms: S_3  and  C_4
REMARK    4  A    between atoms: C_7  and  N_10
REMARK    5  A    between atoms: N_10  and  S_11
REMARK    6  A    between atoms: S_11  and  C_14
REMARK    7  A    between atoms: C_21  and  C_26
REMARK    8  A    between atoms: C_23  and  C_25
REMARK                            x       y       z     vdW  Elec       q    Type
REMARK                         _______ _______ _______ _____ _____    ______ ____
ROOT
ATOM      1  S   UNL     1      -0.501  -7.160   1.157  0.00  0.00    +0.092 S 
ATOM      2  O   UNL     1       0.320  -6.849   2.274  0.00  0.00    -0.148 OA
ATOM      3  O   UNL     1      -1.904  -6.931   1.155  0.00  0.00    -0.148 OA
ENDROOT
BRANCH   1   4
ATOM      4  C   UNL     1      -0.270  -8.874   0.823  0.00  0.00    +0.111 A 
ATOM      5  C   UNL     1      -1.245  -9.587   0.149  0.00  0.00    +0.031 A 
ATOM      6  C   UNL     1      -1.067 -10.929  -0.113  0.00  0.00    +0.026 A 
ATOM      7  C   UNL     1       0.098 -11.578   0.300  0.00  0.00    +0.040 A 
ATOM      8  C   UNL     1       1.069 -10.855   0.974  0.00  0.00    -0.022 A 
ATOM      9  C   UNL     1       0.889  -9.509   1.229  0.00  0.00    +0.034 A 
ATOM     10  C   UNL     1       2.217 -11.782   1.304  0.00  0.00    +0.059 C 
ATOM     11  C   UNL     1       1.790 -13.145   0.735  0.00  0.00    +0.083 C 
ATOM     12  N   UNL     1       0.472 -12.916   0.137  0.00  0.00    -0.268 N 
ATOM     13  C   UNL     1      -0.271 -13.856  -0.479  0.00  0.00    +0.217 C 
ATOM     14  O   UNL     1      -1.298 -13.544  -1.044  0.00  0.00    -0.276 OA
ATOM     15  C   UNL     1       0.173 -15.296  -0.466  0.00  0.00    +0.109 C 
ATOM     16  C   UNL     1       2.783 -13.609  -0.332  0.00  0.00    +0.029 C 
ENDBRANCH   1   4
BRANCH   1  17
ATOM     17  N   UNL     1       0.116  -6.322  -0.132  0.00  0.00    -0.096 NA
BRANCH  17  21
ATOM     18  C   UNL     1      -0.056  -2.201  -0.096  0.00  0.00    +0.097 A 
ATOM     19  C   UNL     1       0.521  -2.829  -1.196  0.00  0.00    +0.037 A 
ATOM     20  C   UNL     1       0.588  -4.210  -1.226  0.00  0.00    +0.031 A 
ATOM     21  C   UNL     1       0.070  -4.923  -0.145  0.00  0.00    +0.092 A 
ATOM     22  C   UNL     1      -0.490  -4.230   0.917  0.00  0.00    +0.138 A 
ATOM     23  N   UNL     1      -0.532  -2.910   0.915  0.00  0.00    -0.247 NA
BRANCH  18  24
ATOM     24  S   UNL     1      -0.147  -0.442  -0.046  0.00  0.00    -0.106 S 
BRANCH  24  26
ATOM     25  C   UNL     1      -1.093   1.424   1.716  0.00  0.00    +0.015 C 
ATOM     26  C   UNL     1      -0.950  -0.090   1.542  0.00  0.00    +0.072 C 
ENDBRANCH  24  26
ENDBRANCH  18  24
ENDBRANCH  17  21
ENDBRANCH   1  17
TORSDOF 5
