REMARK  Name = ZINC24752323
REMARK  6 active torsions:
REMARK  status: ('A' for Active; 'I' for Inactive)
REMARK    1  A    between atoms: C_1  and  C_2
REMARK    2  A    between atoms: C_2  and  C_4
REMARK    3  A    between atoms: C_2  and  S_12
REMARK    4  A    between atoms: N_6  and  C_7
REMARK    5  A    between atoms: C_7  and  C_8
REMARK    6  A    between atoms: S_12  and  C_13
REMARK                            x       y       z     vdW  Elec       q    Type
REMARK                         _______ _______ _______ _____ _____    ______ ____
ROOT
ATOM      1  S   UNL     1      -2.679   6.681   0.063  0.00  0.00    -0.075 S 
ENDROOT
BRANCH   1   2
ATOM      2  C   UNL     1      -1.753   5.182   0.046  0.00  0.00    +0.170 A 
ATOM      3  N   UNL     1      -2.291   3.925   0.045  0.00  0.00    -0.202 NA
ATOM      4  H   UNL     1       0.318   5.899   0.031  0.00  0.00    +0.168 HD
ATOM      5  C   UNL     1      -1.241   3.026   0.030  0.00  0.00    +0.179 A 
ATOM      6  C   UNL     1      -0.067   3.801   0.023  0.00  0.00    +0.087 A 
ATOM      7  N   UNL     1      -0.444   5.106   0.034  0.00  0.00    -0.332 N 
ATOM      8  C   UNL     1       1.172   3.155   0.008  0.00  0.00    +0.046 A 
ATOM      9  C   UNL     1       1.186   1.771   0.013  0.00  0.00    +0.038 A 
ATOM     10  C   UNL     1      -0.013   1.076   0.020  0.00  0.00    +0.128 A 
ATOM     11  N   UNL     1      -1.170   1.706   0.023  0.00  0.00    -0.233 NA
ATOM     12 BR   UNL     1       2.829   0.836   0.001  0.00  0.00    -0.049 Br
ENDBRANCH   1   2
BRANCH   1  14
ATOM     13  C   UNL     1      -0.555   7.777  -1.258  0.00  0.00    +0.029 C 
ATOM     14  C   UNL     1      -1.329   7.886   0.057  0.00  0.00    +0.137 C 
BRANCH  14  15
ATOM     15  C   UNL     1      -1.895   9.275   0.193  0.00  0.00    +0.226 C 
ATOM     16  O   UNL     1      -3.059   9.485  -0.074  0.00  0.00    -0.275 OA
ATOM     17  N   UNL     1      -1.107  10.286   0.613  0.00  0.00    -0.306 N 
ATOM     18  H   UNL     1      -0.051  10.096   0.855  0.00  0.00    +0.149 HD
BRANCH  17  19
ATOM     19  C   UNL     1      -1.657  11.637   0.745  0.00  0.00    +0.217 C 
BRANCH  19  20
ATOM     20  C   UNL     1      -0.563  12.588   1.234  0.00  0.00    +0.405 C 
ATOM     21  F   UNL     1       0.489  12.601   0.312  0.00  0.00    -0.169 F 
ATOM     22  F   UNL     1      -1.089  13.878   1.361  0.00  0.00    -0.169 F 
ATOM     23  F   UNL     1      -0.088  12.153   2.476  0.00  0.00    -0.169 F 
ENDBRANCH  19  20
ENDBRANCH  17  19
ENDBRANCH  14  15
ENDBRANCH   1  14
TORSDOF 5
