REMARK  Name = ZINC23337796
REMARK  7 active torsions:
REMARK  status: ('A' for Active; 'I' for Inactive)
REMARK    1  A    between atoms: C_3  and  N_23
REMARK    2  A    between atoms: C_6  and  C_7
REMARK    3  A    between atoms: C_7  and  N_8
REMARK    4  A    between atoms: C_12  and  C_15
REMARK    5  A    between atoms: C_15  and  N_16
REMARK    6  A    between atoms: C_18  and  C_21
REMARK    7  A    between atoms: C_21  and  N_22
REMARK                            x       y       z     vdW  Elec       q    Type
REMARK                         _______ _______ _______ _____ _____    ______ ____
ROOT
ATOM      1  N   UNL     1       2.112   1.560  -1.198  0.00  0.00    +0.383 N 
ATOM      2  C   UNL     1       1.419   2.052  -0.001  0.00  0.00    -0.078 C 
ATOM      3  C   UNL     1      -0.019   1.527   0.010  0.00  0.00    -0.018 C 
ATOM      4  C   UNL     1       0.002  -0.004   0.002  0.00  0.00    +0.002 C 
ATOM      5  C   UNL     1       0.771  -0.489  -1.230  0.00  0.00    -0.006 C 
ATOM      6  C   UNL     1       2.186   0.094  -1.205  0.00  0.00    -0.073 C 
ATOM      7  H   UNL     1       1.525   1.870  -2.076  0.00  0.00    -0.081 HD
ENDROOT
BRANCH   1   8
ATOM      8  C   UNL     1       3.450   2.156  -1.314  0.00  0.00    -0.043 C 
BRANCH   8  14
ATOM      9  C   UNL     1       3.144   4.508  -2.111  0.00  0.00    +0.004 A 
ATOM     10  C   UNL     1       3.060   5.867  -1.880  0.00  0.00    +0.028 A 
ATOM     11  C   UNL     1       3.206   6.361  -0.590  0.00  0.00    +0.067 A 
ATOM     12  C   UNL     1       3.432   5.485   0.464  0.00  0.00    +0.028 A 
ATOM     13  C   UNL     1       3.510   4.127   0.227  0.00  0.00    +0.004 A 
ATOM     14  C   UNL     1       3.364   3.638  -1.059  0.00  0.00    -0.064 A 
BRANCH  11  15
ATOM     15  N   UNL     1       3.126   7.740  -0.353  0.00  0.00    -0.220 N 
ATOM     16  C   UNL     1       2.919   8.707  -1.268  0.00  0.00    +0.225 A 
ATOM     17  N   UNL     1       2.908   9.858  -0.646  0.00  0.00    -0.222 NA
ATOM     18  C   UNL     1       3.113   9.670   0.657  0.00  0.00    +0.245 A 
ATOM     19  N   UNL     1       3.252   8.390   0.886  0.00  0.00    -0.154 NA
ENDBRANCH  11  15
ENDBRANCH   8  14
ENDBRANCH   1   8
BRANCH   5  20
ATOM     20  C   UNL     1       0.847  -2.018  -1.215  0.00  0.00    +0.147 C 
BRANCH  20  21
ATOM     21  N   UNL     1      -0.500  -2.575  -1.355  0.00  0.00    -0.251 N 
ATOM     22  C   UNL     1      -0.898  -3.458  -2.300  0.00  0.00    +0.131 A 
ATOM     23  C   UNL     1      -2.208  -3.703  -2.059  0.00  0.00    +0.066 A 
ATOM     24  N   UNL     1      -2.544  -2.962  -0.997  0.00  0.00    -0.136 NA
ATOM     25  N   UNL     1      -1.510  -2.305  -0.604  0.00  0.00    -0.066 NA
BRANCH  23  26
ATOM     26  C   UNL     1      -3.111  -4.626  -2.837  0.00  0.00    -0.027 C 
BRANCH  26  27
ATOM     27  N   UNL     1      -3.152  -5.939  -2.180  0.00  0.00    +0.382 N 
ATOM     28  H   UNL     1      -3.811  -6.612  -2.748  0.00  0.00    -0.090 HD
ATOM     29  H   UNL     1      -3.538  -5.825  -1.156  0.00  0.00    -0.090 HD
ATOM     30  H   UNL     1      -2.138  -6.363  -2.144  0.00  0.00    -0.090 HD
ENDBRANCH  26  27
ENDBRANCH  23  26
ENDBRANCH  20  21
ENDBRANCH   5  20
TORSDOF 7
