REMARK  Name = ZINC28289517
REMARK  10 active torsions:
REMARK  status: ('A' for Active; 'I' for Inactive)
REMARK    1  A    between atoms: C_1  and  C_2
REMARK    2  A    between atoms: C_12  and  C_14
REMARK    3  A    between atoms: N_16  and  C_17
REMARK    4  A    between atoms: C_17  and  C_18
REMARK    5  A    between atoms: C_18  and  C_20
REMARK    6  A    between atoms: C_18  and  N_28
REMARK    7  A    between atoms: C_23  and  O_26
REMARK    8  A    between atoms: O_26  and  C_27
REMARK    9  A    between atoms: N_28  and  C_29
REMARK   10  A    between atoms: N_28  and  C_30
REMARK                            x       y       z     vdW  Elec       q    Type
REMARK                         _______ _______ _______ _____ _____    ______ ____
ROOT
ATOM      1  C   UNL     1       0.990   2.133  -0.491  0.00  0.00    +0.279 C 
ATOM      2  O   UNL     1       2.072   1.617  -0.291  0.00  0.00    -0.267 OA
ATOM      3  N   UNL     1      -0.136   1.400  -0.384  0.00  0.00    -0.310 N 
ATOM      4  H   UNL     1      -1.115   1.867  -0.566  0.00  0.00    +0.149 HD
ENDROOT
BRANCH   1  16
ATOM      5  C   UNL     1      -3.314   7.775  -2.176  0.00  0.00    +0.045 C 
ATOM      6  C   UNL     1      -1.925   7.235  -1.950  0.00  0.00    -0.029 A 
ATOM      7  C   UNL     1      -1.756   5.910  -1.611  0.00  0.00    +0.051 A 
ATOM      8  C   UNL     1      -0.477   5.404  -1.401  0.00  0.00    +0.140 A 
ATOM      9  C   UNL     1       0.630   6.259  -1.539  0.00  0.00    +0.065 A 
ATOM     10  C   UNL     1       0.446   7.598  -1.882  0.00  0.00    +0.035 A 
ATOM     11  C   UNL     1      -0.830   8.079  -2.086  0.00  0.00    +0.045 A 
ATOM     12 CL   UNL     1      -1.069   9.744  -2.514  0.00  0.00    -0.083 Cl
ATOM     13  C   UNL     1       1.978   5.704  -1.312  0.00  0.00    +0.193 A 
ATOM     14  O   UNL     1       2.978   6.393  -1.417  0.00  0.00    -0.287 OA
ATOM     15  C   UNL     1       2.056   4.282  -0.948  0.00  0.00    +0.103 A 
ATOM     16  C   UNL     1       0.909   3.568  -0.853  0.00  0.00    +0.193 A 
ATOM     17  O   UNL     1      -0.298   4.111  -1.068  0.00  0.00    -0.450 OA
ENDBRANCH   1  16
BRANCH   3  18
ATOM     18  C   UNL     1      -0.056  -0.018  -0.027  0.00  0.00    +0.094 C 
BRANCH  18  19
ATOM     19  C   UNL     1      -1.466  -0.570   0.192  0.00  0.00    -0.021 C 
BRANCH  19  20
ATOM     20  C   UNL     1      -1.387  -2.045   0.491  0.00  0.00    -0.059 A 
ATOM     21  C   UNL     1      -0.969  -2.474   1.737  0.00  0.00    +0.005 A 
ATOM     22  C   UNL     1      -0.901  -3.826   2.016  0.00  0.00    +0.046 A 
ATOM     23  C   UNL     1      -1.243  -4.752   1.041  0.00  0.00    +0.120 A 
ATOM     24  C   UNL     1      -1.658  -4.318  -0.210  0.00  0.00    +0.046 A 
ATOM     25  C   UNL     1      -1.729  -2.966  -0.482  0.00  0.00    +0.005 A 
BRANCH  23  26
ATOM     26  O   UNL     1      -1.172  -6.082   1.311  0.00  0.00    -0.495 OA
ATOM     27  C   UNL     1      -0.737  -6.456   2.620  0.00  0.00    +0.277 C 
ENDBRANCH  23  26
ENDBRANCH  19  20
BRANCH  19  28
ATOM     28  N   UNL     1      -2.094   0.127   1.322  0.00  0.00    +0.382 N 
ATOM     29  C   UNL     1      -1.082   0.616   2.268  0.00  0.00    -0.096 C 
ATOM     30  C   UNL     1      -2.950   1.225   0.854  0.00  0.00    -0.096 C 
ATOM     31  H   UNL     1      -2.731  -0.596   1.853  0.00  0.00    -0.082 HD
ENDBRANCH  19  28
ENDBRANCH  18  19
ENDBRANCH   3  18
TORSDOF 6
