REMARK  Name = ZINC51829440
REMARK  7 active torsions:
REMARK  status: ('A' for Active; 'I' for Inactive)
REMARK    1  A    between atoms: C_1  and  C_2
REMARK    2  A    between atoms: N_8  and  S_9
REMARK    3  A    between atoms: S_9  and  C_12
REMARK    4  A    between atoms: C_15  and  C_18
REMARK    5  A    between atoms: C_18  and  O_20
REMARK    6  A    between atoms: O_20  and  C_21
REMARK    7  A    between atoms: C_25  and  C_27
REMARK                            x       y       z     vdW  Elec       q    Type
REMARK                         _______ _______ _______ _____ _____    ______ ____
ROOT
ATOM      1  C   UNL     1       0.129   0.799   3.660  0.00  0.00    +0.106 A 
ATOM      2  C   UNL     1      -0.868   1.750   3.528  0.00  0.00    +0.029 A 
ATOM      3  C   UNL     1      -1.786   1.937   4.540  0.00  0.00    +0.017 A 
ATOM      4  C   UNL     1      -1.708   1.164   5.700  0.00  0.00    +0.060 A 
ATOM      5  C   UNL     1      -0.699   0.207   5.828  0.00  0.00    +0.017 A 
ATOM      6  C   UNL     1       0.209   0.027   4.806  0.00  0.00    +0.029 A 
ENDROOT
BRANCH   1   7
ATOM      7  S   UNL     1       1.298   0.567   2.362  0.00  0.00    +0.061 S 
ATOM      8  O   UNL     1       2.383  -0.162   2.918  0.00  0.00    -0.153 OA
ATOM      9  O   UNL     1       1.470   1.833   1.739  0.00  0.00    -0.153 OA
BRANCH   7  16
ATOM     10  C   UNL     1       1.408  -2.246   2.655  0.00  0.00    +0.026 C 
ATOM     11  C   UNL     1       0.570  -1.878   1.429  0.00  0.00    +0.077 C 
ATOM     12  C   UNL     1       1.160  -2.550   0.184  0.00  0.00    +0.020 C 
ATOM     13  C   UNL     1       0.404  -2.068  -1.057  0.00  0.00    +0.003 C 
ATOM     14  C   UNL     1       0.570  -0.553  -1.201  0.00  0.00    +0.017 C 
ATOM     15  C   UNL     1      -0.026   0.141   0.028  0.00  0.00    +0.110 C 
ATOM     16  N   UNL     1       0.590  -0.421   1.238  0.00  0.00    -0.174 NA
ENDBRANCH   7  16
ENDBRANCH   1   7
BRANCH   4  17
ATOM     17  C   UNL     1      -2.687   1.359   6.789  0.00  0.00    +0.344 C 
ATOM     18  O   UNL     1      -3.564   2.192   6.675  0.00  0.00    -0.245 OA
BRANCH  17  19
ATOM     19  O   UNL     1      -2.609   0.612   7.907  0.00  0.00    -0.422 OA
BRANCH  19  20
ATOM     20  C   UNL     1      -3.465   0.894   8.925  0.00  0.00    +0.133 A 
ATOM     21  C   UNL     1      -4.797   0.510   8.838  0.00  0.00    +0.046 A 
ATOM     22  C   UNL     1      -5.672   0.795   9.869  0.00  0.00    +0.004 A 
ATOM     23  C   UNL     1      -5.228   1.463  10.992  0.00  0.00    +0.013 A 
ATOM     24  C   UNL     1      -3.892   1.853  11.089  0.00  0.00    +0.040 A 
ATOM     25  C   UNL     1      -3.008   1.560  10.049  0.00  0.00    +0.059 A 
BRANCH  24  26
ATOM     26  C   UNL     1      -3.412   2.569  12.290  0.00  0.00    +0.242 C 
ATOM     27  O   UNL     1      -2.248   2.907  12.372  0.00  0.00    -0.270 OA
ATOM     28  N   UNL     1      -4.267   2.846  13.295  0.00  0.00    -0.325 N 
ATOM     29  H   UNL     1      -5.196   2.576  13.229  0.00  0.00    +0.145 HD
ATOM     30  H   UNL     1      -3.953   3.316  14.083  0.00  0.00    +0.145 HD
ENDBRANCH  24  26
ENDBRANCH  19  20
ENDBRANCH  17  19
ENDBRANCH   4  17
TORSDOF 6
