REMARK  Name = ZINC23259444
REMARK  7 active torsions:
REMARK  status: ('A' for Active; 'I' for Inactive)
REMARK    1  A    between atoms: C_1  and  C_2
REMARK    2  A    between atoms: C_2  and  C_4
REMARK    3  A    between atoms: C_2  and  N_24
REMARK    4  A    between atoms: C_7  and  C_19
REMARK    5  A    between atoms: C_10  and  C_12
REMARK    6  A    between atoms: N_27  and  C_30
REMARK    7  A    between atoms: C_30  and  C_31
REMARK                            x       y       z     vdW  Elec       q    Type
REMARK                         _______ _______ _______ _____ _____    ______ ____
ROOT
ATOM      1  C   UNL     1      10.246   1.182  -2.909  0.00  0.00    +0.252 C 
ATOM      2  O   UNL     1       9.909   0.574  -1.915  0.00  0.00    -0.272 OA
ATOM      3  N   UNL     1      11.475   0.994  -3.430  0.00  0.00    -0.181 N 
ATOM      4  C   UNL     1      12.501   0.085  -2.894  0.00  0.00    +0.173 C 
ATOM      5  C   UNL     1      13.686   0.265  -3.864  0.00  0.00    +0.090 C 
ATOM      6  C   UNL     1      13.185   1.282  -4.866  0.00  0.00    +0.069 C 
ATOM      7  N   UNL     1      11.980   1.623  -4.566  0.00  0.00    -0.181 NA
ENDROOT
BRANCH   6   8
ATOM      8  C   UNL     1      13.955   1.798  -6.012  0.00  0.00    -0.002 A 
ATOM      9  C   UNL     1      15.260   1.352  -6.238  0.00  0.00    +0.011 A 
ATOM     10  C   UNL     1      15.973   1.835  -7.315  0.00  0.00    +0.020 A 
ATOM     11  C   UNL     1      15.403   2.768  -8.165  0.00  0.00    +0.041 A 
ATOM     12  C   UNL     1      14.112   3.218  -7.943  0.00  0.00    +0.020 A 
ATOM     13  C   UNL     1      13.386   2.739  -6.873  0.00  0.00    +0.011 A 
ATOM     14 CL   UNL     1      16.310   3.376  -9.515  0.00  0.00    -0.084 Cl
ENDBRANCH   6   8
BRANCH   4  15
ATOM     15  C   UNL     1      12.893   0.492  -1.497  0.00  0.00    +0.128 A 
ATOM     16  C   UNL     1      13.163  -0.346  -0.480  0.00  0.00    +0.046 A 
ATOM     17  C   UNL     1      13.484   0.457   0.638  0.00  0.00    +0.041 A 
ATOM     18  C   UNL     1      13.391   1.738   0.238  0.00  0.00    +0.195 A 
ATOM     19  O   UNL     1      13.039   1.753  -1.058  0.00  0.00    -0.466 OA
ENDBRANCH   4  15
BRANCH   1  21
ATOM     20  C   UNL     1       8.503   1.425  -4.656  0.00  0.00    +0.034 C 
ATOM     21  C   UNL     1       9.291   2.148  -3.562  0.00  0.00    +0.142 C 
BRANCH  21  22
ATOM     22  N   UNL     1       8.361   2.674  -2.554  0.00  0.00    -0.295 NA
ATOM     23  C   UNL     1       9.078   3.442  -1.526  0.00  0.00    +0.066 C 
ATOM     24  C   UNL     1       8.087   3.904  -0.455  0.00  0.00    -0.063 C 
ATOM     25  N   UNL     1       7.038   4.720  -1.082  0.00  0.00    +0.387 N 
ATOM     26  C   UNL     1       6.321   3.953  -2.110  0.00  0.00    -0.063 C 
ATOM     27  C   UNL     1       7.312   3.490  -3.181  0.00  0.00    +0.066 C 
ATOM     28  H   UNL     1       7.522   5.577  -1.574  0.00  0.00    -0.081 HD
BRANCH  25  29
ATOM     29  C   UNL     1       6.108   5.247  -0.074  0.00  0.00    +0.019 C 
BRANCH  29  30
ATOM     30  C   UNL     1       5.201   6.267  -0.712  0.00  0.00    +0.199 C 
ATOM     31  O   UNL     1       5.318   6.530  -1.890  0.00  0.00    -0.278 OA
ATOM     32  N   UNL     1       4.260   6.888   0.027  0.00  0.00    -0.303 N 
ATOM     33  C   UNL     1       4.009   6.664   1.463  0.00  0.00    +0.108 C 
ATOM     34  C   UNL     1       3.333   7.968   1.955  0.00  0.00    +0.020 C 
ATOM     35  C   UNL     1       2.450   8.341   0.736  0.00  0.00    +0.020 C 
ATOM     36  C   UNL     1       3.313   7.899  -0.465  0.00  0.00    +0.108 C 
ENDBRANCH  29  30
ENDBRANCH  25  29
ENDBRANCH  21  22
ENDBRANCH   1  21
TORSDOF 6
