REMARK  Name = ZINC63686427
REMARK  7 active torsions:
REMARK  status: ('A' for Active; 'I' for Inactive)
REMARK    1  A    between atoms: C_1  and  C_2
REMARK    2  A    between atoms: C_5  and  C_30
REMARK    3  A    between atoms: C_11  and  C_13
REMARK    4  A    between atoms: C_13  and  S_14
REMARK    5  A    between atoms: S_14  and  C_15
REMARK    6  A    between atoms: C_19  and  C_23
REMARK    7  A    between atoms: N_21  and  C_22
REMARK                            x       y       z     vdW  Elec       q    Type
REMARK                         _______ _______ _______ _____ _____    ______ ____
ROOT
ATOM      1  S   UNL     1      -1.091  -4.438   5.221  0.00  0.00    -0.119 S 
ENDROOT
BRANCH   1   2
ATOM      2  C   UNL     1      -0.499  -5.140   6.786  0.00  0.00    +0.200 C 
ATOM      3  N   UNL     1       0.868  -5.682   6.613  0.00  0.00    -0.229 NA
ATOM      4  N   UNL     1       1.550  -5.369   7.879  0.00  0.00    -0.233 NA
ATOM      5  C   UNL     1       1.016  -4.026   8.225  0.00  0.00    +0.171 C 
ATOM      6  N   UNL     1      -0.407  -4.082   7.813  0.00  0.00    -0.260 NA
ATOM      7  C   UNL     1      -1.276  -4.385   8.959  0.00  0.00    +0.109 C 
ATOM      8  H   UNL     1       0.845  -6.678   6.452  0.00  0.00    +0.143 HD
ATOM      9  H   UNL     1       1.317  -6.045   8.592  0.00  0.00    +0.143 HD
BRANCH   5  10
ATOM     10  C   UNL     1       1.129  -3.779   9.707  0.00  0.00    -0.012 A 
ATOM     11  C   UNL     1       0.870  -4.802  10.600  0.00  0.00    +0.007 A 
ATOM     12  C   UNL     1       0.973  -4.577  11.960  0.00  0.00    +0.003 A 
ATOM     13  C   UNL     1       1.335  -3.328  12.429  0.00  0.00    +0.038 A 
ATOM     14  C   UNL     1       1.594  -2.302  11.536  0.00  0.00    +0.124 A 
ATOM     15  C   UNL     1       1.496  -2.531  10.173  0.00  0.00    +0.045 A 
ATOM     16  F   UNL     1       1.947  -1.081  11.993  0.00  0.00    -0.205 F 
ENDBRANCH   5  10
ENDBRANCH   1   2
BRANCH   1  17
ATOM     17  C   UNL     1       0.146  -3.176   4.811  0.00  0.00    +0.125 C 
BRANCH  17  28
ATOM     18  C   UNL     1      -1.818   0.636  -0.194  0.00  0.00    +0.044 C 
ATOM     19  C   UNL     1      -1.236  -0.753  -0.139  0.00  0.00    -0.038 A 
ATOM     20  C   UNL     1      -1.024  -1.455  -1.294  0.00  0.00    +0.004 A 
ATOM     21  C   UNL     1      -0.488  -2.734  -1.253  0.00  0.00    +0.005 A 
ATOM     22  C   UNL     1      -0.159  -3.321  -0.050  0.00  0.00    -0.026 A 
ATOM     23  C   UNL     1      -0.367  -2.625   1.136  0.00  0.00    +0.054 A 
ATOM     24  C   UNL     1      -0.905  -1.327   1.088  0.00  0.00    +0.048 A 
ATOM     25  C   UNL     1      -1.111  -0.604   2.355  0.00  0.00    +0.190 A 
ATOM     26  O   UNL     1      -1.580   0.522   2.370  0.00  0.00    -0.287 OA
ATOM     27  C   UNL     1      -0.748  -1.261   3.555  0.00  0.00    +0.073 A 
ATOM     28  C   UNL     1      -0.231  -2.506   3.515  0.00  0.00    +0.030 A 
ATOM     29  N   UNL     1      -0.049  -3.182   2.355  0.00  0.00    -0.357 N 
ATOM     30  C   UNL     1       0.422  -4.711  -0.021  0.00  0.00    +0.046 C 
ATOM     31  H   UNL     1       0.326  -4.077   2.382  0.00  0.00    +0.166 HD
ENDBRANCH  17  28
ENDBRANCH   1  17
TORSDOF 4
