REMARK  Name = ZINC63122462
REMARK  7 active torsions:
REMARK  status: ('A' for Active; 'I' for Inactive)
REMARK    1  A    between atoms: C_1  and  O_2
REMARK    2  A    between atoms: O_2  and  C_3
REMARK    3  A    between atoms: C_3  and  C_5
REMARK    4  A    between atoms: C_8  and  N_12
REMARK    5  A    between atoms: C_13  and  C_15
REMARK    6  A    between atoms: C_15  and  N_16
REMARK    7  A    between atoms: C_19  and  C_22
REMARK                            x       y       z     vdW  Elec       q    Type
REMARK                         _______ _______ _______ _____ _____    ______ ____
ROOT
ATOM      1  N   UNL     1       0.439  -3.278   8.802  0.00  0.00    +0.385 N 
ATOM      2  C   UNL     1       1.403  -2.306   9.331  0.00  0.00    -0.078 C 
ATOM      3  C   UNL     1       1.897  -2.766  10.704  0.00  0.00    -0.011 C 
ATOM      4  C   UNL     1       0.705  -2.875  11.659  0.00  0.00    +0.014 C 
ATOM      5  C   UNL     1      -0.328  -3.836  11.062  0.00  0.00    -0.011 C 
ATOM      6  C   UNL     1      -0.740  -3.336   9.675  0.00  0.00    -0.078 C 
ATOM      7  H   UNL     1       0.871  -4.189   8.762  0.00  0.00    -0.081 HD
ENDROOT
BRANCH   4   8
ATOM      8  C   UNL     1       1.173  -3.403  12.991  0.00  0.00    -0.039 C 
ATOM      9  C   UNL     1       1.068  -2.788  14.191  0.00  0.00    -0.001 A 
ATOM     10  C   UNL     1       0.510  -1.493  14.600  0.00  0.00    +0.010 A 
ATOM     11  C   UNL     1       0.552  -1.144  15.906  0.00  0.00    +0.001 A 
ATOM     12  C   UNL     1       1.113  -1.986  16.876  0.00  0.00    +0.002 A 
ATOM     13  C   UNL     1       1.645  -3.190  16.578  0.00  0.00    +0.026 A 
ATOM     14  C   UNL     1       1.655  -3.658  15.235  0.00  0.00    +0.043 A 
ATOM     15  N   UNL     1       2.105  -4.768  14.701  0.00  0.00    -0.380 N 
ATOM     16  C   UNL     1       1.848  -4.729  13.257  0.00  0.00    +0.145 C 
ATOM     17  H   UNL     1       2.532  -5.495  15.181  0.00  0.00    +0.160 HD
ENDBRANCH   4   8
BRANCH   1  18
ATOM     18  C   UNL     1       0.026  -2.873   7.452  0.00  0.00    +0.019 C 
BRANCH  18  20
ATOM     19  N   UNL     1       1.072  -2.601   5.227  0.00  0.00    -0.290 N 
ATOM     20  C   UNL     1       1.213  -2.932   6.525  0.00  0.00    +0.198 C 
ATOM     21  O   UNL     1       2.296  -3.278   6.948  0.00  0.00    -0.278 OA
ATOM     22  H   UNL     1       0.205  -2.324   4.888  0.00  0.00    +0.151 HD
BRANCH  19  26
ATOM     23  C   UNL     1       0.678  -2.024   1.090  0.00  0.00    +0.110 C 
ATOM     24  C   UNL     1       1.383  -2.633   2.067  0.00  0.00    +0.023 C 
ATOM     25  N   UNL     1       1.958  -1.931   3.065  0.00  0.00    -0.320 N 
ATOM     26  C   UNL     1       2.226  -2.658   4.326  0.00  0.00    +0.219 C 
ATOM     27  S   UNL     1       2.484  -4.366   3.677  0.00  0.00    -0.114 S 
ATOM     28  C   UNL     1       1.562  -4.143   2.097  0.00  0.00    +0.123 C 
ATOM     29  H   UNL     1       2.185  -0.994   2.961  0.00  0.00    +0.148 HD
BRANCH  23  30
ATOM     30  C   UNL     1       0.411  -0.640   1.170  0.00  0.00    +0.333 C 
ATOM     31  O   UNL     1       0.722  -0.017   2.169  0.00  0.00    -0.246 OA
BRANCH  30  33
ATOM     32  C   UNL     1      -0.429   1.393   0.289  0.00  0.00    +0.280 C 
ATOM     33  O   UNL     1      -0.189  -0.008   0.140  0.00  0.00    -0.465 OA
ENDBRANCH  30  33
ENDBRANCH  23  30
ENDBRANCH  19  26
ENDBRANCH  18  20
ENDBRANCH   1  18
TORSDOF 6
