REMARK  Name = ZINC39954562
REMARK  7 active torsions:
REMARK  status: ('A' for Active; 'I' for Inactive)
REMARK    1  A    between atoms: C_1  and  C_2
REMARK    2  A    between atoms: C_2  and  C_3
REMARK    3  A    between atoms: C_2  and  C_4
REMARK    4  A    between atoms: C_4  and  C_5
REMARK    5  A    between atoms: C_5  and  N_6
REMARK    6  A    between atoms: N_6  and  S_7
REMARK    7  A    between atoms: S_7  and  C_10
REMARK                            x       y       z     vdW  Elec       q    Type
REMARK                         _______ _______ _______ _____ _____    ______ ____
ROOT
ATOM      1  C   UNL     1      -2.318  -5.197   0.538  0.00  0.00    +0.107 A 
ATOM      2  C   UNL     1      -0.989  -5.600   0.295  0.00  0.00    +0.030 A 
ATOM      3  C   UNL     1      -0.329  -6.430   1.134  0.00  0.00    +0.027 A 
ATOM      4  C   UNL     1      -0.982  -6.916   2.296  0.00  0.00    +0.055 A 
ATOM      5  N   UNL     1      -0.364  -7.725   3.131  0.00  0.00    -0.276 N 
ATOM      6  C   UNL     1      -1.005  -8.174   4.230  0.00  0.00    +0.304 C 
ATOM      7  O   UNL     1      -0.441  -8.920   5.004  0.00  0.00    -0.265 OA
ATOM      8  C   UNL     1      -2.415  -7.746   4.488  0.00  0.00    +0.304 C 
ATOM      9  O   UNL     1      -3.003  -8.142   5.473  0.00  0.00    -0.265 OA
ATOM     10  N   UNL     1      -3.028  -6.917   3.618  0.00  0.00    -0.276 N 
ATOM     11  C   UNL     1      -2.382  -6.491   2.553  0.00  0.00    +0.057 A 
ATOM     12  C   UNL     1      -3.004  -5.613   1.626  0.00  0.00    +0.053 A 
ATOM     13  H   UNL     1      -3.942  -6.634   3.778  0.00  0.00    +0.155 HD
ATOM     14  H   UNL     1       0.550  -7.998   2.956  0.00  0.00    +0.155 HD
ENDROOT
BRANCH   1  15
ATOM     15  S   UNL     1      -3.105  -4.113  -0.607  0.00  0.00    +0.058 S 
ATOM     16  O   UNL     1      -4.504  -4.311  -0.456  0.00  0.00    -0.153 OA
ATOM     17  O   UNL     1      -2.441  -4.284  -1.851  0.00  0.00    -0.153 OA
BRANCH  15  18
ATOM     18  N   UNL     1      -2.790  -2.565  -0.111  0.00  0.00    -0.190 NA
ATOM     19  H   UNL     1      -3.515  -1.994   0.186  0.00  0.00    +0.148 HD
BRANCH  18  20
ATOM     20  C   UNL     1      -1.416  -2.058  -0.121  0.00  0.00    +0.106 C 
BRANCH  20  21
ATOM     21  C   UNL     1      -1.433  -0.534   0.013  0.00  0.00    +0.020 C 
BRANCH  21  23
ATOM     22  C   UNL     1      -0.019   1.526   0.010  0.00  0.00    +0.007 C 
ATOM     23  C   UNL     1       0.002  -0.004   0.002  0.00  0.00    -0.016 C 
ATOM     24  C   UNL     1       0.742  -0.511   1.242  0.00  0.00    +0.007 C 
ENDBRANCH  21  23
ENDBRANCH  20  21
ENDBRANCH  18  20
ENDBRANCH  15  18
ENDBRANCH   1  15
TORSDOF 5
