REMARK  Name = ZINC00985634
REMARK  10 active torsions:
REMARK  status: ('A' for Active; 'I' for Inactive)
REMARK    1  A    between atoms: C_1  and  O_2
REMARK    2  A    between atoms: O_2  and  C_3
REMARK    3  A    between atoms: C_5  and  C_13
REMARK    4  A    between atoms: C_6  and  O_11
REMARK    5  A    between atoms: C_8  and  O_9
REMARK    6  A    between atoms: O_9  and  C_10
REMARK    7  A    between atoms: O_11  and  C_12
REMARK    8  A    between atoms: C_16  and  C_27
REMARK    9  A    between atoms: C_22  and  N_26
REMARK   10  A    between atoms: C_23  and  C_24
REMARK                            x       y       z     vdW  Elec       q    Type
REMARK                         _______ _______ _______ _____ _____    ______ ____
ROOT
ATOM      1  C   UNL     1      -4.871   0.262   0.039  0.00  0.00    +0.105 C 
ATOM      2  C   UNL     1      -4.906   1.142   1.261  0.00  0.00    +0.054 A 
ATOM      3  C   UNL     1      -5.105   0.790   2.599  0.00  0.00    +0.100 A 
ATOM      4  N   UNL     1      -5.052   1.893   3.321  0.00  0.00    -0.171 NA
ATOM      5  N   UNL     1      -4.818   2.975   2.459  0.00  0.00    -0.246 N 
ATOM      6  H   UNL     1      -4.732   3.905   2.721  0.00  0.00    +0.192 HD
ATOM      7  C   UNL     1      -4.732   2.495   1.201  0.00  0.00    +0.223 A 
ATOM      8  O   UNL     1      -4.518   3.155   0.035  0.00  0.00    -0.423 OA
ATOM      9  C   UNL     1      -4.749   2.486  -1.113  0.00  0.00    +0.200 C 
ATOM     10  C   UNL     1      -4.924   1.147  -1.182  0.00  0.00    +0.098 C 
ENDROOT
BRANCH   3  11
ATOM     11  C   UNL     1      -5.336  -0.582   3.116  0.00  0.00    +0.004 A 
ATOM     12  C   UNL     1      -6.059  -1.501   2.359  0.00  0.00    +0.011 A 
ATOM     13  C   UNL     1      -6.271  -2.776   2.844  0.00  0.00    +0.022 A 
ATOM     14  C   UNL     1      -5.767  -3.142   4.080  0.00  0.00    +0.059 A 
ATOM     15  C   UNL     1      -5.048  -2.232   4.837  0.00  0.00    +0.060 A 
ATOM     16  C   UNL     1      -4.825  -0.956   4.357  0.00  0.00    +0.031 A 
ATOM     17 CL   UNL     1      -4.418  -2.698   6.386  0.00  0.00    -0.082 Cl
ATOM     18 CL   UNL     1      -6.038  -4.747   4.684  0.00  0.00    -0.082 Cl
ENDBRANCH   3  11
BRANCH   1  21
ATOM     19  C   UNL     1      -1.202  -0.638   0.010  0.00  0.00    +0.162 A 
ATOM     20  C   UNL     1      -2.374   0.100   0.019  0.00  0.00    +0.057 A 
ATOM     21  C   UNL     1      -3.597  -0.543   0.028  0.00  0.00    +0.011 A 
ATOM     22  C   UNL     1      -3.654  -1.929   0.027  0.00  0.00    +0.128 A 
ATOM     23  C   UNL     1      -2.483  -2.672   0.017  0.00  0.00    +0.095 A 
ATOM     24  C   UNL     1      -1.256  -2.029   0.003  0.00  0.00    +0.165 A 
BRANCH  19  26
ATOM     25  C   UNL     1      -0.017   1.425   0.010  0.00  0.00    +0.277 C 
ATOM     26  O   UNL     1       0.002  -0.004   0.002  0.00  0.00    -0.491 OA
ENDBRANCH  19  26
BRANCH  24  27
ATOM     27  O   UNL     1      -0.107  -2.755  -0.012  0.00  0.00    -0.491 OA
ATOM     28  C   UNL     1      -0.238  -4.178  -0.019  0.00  0.00    +0.277 C 
ENDBRANCH  24  27
BRANCH  22  29
ATOM     29  O   UNL     1      -4.859  -2.560   0.035  0.00  0.00    -0.495 OA
ATOM     30  C   UNL     1      -4.843  -3.989   0.034  0.00  0.00    +0.277 C 
ENDBRANCH  22  29
ENDBRANCH   1  21
BRANCH   9  31
ATOM     31  N   UNL     1      -4.811   3.207  -2.279  0.00  0.00    -0.328 N 
ATOM     32  H   UNL     1      -4.689   4.169  -2.262  0.00  0.00    +0.145 HD
ATOM     33  H   UNL     1      -4.976   2.754  -3.121  0.00  0.00    +0.145 HD
ENDBRANCH   9  31
BRANCH  10  34
ATOM     34  C   UNL     1      -5.169   0.547  -2.459  0.00  0.00    +0.101 C 
ATOM     35  N   UNL     1      -5.363   0.071  -3.472  0.00  0.00    -0.191 NA
ENDBRANCH  10  34
TORSDOF 7
