REMARK  Name = ZINC43223211
REMARK  7 active torsions:
REMARK  status: ('A' for Active; 'I' for Inactive)
REMARK    1  A    between atoms: C_4  and  C_7
REMARK    2  A    between atoms: C_7  and  C_8
REMARK    3  A    between atoms: C_8  and  C_10
REMARK    4  A    between atoms: C_8  and  N_16
REMARK    5  A    between atoms: C_17  and  C_19
REMARK    6  A    between atoms: C_24  and  C_26
REMARK    7  A    between atoms: N_28  and  C_29
REMARK                            x       y       z     vdW  Elec       q    Type
REMARK                         _______ _______ _______ _____ _____    ______ ____
ROOT
ATOM      1  C   UNL     1       2.139  -2.789   4.081  0.00  0.00    +0.068 C 
ATOM      2  C   UNL     1       2.540  -4.258   3.826  0.00  0.00    -0.069 C 
ATOM      3  N   UNL     1       3.350  -4.636   5.013  0.00  0.00    +0.380 N 
ATOM      4  C   UNL     1       2.649  -3.992   6.153  0.00  0.00    -0.069 C 
ATOM      5  C   UNL     1       2.209  -2.612   5.612  0.00  0.00    +0.068 C 
ATOM      6  H   UNL     1       3.361  -5.639   5.127  0.00  0.00    -0.086 HD
ATOM      7  H   UNL     1       4.289  -4.279   4.928  0.00  0.00    -0.086 HD
ENDROOT
BRANCH   1   9
ATOM      8  N   UNL     1       3.229  -1.870   2.059  0.00  0.00    -0.308 N 
ATOM      9  C   UNL     1       3.109  -1.856   3.402  0.00  0.00    +0.215 C 
ATOM     10  O   UNL     1       3.781  -1.094   4.063  0.00  0.00    -0.276 OA
ATOM     11  H   UNL     1       2.691  -2.480   1.530  0.00  0.00    +0.149 HD
BRANCH   8  12
ATOM     12  C   UNL     1       4.171  -0.963   1.399  0.00  0.00    +0.107 C 
BRANCH  12  13
ATOM     13  C   UNL     1       5.543  -1.588   1.383  0.00  0.00    -0.027 A 
ATOM     14  C   UNL     1       5.683  -2.940   1.128  0.00  0.00    +0.005 A 
ATOM     15  C   UNL     1       6.941  -3.513   1.114  0.00  0.00    +0.000 A 
ATOM     16  C   UNL     1       8.058  -2.735   1.354  0.00  0.00    +0.000 A 
ATOM     17  C   UNL     1       7.917  -1.384   1.608  0.00  0.00    +0.000 A 
ATOM     18  C   UNL     1       6.660  -0.809   1.618  0.00  0.00    +0.005 A 
ENDBRANCH  12  13
BRANCH  12  19
ATOM     19  C   UNL     1       3.711  -0.707  -0.038  0.00  0.00    +0.062 C 
BRANCH  19  23
ATOM     20  C   UNL     1      -0.017   1.378   0.010  0.00  0.00    +0.000 A 
ATOM     21  C   UNL     1       1.171   2.086   0.002  0.00  0.00    +0.000 A 
ATOM     22  C   UNL     1       2.377   1.411  -0.013  0.00  0.00    +0.004 A 
ATOM     23  C   UNL     1       2.396   0.029  -0.020  0.00  0.00    -0.045 A 
ATOM     24  C   UNL     1       1.208  -0.679  -0.012  0.00  0.00    +0.004 A 
ATOM     25  C   UNL     1       0.002  -0.004   0.002  0.00  0.00    +0.000 A 
ENDBRANCH  19  23
ENDBRANCH  12  19
ENDBRANCH   8  12
ENDBRANCH   1   9
BRANCH   5  26
ATOM     26  C   UNL     1       0.855  -2.241   6.158  0.00  0.00    +0.215 C 
ATOM     27  O   UNL     1      -0.091  -2.124   5.407  0.00  0.00    -0.276 OA
ATOM     28  N   UNL     1       0.694  -2.039   7.481  0.00  0.00    -0.308 N 
ATOM     29  H   UNL     1       1.450  -2.132   8.081  0.00  0.00    +0.149 HD
BRANCH  28  30
ATOM     30  C   UNL     1      -0.623  -1.678   8.012  0.00  0.00    +0.104 C 
ATOM     31  C   UNL     1      -0.474  -0.943   9.361  0.00  0.00    +0.032 C 
ATOM     32  C   UNL     1      -0.577  -2.097  10.380  0.00  0.00    +0.037 C 
ATOM     33  C   UNL     1      -1.396  -3.166   9.688  0.00  0.00    -0.042 A 
ATOM     34  C   UNL     1      -1.423  -2.925   8.324  0.00  0.00    -0.024 A 
ATOM     35  C   UNL     1      -2.118  -3.779   7.484  0.00  0.00    +0.006 A 
ATOM     36  C   UNL     1      -2.786  -4.872   8.002  0.00  0.00    +0.000 A 
ATOM     37  C   UNL     1      -2.760  -5.115   9.363  0.00  0.00    +0.000 A 
ATOM     38  C   UNL     1      -2.064  -4.261  10.207  0.00  0.00    +0.004 A 
ENDBRANCH  28  30
ENDBRANCH   5  26
TORSDOF 7
