REMARK  Name = ZINC50362013
REMARK  12 active torsions:
REMARK  status: ('A' for Active; 'I' for Inactive)
REMARK    1  A    between atoms: C_1  and  C_2
REMARK    2  A    between atoms: C_2  and  C_3
REMARK    3  A    between atoms: C_2  and  C_4
REMARK    4  A    between atoms: C_4  and  N_5
REMARK    5  A    between atoms: N_5  and  C_6
REMARK    6  A    between atoms: N_5  and  C_10
REMARK    7  A    between atoms: C_6  and  C_7
REMARK    8  A    between atoms: C_7  and  C_8
REMARK    9  A    between atoms: C_7  and  C_9
REMARK   10  A    between atoms: C_10  and  C_12
REMARK   11  A    between atoms: C_10  and  C_14
REMARK   12  A    between atoms: C_12  and  N_13
REMARK                            x       y       z     vdW  Elec       q    Type
REMARK                         _______ _______ _______ _____ _____    ______ ____
ROOT
ATOM      1  C   UNL     1      -2.544  -2.308  -0.570  0.00  0.00    -0.019 C 
ENDROOT
BRANCH   1   2
ATOM      2  C   UNL     1      -3.485  -1.760   0.472  0.00  0.00    +0.092 A 
ATOM      3  C   UNL     1      -4.440  -2.457   1.114  0.00  0.00    +0.059 A 
ATOM      4  C   UNL     1      -5.080  -1.558   1.998  0.00  0.00    +0.070 A 
ATOM      5  C   UNL     1      -4.477  -0.364   1.844  0.00  0.00    +0.184 A 
ATOM      6  O   UNL     1      -3.509  -0.494   0.922  0.00  0.00    -0.454 OA
ATOM      7 BR   UNL     1      -4.914   1.225   2.772  0.00  0.00    -0.007 Br
ATOM      8 BR   UNL     1      -6.509  -1.956   3.172  0.00  0.00    -0.046 Br
ENDBRANCH   1   2
BRANCH   1   9
ATOM      9  N   UNL     1      -1.164  -2.228  -0.073  0.00  0.00    +0.385 N 
ATOM     10  H   UNL     1      -0.532  -2.117  -0.852  0.00  0.00    -0.081 HD
BRANCH   9  11
ATOM     11  C   UNL     1      -1.035  -1.078   0.832  0.00  0.00    -0.075 C 
BRANCH  11  13
ATOM     12  C   UNL     1      -1.031   1.416   0.972  0.00  0.00    +0.005 C 
ATOM     13  C   UNL     1      -1.183   0.218   0.033  0.00  0.00    -0.034 C 
ATOM     14  C   UNL     1      -0.102   0.278  -1.048  0.00  0.00    +0.005 C 
ENDBRANCH  11  13
ENDBRANCH   9  11
BRANCH   9  15
ATOM     15  C   UNL     1      -0.833  -3.462   0.653  0.00  0.00    -0.075 C 
BRANCH  15  16
ATOM     16  C   UNL     1      -0.808  -4.638  -0.325  0.00  0.00    -0.034 C 
ATOM     17  C   UNL     1       0.328  -4.440  -1.331  0.00  0.00    +0.005 C 
ATOM     18  C   UNL     1      -0.584  -5.939   0.447  0.00  0.00    +0.005 C 
ENDBRANCH  15  16
ENDBRANCH   9  15
ENDBRANCH   1   9
BRANCH   1  19
ATOM     19  C   UNL     1      -2.672  -1.487  -1.854  0.00  0.00    -0.094 C 
BRANCH  19  20
ATOM     20  N   UNL     1      -1.801  -2.059  -2.889  0.00  0.00    +0.377 N 
ATOM     21  H   UNL     1      -1.820  -1.469  -3.708  0.00  0.00    -0.090 HD
ATOM     22  H   UNL     1      -0.856  -2.117  -2.539  0.00  0.00    -0.090 HD
ATOM     23  H   UNL     1      -2.128  -2.982  -3.132  0.00  0.00    -0.090 HD
ENDBRANCH  19  20
ENDBRANCH   1  19
TORSDOF 8
