REMARK  Name = ZINC20735650
REMARK  4 active torsions:
REMARK  status: ('A' for Active; 'I' for Inactive)
REMARK    1  A    between atoms: C_1  and  C_2
REMARK    2  A    between atoms: C_14  and  O_27
REMARK    3  A    between atoms: C_17  and  C_19
REMARK    4  A    between atoms: C_22  and  C_25
REMARK                            x       y       z     vdW  Elec       q    Type
REMARK                         _______ _______ _______ _____ _____    ______ ____
ROOT
ATOM      1  C   UNL     1       0.468   1.747  -0.271  0.00  0.00    +0.068 C 
ATOM      2  C   UNL     1       0.523   0.247  -0.138  0.00  0.00    +0.067 A 
ATOM      3  C   UNL     1       0.210  -0.676  -1.154  0.00  0.00    +0.037 A 
ATOM      4  C   UNL     1       0.380  -1.933  -0.642  0.00  0.00    +0.167 A 
ATOM      5  N   UNL     1       0.798  -1.773   0.668  0.00  0.00    -0.179 N 
ATOM      6  N   UNL     1       0.874  -0.406   0.934  0.00  0.00    -0.167 NA
ATOM      7  C   UNL     1       1.096  -2.798   1.562  0.00  0.00    +0.253 A 
ATOM      8  N   UNL     1       0.987  -4.055   1.163  0.00  0.00    -0.219 NA
ATOM      9  C   UNL     1       1.262  -5.053   1.987  0.00  0.00    +0.116 A 
ATOM     10  C   UNL     1       1.669  -4.768   3.282  0.00  0.00    +0.039 A 
ATOM     11  C   UNL     1       1.772  -3.440   3.666  0.00  0.00    +0.116 A 
ATOM     12  N   UNL     1       1.487  -2.491   2.789  0.00  0.00    -0.219 NA
ATOM     13  N   UNL     1       0.204  -3.152  -1.177  0.00  0.00    -0.197 NA
ATOM     14  C   UNL     1      -0.154  -3.616  -2.284  0.00  0.00    +0.199 C 
ATOM     15  C   UNL     1      -0.497  -2.916  -3.539  0.00  0.00    +0.165 C 
ATOM     16  S   UNL     1      -1.396  -1.382  -3.271  0.00  0.00    -0.138 S 
ATOM     17  C   UNL     1      -0.220  -0.248  -2.525  0.00  0.00    +0.112 C 
ENDROOT
BRANCH  17  18
ATOM     18  C   UNL     1      -0.851   1.117  -2.433  0.00  0.00    -0.030 A 
ATOM     19  C   UNL     1      -2.065   1.272  -1.786  0.00  0.00    +0.006 A 
ATOM     20  C   UNL     1      -2.649   2.518  -1.698  0.00  0.00    +0.019 A 
ATOM     21  C   UNL     1      -2.012   3.626  -2.263  0.00  0.00    +0.052 A 
ATOM     22  C   UNL     1      -0.787   3.462  -2.913  0.00  0.00    +0.019 A 
ATOM     23  C   UNL     1      -0.212   2.210  -2.990  0.00  0.00    +0.006 A 
BRANCH  21  24
ATOM     24  C   UNL     1      -2.613   4.923  -2.175  0.00  0.00    +0.099 C 
ATOM     25  N   UNL     1      -3.089   5.952  -2.106  0.00  0.00    -0.191 NA
ENDBRANCH  21  24
ENDBRANCH  17  18
BRANCH  14  26
ATOM     26  O   UNL     1      -0.241  -4.961  -2.338  0.00  0.00    -0.495 OA
ATOM     27  H   UNL     1      -0.014  -5.404  -1.509  0.00  0.00    +0.293 HD
ENDBRANCH  14  26
TORSDOF 3
