REMARK  Name = ZINC13640741
REMARK  8 active torsions:
REMARK  status: ('A' for Active; 'I' for Inactive)
REMARK    1  A    between atoms: C_1  and  C_2
REMARK    2  A    between atoms: C_2  and  C_3
REMARK    3  A    between atoms: C_3  and  C_5
REMARK    4  A    between atoms: C_3  and  S_19
REMARK    5  A    between atoms: N_7  and  N_8
REMARK    6  A    between atoms: C_9  and  C_10
REMARK    7  A    between atoms: C_13  and  O_17
REMARK    8  A    between atoms: S_19  and  C_20
REMARK                            x       y       z     vdW  Elec       q    Type
REMARK                         _______ _______ _______ _____ _____    ______ ____
ROOT
ATOM      1  C   UNL     1      -4.007   1.510   0.067  0.00  0.00    +0.246 C 
ATOM      2  O   UNL     1      -4.175   2.629  -0.371  0.00  0.00    -0.273 OA
ATOM      3  N   UNL     1      -5.054   0.810   0.547  0.00  0.00    -0.206 N 
ATOM      4  H   UNL     1      -4.920  -0.084   0.898  0.00  0.00    +0.177 HD
ENDROOT
BRANCH   3   5
ATOM      5  N   UNL     1      -6.336   1.375   0.540  0.00  0.00    -0.188 NA
ATOM      6  C   UNL     1      -7.344   0.701   1.003  0.00  0.00    +0.138 C 
BRANCH   6   7
ATOM      7  C   UNL     1      -8.694   1.296   0.996  0.00  0.00    -0.003 A 
ATOM      8  C   UNL     1      -8.888   2.586   0.496  0.00  0.00    +0.028 A 
ATOM      9  C   UNL     1     -10.153   3.136   0.486  0.00  0.00    +0.061 A 
ATOM     10  C   UNL     1     -11.231   2.413   0.982  0.00  0.00    +0.145 A 
ATOM     11  C   UNL     1     -11.041   1.131   1.484  0.00  0.00    +0.061 A 
ATOM     12  C   UNL     1      -9.780   0.572   1.493  0.00  0.00    +0.028 A 
ATOM     13 BR   UNL     1     -12.513   0.153   2.157  0.00  0.00    -0.046 Br
ATOM     14 BR   UNL     1     -10.419   4.879  -0.197  0.00  0.00    -0.046 Br
BRANCH  10  15
ATOM     15  O   UNL     1     -12.474   2.961   0.976  0.00  0.00    -0.505 OA
ATOM     16  H   UNL     1     -12.690   3.456   1.778  0.00  0.00    +0.292 HD
ENDBRANCH  10  15
ENDBRANCH   6   7
ENDBRANCH   3   5
BRANCH   1  17
ATOM     17  C   UNL     1      -2.628   0.903   0.075  0.00  0.00    +0.141 C 
BRANCH  17  19
ATOM     18  C   UNL     1      -1.097  -0.683  -1.103  0.00  0.00    +0.005 C 
ATOM     19  C   UNL     1      -2.441   0.045  -1.178  0.00  0.00    +0.020 C 
ENDBRANCH  17  19
BRANCH  17  20
ATOM     20  S   UNL     1      -1.388   2.221   0.093  0.00  0.00    -0.075 S 
BRANCH  20  21
ATOM     21  C   UNL     1      -1.656   2.871   1.709  0.00  0.00    +0.168 A 
ATOM     22  N   UNL     1      -0.905   3.850   2.296  0.00  0.00    -0.333 N 
ATOM     23  H   UNL     1      -0.121   4.320   1.891  0.00  0.00    +0.168 HD
ATOM     24  C   UNL     1      -1.432   4.070   3.558  0.00  0.00    +0.067 A 
ATOM     25  C   UNL     1      -1.105   4.923   4.601  0.00  0.00    +0.028 A 
ATOM     26  C   UNL     1      -1.846   4.901   5.765  0.00  0.00    +0.002 A 
ATOM     27  C   UNL     1      -2.918   4.031   5.899  0.00  0.00    +0.002 A 
ATOM     28  C   UNL     1      -3.257   3.177   4.873  0.00  0.00    +0.030 A 
ATOM     29  C   UNL     1      -2.517   3.187   3.688  0.00  0.00    +0.090 A 
ATOM     30  N   UNL     1      -2.602   2.484   2.529  0.00  0.00    -0.222 NA
ENDBRANCH  20  21
ENDBRANCH  17  20
ENDBRANCH   1  17
TORSDOF 7
