REMARK  Name = ZINC40320262
REMARK  13 active torsions:
REMARK  status: ('A' for Active; 'I' for Inactive)
REMARK    1  A    between atoms: C_1  and  C_2
REMARK    2  A    between atoms: C_2  and  O_3
REMARK    3  A    between atoms: O_3  and  C_4
REMARK    4  A    between atoms: C_6  and  C_33
REMARK    5  A    between atoms: C_9  and  O_10
REMARK    6  A    between atoms: O_10  and  C_11
REMARK    7  A    between atoms: C_11  and  C_12
REMARK    8  A    between atoms: C_12  and  C_14
REMARK    9  A    between atoms: C_12  and  O_32
REMARK   10  A    between atoms: C_14  and  N_15
REMARK   11  A    between atoms: N_15  and  C_16
REMARK   12  A    between atoms: N_15  and  C_24
REMARK   13  A    between atoms: C_16  and  C_17
REMARK                            x       y       z     vdW  Elec       q    Type
REMARK                         _______ _______ _______ _____ _____    ______ ____
ROOT
ATOM      1  C   UNL     1      -8.727  -2.689  -0.366  0.00  0.00    -0.043 C 
ENDROOT
BRANCH   1   2
ATOM      2  N   UNL     1      -8.901  -1.245  -0.573  0.00  0.00    +0.387 N 
ATOM      3  H   UNL     1      -8.989  -1.056  -1.560  0.00  0.00    -0.081 HD
BRANCH   2   4
ATOM      4  C   UNL     1      -7.735  -0.529  -0.039  0.00  0.00    -0.045 C 
ATOM      5  C   UNL     1      -8.133   0.910   0.327  0.00  0.00    +0.009 C 
ATOM      6  C   UNL     1      -6.864   1.759   0.583  0.00  0.00    +0.164 C 
ATOM      7  S   UNL     1      -5.605   0.933  -0.473  0.00  0.00    -0.033 S 
ATOM      8  O   UNL     1      -4.576   0.412   0.356  0.00  0.00    -0.174 OA
ATOM      9  O   UNL     1      -5.266   1.797  -1.550  0.00  0.00    -0.174 OA
ATOM     10  C   UNL     1      -6.619  -0.463  -1.120  0.00  0.00    +0.151 C 
ENDBRANCH   2   4
BRANCH   2  11
ATOM     11  C   UNL     1     -10.114  -0.793   0.122  0.00  0.00    -0.042 C 
BRANCH  11  12
ATOM     12  C   UNL     1     -10.527   0.554  -0.412  0.00  0.00    -0.063 A 
ATOM     13  C   UNL     1     -10.779   1.596   0.461  0.00  0.00    +0.002 A 
ATOM     14  C   UNL     1     -11.158   2.832  -0.028  0.00  0.00    +0.001 A 
ATOM     15  C   UNL     1     -11.285   3.026  -1.391  0.00  0.00    +0.015 A 
ATOM     16  C   UNL     1     -11.032   1.985  -2.265  0.00  0.00    +0.018 A 
ATOM     17  C   UNL     1     -10.648   0.749  -1.775  0.00  0.00    +0.017 A 
ATOM     18 BR   UNL     1     -11.206   2.250  -4.129  0.00  0.00    -0.050 Br
ENDBRANCH  11  12
ENDBRANCH   2  11
ENDBRANCH   1   2
BRANCH   1  19
ATOM     19  C   UNL     1      -7.868  -3.266  -1.493  0.00  0.00    +0.135 C 
BRANCH  19  20
ATOM     20  O   UNL     1      -8.386  -2.837  -2.754  0.00  0.00    -0.390 OA
ATOM     21  H   UNL     1      -9.298  -3.114  -2.919  0.00  0.00    +0.210 HD
ENDBRANCH  19  20
BRANCH  19  22
ATOM     22  C   UNL     1      -7.895  -4.794  -1.423  0.00  0.00    +0.258 C 
BRANCH  22  23
ATOM     23  O   UNL     1      -7.003  -5.332  -2.401  0.00  0.00    -0.486 OA
BRANCH  23  29
ATOM     24  C   UNL     1      -6.054  -7.273  -3.405  0.00  0.00    +0.163 A 
ATOM     25  C   UNL     1      -5.951  -8.648  -3.475  0.00  0.00    +0.060 A 
ATOM     26  C   UNL     1      -6.710  -9.448  -2.612  0.00  0.00    +0.018 A 
ATOM     27  C   UNL     1      -7.569  -8.849  -1.682  0.00  0.00    +0.015 A 
ATOM     28  C   UNL     1      -7.665  -7.477  -1.619  0.00  0.00    +0.050 A 
ATOM     29  C   UNL     1      -6.907  -6.684  -2.472  0.00  0.00    +0.162 A 
BRANCH  26  30
ATOM     30  C   UNL     1      -6.606 -10.911  -2.682  0.00  0.00    +0.258 C 
ATOM     31  O   UNL     1      -7.263 -11.602  -1.933  0.00  0.00    -0.296 OA
ENDBRANCH  26  30
BRANCH  24  32
ATOM     32  O   UNL     1      -5.319  -6.493  -4.242  0.00  0.00    -0.489 OA
BRANCH  32  34
ATOM     33  C   UNL     1      -3.725  -6.129  -6.022  0.00  0.00    +0.048 C 
ATOM     34  C   UNL     1      -4.466  -7.163  -5.172  0.00  0.00    +0.226 C 
ENDBRANCH  32  34
ENDBRANCH  24  32
ENDBRANCH  23  29
ENDBRANCH  22  23
ENDBRANCH  19  22
ENDBRANCH   1  19
TORSDOF 12
