REMARK  Name = ZINC44699355
REMARK  15 active torsions:
REMARK  status: ('A' for Active; 'I' for Inactive)
REMARK    1  A    between atoms: C_1  and  C_2
REMARK    2  A    between atoms: C_2  and  C_3
REMARK    3  A    between atoms: C_3  and  C_4
REMARK    4  A    between atoms: C_3  and  C_5
REMARK    5  A    between atoms: C_3  and  C_6
REMARK    6  A    between atoms: C_6  and  O_8
REMARK    7  A    between atoms: O_8  and  C_9
REMARK    8  A    between atoms: C_12  and  C_40
REMARK    9  A    between atoms: C_18  and  C_25
REMARK   10  A    between atoms: C_20  and  C_24
REMARK   11  A    between atoms: C_25  and  C_26
REMARK   12  A    between atoms: C_26  and  C_27
REMARK   13  A    between atoms: C_30  and  O_36
REMARK   14  A    between atoms: O_36  and  C_37
REMARK   15  A    between atoms: C_37  and  C_39
REMARK                            x       y       z     vdW  Elec       q    Type
REMARK                         _______ _______ _______ _____ _____    ______ ____
ROOT
ATOM      1  C   UNL     1       0.228  -3.933  -1.792  0.00  0.00    +0.185 C 
ATOM      2  C   UNL     1      -0.793  -4.492  -2.781  0.00  0.00    +0.052 C 
ATOM      3  C   UNL     1      -0.393  -4.043  -4.193  0.00  0.00    +0.012 C 
ATOM      4  C   UNL     1       0.963  -4.630  -4.493  0.00  0.00    -0.020 C 
ATOM      5  C   UNL     1       1.853  -4.801  -3.533  0.00  0.00    -0.044 C 
ATOM      6  C   UNL     1       1.631  -4.391  -2.109  0.00  0.00    +0.063 C 
ATOM      7  C   UNL     1       2.081  -5.542  -1.208  0.00  0.00    +0.007 C 
ATOM      8  C   UNL     1       3.578  -5.776  -1.424  0.00  0.00    +0.012 C 
ATOM      9  C   UNL     1       3.920  -5.880  -2.878  0.00  0.00    -0.023 C 
ATOM     10  C   UNL     1       3.153  -5.435  -3.852  0.00  0.00    -0.000 C 
ATOM     11  C   UNL     1       3.986  -7.073  -0.723  0.00  0.00    +0.012 C 
ATOM     12  C   UNL     1      -0.324  -2.516  -4.253  0.00  0.00    +0.012 C 
ENDROOT
BRANCH   1  13
ATOM     13  O   UNL     1       0.184  -2.505  -1.836  0.00  0.00    -0.460 OA
BRANCH  13  14
ATOM     14  C   UNL     1      -0.685  -1.897  -1.014  0.00  0.00    +0.313 C 
ATOM     15  O   UNL     1      -1.385  -2.554  -0.281  0.00  0.00    -0.250 OA
BRANCH  14  16
ATOM     16  C   UNL     1      -0.787  -0.393  -1.006  0.00  0.00    +0.062 C 
ATOM     17  C   UNL     1      -1.188   0.099  -2.398  0.00  0.00    +0.022 C 
ATOM     18  C   UNL     1       0.567   0.208  -0.623  0.00  0.00    +0.022 C 
BRANCH  16  20
ATOM     19  C   UNL     1      -1.948   1.567   0.021  0.00  0.00    +0.005 C 
ATOM     20  C   UNL     1      -1.844   0.041   0.012  0.00  0.00    +0.014 C 
ENDBRANCH  16  20
ENDBRANCH  14  16
ENDBRANCH  13  14
ENDBRANCH   1  13
BRANCH   7  21
ATOM     21  C   UNL     1       1.303  -6.810  -1.567  0.00  0.00    +0.008 C 
BRANCH  21  22
ATOM     22  C   UNL     1       1.741  -7.303  -2.948  0.00  0.00    +0.045 C 
BRANCH  22  23
ATOM     23  C   UNL     1       1.063  -8.641  -3.250  0.00  0.00    +0.180 C 
ATOM     24  C   UNL     1       1.593  -9.194  -4.576  0.00  0.00    +0.089 C 
ATOM     25  C   UNL     1       0.883 -10.513  -4.896  0.00  0.00    +0.190 C 
ATOM     26  C   UNL     1      -0.626 -10.253  -4.994  0.00  0.00    +0.165 C 
ATOM     27  C   UNL     1      -1.064  -9.525  -3.742  0.00  0.00    +0.311 C 
ATOM     28  O   UNL     1      -2.025  -9.898  -3.111  0.00  0.00    -0.251 OA
ATOM     29  O   UNL     1      -0.352  -8.448  -3.350  0.00  0.00    -0.461 OA
BRANCH  25  30
ATOM     30  O   UNL     1       1.141 -11.460  -3.857  0.00  0.00    -0.461 OA
BRANCH  30  31
ATOM     31  C   UNL     1       1.160 -12.757  -4.205  0.00  0.00    +0.304 C 
ATOM     32  O   UNL     1       0.963 -13.076  -5.354  0.00  0.00    -0.251 OA
ATOM     33  C   UNL     1       1.426 -13.813  -3.164  0.00  0.00    +0.136 C 
ENDBRANCH  30  31
ENDBRANCH  25  30
ENDBRANCH  22  23
ENDBRANCH  21  22
ENDBRANCH   7  21
TORSDOF 9
