REMARK  Name = ZINC09385513
REMARK  8 active torsions:
REMARK  status: ('A' for Active; 'I' for Inactive)
REMARK    1  A    between atoms: C_1  and  C_2
REMARK    2  A    between atoms: C_3  and  N_14
REMARK    3  A    between atoms: C_4  and  C_13
REMARK    4  A    between atoms: N_5  and  C_7
REMARK    5  A    between atoms: C_15  and  C_17
REMARK    6  A    between atoms: C_17  and  O_18
REMARK    7  A    between atoms: O_18  and  C_19
REMARK    8  A    between atoms: C_19  and  C_21
REMARK                            x       y       z     vdW  Elec       q    Type
REMARK                         _______ _______ _______ _____ _____    ______ ____
ROOT
ATOM      1  N   UNL     1       1.477   7.739  -2.575  0.00  0.00    -0.280 N 
ATOM      2  C   UNL     1       1.307   6.425  -2.331  0.00  0.00    +0.255 C 
ATOM      3  O   UNL     1       0.997   5.675  -3.233  0.00  0.00    -0.272 OA
ATOM      4  H   UNL     1       1.640   8.352  -1.841  0.00  0.00    +0.155 HD
ENDROOT
BRANCH   1   7
ATOM      5  C   UNL     1       2.324   6.109  -5.091  0.00  0.00    +0.069 C 
ATOM      6  C   UNL     1       1.791   7.518  -5.051  0.00  0.00    +0.082 A 
ATOM      7  C   UNL     1       1.419   8.223  -3.896  0.00  0.00    +0.078 A 
ATOM      8  C   UNL     1       0.999   9.456  -4.278  0.00  0.00    +0.063 A 
ATOM      9  N   UNL     1       1.098   9.521  -5.633  0.00  0.00    -0.235 N 
ATOM     10  N   UNL     1       1.593   8.292  -6.087  0.00  0.00    -0.170 NA
ATOM     11  C   UNL     1       0.510  10.552  -3.366  0.00  0.00    +0.068 C 
BRANCH   9  12
ATOM     12  C   UNL     1       0.764  10.622  -6.433  0.00  0.00    +0.066 A 
ATOM     13  C   UNL     1       0.083  10.433  -7.629  0.00  0.00    +0.028 A 
ATOM     14  C   UNL     1      -0.249  11.520  -8.412  0.00  0.00    +0.002 A 
ATOM     15  C   UNL     1       0.103  12.796  -8.012  0.00  0.00    +0.000 A 
ATOM     16  C   UNL     1       0.786  12.988  -6.825  0.00  0.00    +0.002 A 
ATOM     17  C   UNL     1       1.117  11.904  -6.034  0.00  0.00    +0.028 A 
ENDBRANCH   9  12
ENDBRANCH   1   7
BRANCH   2  18
ATOM     18  C   UNL     1       1.502   5.886  -0.937  0.00  0.00    +0.328 C 
BRANCH  18  19
ATOM     19  O   UNL     1       1.262   4.454  -0.934  0.00  0.00    -0.452 OA
BRANCH  19  20
ATOM     20  C   UNL     1       1.396   3.814   0.244  0.00  0.00    +0.341 C 
ATOM     21  O   UNL     1       1.704   4.436   1.242  0.00  0.00    -0.245 OA
BRANCH  20  22
ATOM     22  C   UNL     1       1.168   2.356   0.324  0.00  0.00    +0.073 A 
ATOM     23  C   UNL     1       2.229   1.439   0.121  0.00  0.00    +0.015 A 
ATOM     24  C   UNL     1       3.530   1.875  -0.161  0.00  0.00    +0.011 A 
ATOM     25  C   UNL     1       4.521   0.960  -0.351  0.00  0.00    +0.001 A 
ATOM     26  C   UNL     1       4.257  -0.406  -0.269  0.00  0.00    +0.002 A 
ATOM     27  C   UNL     1       3.005  -0.864   0.004  0.00  0.00    +0.028 A 
ATOM     28  C   UNL     1       1.956   0.051   0.207  0.00  0.00    +0.072 A 
ATOM     29  N   UNL     1       0.719  -0.369   0.476  0.00  0.00    -0.251 NA
ATOM     30  C   UNL     1      -0.281   0.463   0.667  0.00  0.00    +0.046 A 
ATOM     31  C   UNL     1      -0.094   1.843   0.597  0.00  0.00    -0.012 A 
ATOM     32  C   UNL     1      -1.407   2.551   0.848  0.00  0.00    +0.038 C 
ATOM     33  C   UNL     1      -2.493   1.474   0.651  0.00  0.00    +0.011 C 
ATOM     34  C   UNL     1      -1.736   0.169   0.977  0.00  0.00    +0.056 C 
ENDBRANCH  20  22
ENDBRANCH  19  20
ENDBRANCH  18  19
ENDBRANCH   2  18
TORSDOF 6
