REMARK  Name = ZINC30826199
REMARK  9 active torsions:
REMARK  status: ('A' for Active; 'I' for Inactive)
REMARK    1  A    between atoms: C_1  and  C_2
REMARK    2  A    between atoms: N_5  and  C_8
REMARK    3  A    between atoms: C_11  and  N_35
REMARK    4  A    between atoms: C_13  and  C_14
REMARK    5  A    between atoms: N_16  and  C_17
REMARK    6  A    between atoms: C_22  and  N_23
REMARK    7  A    between atoms: C_29  and  C_31
REMARK    8  A    between atoms: C_31  and  C_32
REMARK    9  A    between atoms: C_31  and  C_33
REMARK                            x       y       z     vdW  Elec       q    Type
REMARK                         _______ _______ _______ _____ _____    ______ ____
ROOT
ATOM      1  C   UNL     1       3.697  -2.169  -0.003  0.00  0.00    +0.250 C 
ATOM      2  O   UNL     1       2.718  -2.746   0.431  0.00  0.00    -0.270 OA
ATOM      3  N   UNL     1       3.601  -0.885  -0.401  0.00  0.00    -0.280 N 
ATOM      4  H   UNL     1       4.465  -0.388  -0.866  0.00  0.00    +0.155 HD
ENDROOT
BRANCH   3   5
ATOM      5  C   UNL     1       2.401  -0.185  -0.224  0.00  0.00    +0.056 A 
ATOM      6  C   UNL     1       1.187  -0.849  -0.322  0.00  0.00    +0.025 A 
ATOM      7  C   UNL     1       0.004  -0.156  -0.147  0.00  0.00    +0.003 A 
ATOM      8  C   UNL     1       0.025   1.199   0.125  0.00  0.00    +0.022 A 
ATOM      9  C   UNL     1       1.230   1.870   0.225  0.00  0.00    +0.064 A 
ATOM     10  C   UNL     1       2.423   1.182   0.051  0.00  0.00    +0.070 A 
ATOM     11 CL   UNL     1       1.252   3.572   0.567  0.00  0.00    -0.082 Cl
BRANCH  10  12
ATOM     12  N   UNL     1       3.645   1.858   0.152  0.00  0.00    -0.324 N 
ATOM     13  C   UNL     1       3.850   2.375   1.511  0.00  0.00    +0.124 C 
ATOM     14  C   UNL     1       5.267   2.946   1.629  0.00  0.00    +0.126 C 
ATOM     15  N   UNL     1       5.465   3.929   0.553  0.00  0.00    -0.298 N 
ATOM     16  C   UNL     1       5.149   3.526  -0.825  0.00  0.00    +0.126 C 
ATOM     17  C   UNL     1       3.736   2.932  -0.847  0.00  0.00    +0.124 C 
ATOM     18  C   UNL     1       5.925   5.167   0.823  0.00  0.00    +0.218 C 
ATOM     19  O   UNL     1       5.997   5.994  -0.061  0.00  0.00    -0.275 OA
BRANCH  18  20
ATOM     20  C   UNL     1       6.350   5.524   2.224  0.00  0.00    +0.069 C 
ATOM     21  C   UNL     1       7.380   6.654   2.173  0.00  0.00    +0.017 C 
ATOM     22  C   UNL     1       5.130   5.982   3.026  0.00  0.00    +0.017 C 
ENDBRANCH  18  20
ENDBRANCH  10  12
ENDBRANCH   3   5
BRANCH   1  28
ATOM     23  C   UNL     1       5.071  -4.240   0.219  0.00  0.00    +0.042 A 
ATOM     24  C   UNL     1       6.293  -4.895   0.125  0.00  0.00    +0.026 A 
ATOM     25  C   UNL     1       7.421  -4.200  -0.261  0.00  0.00    +0.034 A 
ATOM     26  C   UNL     1       7.344  -2.849  -0.564  0.00  0.00    +0.127 A 
ATOM     27  C   UNL     1       6.141  -2.185  -0.482  0.00  0.00    +0.047 A 
ATOM     28  C   UNL     1       4.989  -2.874  -0.092  0.00  0.00    +0.060 A 
BRANCH  23  33
ATOM     29  C   UNL     1       1.051  -7.807   1.921  0.00  0.00    +0.007 C 
ATOM     30  C   UNL     1       2.400  -7.209   1.516  0.00  0.00    -0.011 C 
ATOM     31  C   UNL     1       2.743  -6.042   2.446  0.00  0.00    +0.022 C 
ATOM     32  C   UNL     1       4.063  -5.410   1.998  0.00  0.00    +0.105 C 
ATOM     33  N   UNL     1       3.935  -4.936   0.614  0.00  0.00    -0.329 N 
ATOM     34  C   UNL     1       3.653  -6.047  -0.304  0.00  0.00    +0.105 C 
ATOM     35  C   UNL     1       2.321  -6.698   0.075  0.00  0.00    +0.022 C 
ENDBRANCH  23  33
BRANCH  26  36
ATOM     36  N   UNL     1       8.563  -2.117  -0.976  0.00  0.00    +0.056 N 
ATOM     37  O   UNL     1       8.499  -0.930  -1.242  0.00  0.00    -0.126 OA
ATOM     38  O   UNL     1       9.629  -2.702  -1.049  0.00  0.00    -0.126 OA
ENDBRANCH  26  36
ENDBRANCH   1  28
TORSDOF 6
