REMARK  Name = ZINC39358698
REMARK  7 active torsions:
REMARK  status: ('A' for Active; 'I' for Inactive)
REMARK    1  A    between atoms: C_1  and  C_2
REMARK    2  A    between atoms: C_2  and  C_30
REMARK    3  A    between atoms: C_6  and  C_16
REMARK    4  A    between atoms: C_9  and  O_15
REMARK    5  A    between atoms: C_19  and  O_22
REMARK    6  A    between atoms: O_22  and  C_23
REMARK    7  A    between atoms: C_23  and  C_24
REMARK                            x       y       z     vdW  Elec       q    Type
REMARK                         _______ _______ _______ _____ _____    ______ ____
ROOT
ATOM      1  C   UNL     1      -0.019   1.526   0.010  0.00  0.00    +0.011 C 
ATOM      2  C   UNL     1       0.002  -0.004   0.002  0.00  0.00    -0.023 C 
ATOM      3  C   UNL     1       0.742  -0.503  -1.240  0.00  0.00    +0.057 C 
ATOM      4  C   UNL     1       2.168   0.009  -1.225  0.00  0.00    +0.014 C 
ATOM      5  C   UNL     1       2.811   0.187  -0.051  0.00  0.00    +0.023 C 
ATOM      6  C   UNL     1       4.253   0.667   0.021  0.00  0.00    +0.089 C 
ATOM      7  C   UNL     1       4.633   1.117  -1.358  0.00  0.00    +0.048 C 
ATOM      8  C   UNL     1       5.321   2.129  -1.840  0.00  0.00    +0.235 C 
ATOM      9  N   UNL     1       5.252   2.139  -3.199  0.00  0.00    -0.114 NA
ATOM     10  N   UNL     1       4.614   1.196  -3.686  0.00  0.00    -0.157 NA
ATOM     11  C   UNL     1       4.178   0.330  -2.590  0.00  0.00    +0.245 C 
ATOM     12  N   UNL     1       2.721   0.271  -2.454  0.00  0.00    -0.321 N 
ATOM     13  C   UNL     1       2.172  -0.057   1.176  0.00  0.00    +0.162 C 
ATOM     14  O   UNL     1       2.790   0.108   2.210  0.00  0.00    -0.292 OA
ATOM     15  C   UNL     1       0.742  -0.517   1.242  0.00  0.00    +0.086 C 
ATOM     16  C   UNL     1      -1.431  -0.539  -0.001  0.00  0.00    +0.011 C 
ATOM     17  H   UNL     1       2.151   0.416  -3.225  0.00  0.00    +0.148 HD
ENDROOT
BRANCH   6  18
ATOM     18  C   UNL     1       4.364   1.817   0.989  0.00  0.00    -0.035 A 
ATOM     19  C   UNL     1       3.640   2.974   0.772  0.00  0.00    +0.008 A 
ATOM     20  C   UNL     1       3.741   4.030   1.657  0.00  0.00    +0.046 A 
ATOM     21  C   UNL     1       4.570   3.928   2.765  0.00  0.00    +0.121 A 
ATOM     22  C   UNL     1       5.296   2.765   2.980  0.00  0.00    +0.046 A 
ATOM     23  C   UNL     1       5.187   1.711   2.095  0.00  0.00    +0.008 A 
BRANCH  21  24
ATOM     24  O   UNL     1       4.671   4.965   3.637  0.00  0.00    -0.481 OA
BRANCH  24  25
ATOM     25  C   UNL     1       5.544   4.790   4.755  0.00  0.00    +0.353 C 
BRANCH  25  26
ATOM     26  C   UNL     1       5.528   6.034   5.605  0.00  0.00    +0.393 C 
ATOM     27  O   UNL     1       4.833   6.983   5.284  0.00  0.00    -0.243 OA
ATOM     28  O   UNL     1       6.209   6.091   6.615  0.00  0.00    -0.243 OA
ENDBRANCH  25  26
ENDBRANCH  24  25
ENDBRANCH  21  24
ENDBRANCH   6  18
BRANCH   8  29
ATOM     29  O   UNL     1       6.003   3.034  -1.089  0.00  0.00    -0.491 OA
ATOM     30  H   UNL     1       6.455   3.714  -1.608  0.00  0.00    +0.294 HD
ENDBRANCH   8  29
TORSDOF 5
