REMARK  Name = ZINC59576855
REMARK  10 active torsions:
REMARK  status: ('A' for Active; 'I' for Inactive)
REMARK    1  A    between atoms: C_1  and  C_2
REMARK    2  A    between atoms: C_3  and  C_34
REMARK    3  A    between atoms: C_11  and  C_13
REMARK    4  A    between atoms: C_13  and  S_14
REMARK    5  A    between atoms: S_14  and  C_15
REMARK    6  A    between atoms: C_15  and  C_17
REMARK    7  A    between atoms: C_15  and  C_18
REMARK    8  A    between atoms: N_20  and  C_21
REMARK    9  A    between atoms: C_23  and  C_27
REMARK   10  A    between atoms: C_27  and  C_28
REMARK                            x       y       z     vdW  Elec       q    Type
REMARK                         _______ _______ _______ _____ _____    ______ ____
ROOT
ATOM      1  C   UNL     1       0.135  -6.147   5.443  0.00  0.00    +0.130 C 
ATOM      2  C   UNL     1      -1.169  -5.941   6.217  0.00  0.00    +0.029 C 
ENDROOT
BRANCH   1   3
ATOM      3  C   UNL     1       0.275  -7.601   5.074  0.00  0.00    +0.231 C 
ATOM      4  O   UNL     1      -0.009  -7.973   3.955  0.00  0.00    -0.274 OA
ATOM      5  N   UNL     1       0.716  -8.489   5.987  0.00  0.00    -0.270 N 
ATOM      6  H   UNL     1       0.944  -8.191   6.882  0.00  0.00    +0.156 HD
BRANCH   5   7
ATOM      7  C   UNL     1       0.846  -9.835   5.645  0.00  0.00    +0.121 A 
ATOM      8  C   UNL     1       0.570 -10.386   4.432  0.00  0.00    +0.068 A 
ATOM      9  C   UNL     1       0.835 -11.756   4.514  0.00  0.00    +0.065 A 
ATOM     10  N   UNL     1       1.254 -12.022   5.725  0.00  0.00    -0.177 NA
ATOM     11  N   UNL     1       1.275 -10.828   6.457  0.00  0.00    -0.264 N 
ATOM     12  H   UNL     1       1.547 -10.730   7.383  0.00  0.00    +0.190 HD
BRANCH   9  13
ATOM     13  C   UNL     1       0.667 -12.756   3.399  0.00  0.00    +0.061 C 
BRANCH  13  14
ATOM     14  C   UNL     1       1.985 -13.503   3.182  0.00  0.00    -0.005 C 
ATOM     15  C   UNL     1       3.051 -12.523   2.689  0.00  0.00    +0.004 C 
ATOM     16  C   UNL     1       4.369 -13.270   2.471  0.00  0.00    +0.000 C 
ATOM     17  C   UNL     1       4.165 -14.370   1.427  0.00  0.00    +0.000 C 
ATOM     18  C   UNL     1       3.098 -15.350   1.920  0.00  0.00    +0.000 C 
ATOM     19  C   UNL     1       1.781 -14.602   2.137  0.00  0.00    +0.004 C 
ENDBRANCH  13  14
ENDBRANCH   9  13
ENDBRANCH   5   7
ENDBRANCH   1   3
BRANCH   1  20
ATOM     20  S   UNL     1       0.108  -5.139   3.935  0.00  0.00    -0.141 S 
BRANCH  20  21
ATOM     21  C   UNL     1       0.090  -3.432   4.547  0.00  0.00    +0.144 C 
BRANCH  21  32
ATOM     22  C   UNL     1      -0.018   1.503   0.010  0.00  0.00    +0.045 C 
ATOM     23  C   UNL     1       0.002  -0.004   0.002  0.00  0.00    -0.026 A 
ATOM     24  C   UNL     1       0.006  -0.677  -1.160  0.00  0.00    -0.008 A 
ATOM     25  S   UNL     1       0.032  -2.385  -0.648  0.00  0.00    -0.073 S 
ATOM     26  C   UNL     1       0.037  -2.144   1.110  0.00  0.00    +0.116 A 
ATOM     27  C   UNL     1       0.024  -0.745   1.250  0.00  0.00    +0.075 A 
ATOM     28  C   UNL     1       0.029  -0.257   2.597  0.00  0.00    +0.260 A 
ATOM     29  O   UNL     1       0.014   0.942   2.821  0.00  0.00    -0.267 OA
ATOM     30  N   UNL     1       0.051  -1.142   3.611  0.00  0.00    -0.310 N 
ATOM     31  H   UNL     1       0.054  -0.817   4.525  0.00  0.00    +0.170 HD
ATOM     32  C   UNL     1       0.067  -2.480   3.380  0.00  0.00    +0.121 A 
ATOM     33  N   UNL     1       0.053  -2.956   2.163  0.00  0.00    -0.226 NA
ATOM     34  C   UNL     1      -0.009  -0.122  -2.561  0.00  0.00    +0.052 C 
ENDBRANCH  21  32
ENDBRANCH  20  21
ENDBRANCH   1  20
TORSDOF 7
