REMARK  Name = ZINC67293007
REMARK  6 active torsions:
REMARK  status: ('A' for Active; 'I' for Inactive)
REMARK    1  A    between atoms: C_3  and  N_12
REMARK    2  A    between atoms: C_5  and  O_7
REMARK    3  A    between atoms: O_7  and  C_8
REMARK    4  A    between atoms: C_14  and  C_24
REMARK    5  A    between atoms: N_26  and  C_27
REMARK    6  A    between atoms: C_27  and  C_28
REMARK                            x       y       z     vdW  Elec       q    Type
REMARK                         _______ _______ _______ _____ _____    ______ ____
ROOT
ATOM      1  N   UNL     1       3.568   2.105  -0.024  0.00  0.00    -0.325 N 
ATOM      2  C   UNL     1       3.710   3.138  -0.825  0.00  0.00    +0.212 A 
ATOM      3  C   UNL     1       4.925   3.976  -0.778  0.00  0.00    +0.097 A 
ATOM      4  C   UNL     1       5.279   4.643  -1.943  0.00  0.00    +0.030 A 
ATOM      5  C   UNL     1       4.418   4.457  -3.113  0.00  0.00    +0.020 A 
ATOM      6  C   UNL     1       4.838   4.868  -4.384  0.00  0.00    +0.031 A 
ATOM      7  C   UNL     1       4.010   4.678  -5.469  0.00  0.00    +0.042 A 
ATOM      8  C   UNL     1       2.765   4.083  -5.306  0.00  0.00    +0.023 A 
ATOM      9  C   UNL     1       2.338   3.674  -4.059  0.00  0.00    +0.048 A 
ATOM     10  C   UNL     1       3.155   3.857  -2.953  0.00  0.00    +0.138 A 
ATOM     11  O   UNL     1       2.747   3.464  -1.725  0.00  0.00    -0.439 OA
ATOM     12 CL   UNL     1       4.524   5.186  -7.047  0.00  0.00    -0.084 Cl
ATOM     13  H   UNL     1       4.300   1.833   0.552  0.00  0.00    +0.169 HD
ENDROOT
BRANCH   1  16
ATOM     14  C   UNL     1      -0.016   1.402   0.053  0.00  0.00    +0.006 A 
ATOM     15  C   UNL     1       1.173   2.103   0.031  0.00  0.00    +0.026 A 
ATOM     16  C   UNL     1       2.388   1.414  -0.002  0.00  0.00    +0.045 A 
ATOM     17  C   UNL     1       2.393   0.018  -0.013  0.00  0.00    +0.071 A 
ATOM     18  C   UNL     1       1.194  -0.674   0.009  0.00  0.00    +0.132 A 
ATOM     19  C   UNL     1      -0.009   0.019   0.042  0.00  0.00    +0.046 A 
BRANCH  18  20
ATOM     20  O   UNL     1       1.195  -2.033  -0.001  0.00  0.00    -0.406 OA
BRANCH  20  21
ATOM     21  C   UNL     1      -0.078  -2.682   0.023  0.00  0.00    +0.575 C 
ATOM     22  F   UNL     1      -0.819  -2.298  -1.100  0.00  0.00    -0.133 F 
ATOM     23  F   UNL     1       0.105  -4.069   0.008  0.00  0.00    -0.133 F 
ATOM     24  F   UNL     1      -0.767  -2.316   1.184  0.00  0.00    -0.133 F 
ENDBRANCH  20  21
ENDBRANCH  18  20
ENDBRANCH   1  16
BRANCH   3  25
ATOM     25  C   UNL     1       5.727   4.098   0.452  0.00  0.00    +0.249 C 
ATOM     26  O   UNL     1       5.443   3.435   1.431  0.00  0.00    -0.270 OA
ATOM     27  N   UNL     1       6.774   4.945   0.492  0.00  0.00    -0.309 N 
ATOM     28  H   UNL     1       6.956   5.528  -0.262  0.00  0.00    +0.149 HD
BRANCH  27  29
ATOM     29  C   UNL     1       7.639   4.986   1.673  0.00  0.00    +0.136 C 
BRANCH  29  30
ATOM     30  C   UNL     1       8.743   6.024   1.462  0.00  0.00    +0.135 C 
ATOM     31  C   UNL     1       9.729   5.988   2.650  0.00  0.00    +0.035 C 
ATOM     32  C   UNL     1      10.044   7.494   2.862  0.00  0.00    +0.031 C 
ATOM     33  C   UNL     1       8.682   8.134   2.493  0.00  0.00    +0.160 C 
ATOM     34  O   UNL     1       8.173   7.336   1.410  0.00  0.00    -0.375 OA
ENDBRANCH  29  30
ENDBRANCH  27  29
ENDBRANCH   3  25
TORSDOF 6
