REMARK  Name = ZINC40985668
REMARK  10 active torsions:
REMARK  status: ('A' for Active; 'I' for Inactive)
REMARK    1  A    between atoms: C_1  and  C_2
REMARK    2  A    between atoms: C_2  and  C_3
REMARK    3  A    between atoms: C_3  and  C_4
REMARK    4  A    between atoms: C_4  and  S_5
REMARK    5  A    between atoms: S_5  and  C_6
REMARK    6  A    between atoms: C_9  and  C_13
REMARK    7  A    between atoms: N_15  and  C_16
REMARK    8  A    between atoms: C_16  and  C_17
REMARK    9  A    between atoms: C_17  and  C_19
REMARK   10  A    between atoms: C_17  and  N_26
REMARK                            x       y       z     vdW  Elec       q    Type
REMARK                         _______ _______ _______ _____ _____    ______ ____
ROOT
ATOM      1  C   UNL     1      -2.466  -8.571  -0.236  0.00  0.00    +0.248 C 
ATOM      2  O   UNL     1      -3.428  -9.274  -0.477  0.00  0.00    -0.270 OA
ATOM      3  N   UNL     1      -1.244  -9.124  -0.100  0.00  0.00    -0.312 N 
ATOM      4  H   UNL     1      -0.476  -8.563   0.092  0.00  0.00    +0.149 HD
ENDROOT
BRANCH   1   8
ATOM      5  C   UNL     1      -2.944  -4.460   0.166  0.00  0.00    +0.190 A 
ATOM      6  N   UNL     1      -1.732  -4.986   0.304  0.00  0.00    -0.229 NA
ATOM      7  C   UNL     1      -1.539  -6.285   0.184  0.00  0.00    +0.129 A 
ATOM      8  C   UNL     1      -2.635  -7.113  -0.093  0.00  0.00    +0.092 A 
ATOM      9  C   UNL     1      -3.899  -6.518  -0.232  0.00  0.00    +0.146 A 
ATOM     10  N   UNL     1      -4.008  -5.209  -0.092  0.00  0.00    -0.209 NA
ATOM     11 CL   UNL     1      -5.297  -7.488  -0.577  0.00  0.00    -0.061 Cl
BRANCH   5  12
ATOM     12  S   UNL     1      -3.145  -2.718   0.336  0.00  0.00    -0.086 S 
BRANCH  12  13
ATOM     13  C   UNL     1      -1.468  -2.114   0.675  0.00  0.00    +0.077 C 
BRANCH  13  14
ATOM     14  C   UNL     1      -1.499  -0.594   0.847  0.00  0.00    +0.011 C 
BRANCH  14  16
ATOM     15  C   UNL     1      -0.115   1.435   1.304  0.00  0.00    +0.004 C 
ATOM     16  C   UNL     1      -0.085  -0.085   1.132  0.00  0.00    -0.003 C 
ENDBRANCH  14  16
ENDBRANCH  13  14
ENDBRANCH  12  13
ENDBRANCH   5  12
ENDBRANCH   1   8
BRANCH   3  17
ATOM     17  C   UNL     1      -1.075 -10.572  -0.242  0.00  0.00    +0.094 C 
BRANCH  17  18
ATOM     18  C   UNL     1       0.413 -10.921  -0.176  0.00  0.00    -0.020 C 
BRANCH  18  19
ATOM     19  C   UNL     1       1.121 -10.329  -1.367  0.00  0.00    -0.059 A 
ATOM     20  C   UNL     1       1.056 -10.963  -2.594  0.00  0.00    +0.003 A 
ATOM     21  C   UNL     1       1.705 -10.421  -3.688  0.00  0.00    +0.020 A 
ATOM     22  C   UNL     1       2.419  -9.244  -3.554  0.00  0.00    +0.041 A 
ATOM     23  C   UNL     1       2.484  -8.610  -2.326  0.00  0.00    +0.020 A 
ATOM     24  C   UNL     1       1.830  -9.150  -1.234  0.00  0.00    +0.003 A 
ATOM     25 CL   UNL     1       3.235  -8.563  -4.926  0.00  0.00    -0.084 Cl
ENDBRANCH  18  19
BRANCH  18  26
ATOM     26  N   UNL     1       0.574 -12.381  -0.186  0.00  0.00    +0.385 N 
ATOM     27  C   UNL     1       2.014 -12.738  -0.107  0.00  0.00    -0.078 C 
ATOM     28  C   UNL     1       1.990 -14.191   0.431  0.00  0.00    -0.020 C 
ATOM     29  C   UNL     1       0.821 -14.165   1.442  0.00  0.00    -0.020 C 
ATOM     30  C   UNL     1      -0.054 -12.972   1.016  0.00  0.00    -0.078 C 
ATOM     31  H   UNL     1       0.163 -12.771  -1.020  0.00  0.00    -0.081 HD
ENDBRANCH  18  26
ENDBRANCH  17  18
ENDBRANCH   3  17
TORSDOF 9
