REMARK  Name = ZINC05465299
REMARK  7 active torsions:
REMARK  status: ('A' for Active; 'I' for Inactive)
REMARK    1  A    between atoms: C_1  and  C_2
REMARK    2  A    between atoms: C_2  and  C_3
REMARK    3  A    between atoms: C_12  and  O_14
REMARK    4  A    between atoms: O_14  and  C_15
REMARK    5  A    between atoms: C_15  and  C_16
REMARK    6  A    between atoms: N_18  and  C_19
REMARK    7  A    between atoms: C_24  and  C_25
REMARK                            x       y       z     vdW  Elec       q    Type
REMARK                         _______ _______ _______ _____ _____    ______ ____
ROOT
ATOM      1  O   UNL     1      -0.016   1.353  -0.007  0.00  0.00    -0.483 OA
ENDROOT
BRANCH   1  11
ATOM      2  C   UNL     1       0.069  -4.234  -0.081  0.00  0.00    -0.030 A 
ATOM      3  C   UNL     1      -1.125  -4.882  -0.074  0.00  0.00    +0.096 A 
ATOM      4  C   UNL     1      -2.325  -4.141  -0.049  0.00  0.00    +0.337 A 
ATOM      5  O   UNL     1      -3.388  -4.735  -0.043  0.00  0.00    -0.245 OA
ATOM      6  O   UNL     1      -2.325  -2.799  -0.032  0.00  0.00    -0.422 OA
ATOM      7  C   UNL     1      -1.173  -2.094  -0.037  0.00  0.00    +0.143 A 
ATOM      8  C   UNL     1       0.061  -2.769  -0.062  0.00  0.00    +0.021 A 
ATOM      9  C   UNL     1       1.257  -2.043  -0.067  0.00  0.00    +0.015 A 
ATOM     10  C   UNL     1       1.222  -0.678  -0.054  0.00  0.00    +0.046 A 
ATOM     11  C   UNL     1       0.003  -0.004  -0.025  0.00  0.00    +0.125 A 
ATOM     12  C   UNL     1      -1.191  -0.708  -0.019  0.00  0.00    +0.092 A 
BRANCH   2  14
ATOM     13  C   UNL     1       1.888  -5.171   1.320  0.00  0.00    +0.009 C 
ATOM     14  C   UNL     1       1.366  -5.001  -0.108  0.00  0.00    +0.033 C 
ENDBRANCH   2  14
ENDBRANCH   1  11
BRANCH   1  15
ATOM     15  C   UNL     1       1.248   2.019  -0.014  0.00  0.00    +0.324 C 
BRANCH  15  16
ATOM     16  C   UNL     1       1.030   3.510   0.008  0.00  0.00    +0.255 C 
ATOM     17  O   UNL     1      -0.097   3.958   0.028  0.00  0.00    -0.272 OA
ATOM     18  N   UNL     1       2.088   4.346   0.005  0.00  0.00    -0.282 N 
ATOM     19  H   UNL     1       2.988   3.990   0.070  0.00  0.00    +0.155 HD
BRANCH  18  20
ATOM     20  C   UNL     1       1.887   5.728  -0.091  0.00  0.00    +0.036 A 
ATOM     21  C   UNL     1       0.733   6.224  -0.683  0.00  0.00    +0.024 A 
ATOM     22  C   UNL     1       0.538   7.588  -0.776  0.00  0.00    +0.017 A 
ATOM     23  C   UNL     1       1.491   8.460  -0.280  0.00  0.00    +0.018 A 
ATOM     24  C   UNL     1       2.642   7.968   0.310  0.00  0.00    +0.020 A 
ATOM     25  C   UNL     1       2.840   6.605   0.411  0.00  0.00    -0.028 A 
ATOM     26  C   UNL     1       4.090   6.071   1.060  0.00  0.00    +0.046 C 
ATOM     27 BR   UNL     1       1.220  10.327  -0.410  0.00  0.00    -0.050 Br
ENDBRANCH  18  20
ENDBRANCH  15  16
ENDBRANCH   1  15
TORSDOF 5
