REMARK  Name = ZINC39691093
REMARK  8 active torsions:
REMARK  status: ('A' for Active; 'I' for Inactive)
REMARK    1  A    between atoms: C_1  and  C_2
REMARK    2  A    between atoms: C_7  and  C_8
REMARK    3  A    between atoms: C_8  and  C_9
REMARK    4  A    between atoms: C_9  and  N_10
REMARK    5  A    between atoms: C_11  and  C_13
REMARK    6  A    between atoms: C_24  and  C_26
REMARK    7  A    between atoms: C_31  and  O_32
REMARK    8  A    between atoms: O_32  and  C_33
REMARK                            x       y       z     vdW  Elec       q    Type
REMARK                         _______ _______ _______ _____ _____    ______ ____
ROOT
ATOM      1  C   UNL     1      -2.564   2.266   6.029  0.00  0.00    +0.100 C 
ATOM      2  C   UNL     1      -1.715   3.552   5.919  0.00  0.00    +0.121 C 
ATOM      3  N   UNL     1      -2.690   4.619   5.590  0.00  0.00    -0.296 N 
ATOM      4  C   UNL     1      -3.880   4.295   6.413  0.00  0.00    +0.115 C 
ATOM      5  C   UNL     1      -3.984   2.758   6.357  0.00  0.00    -0.004 C 
ATOM      6  C   UNL     1      -4.434   2.209   7.708  0.00  0.00    -0.010 C 
ATOM      7  C   UNL     1      -5.870   2.663   7.985  0.00  0.00    -0.082 C 
ATOM      8  N   UNL     1      -6.754   2.178   6.918  0.00  0.00    +0.379 N 
ATOM      9  C   UNL     1      -6.371   2.784   5.637  0.00  0.00    -0.082 C 
ATOM     10  C   UNL     1      -4.956   2.335   5.260  0.00  0.00    -0.010 C 
ATOM     11  C   UNL     1      -2.531   5.650   4.737  0.00  0.00    +0.250 C 
ATOM     12  O   UNL     1      -1.526   5.727   4.058  0.00  0.00    -0.270 OA
ATOM     13  H   UNL     1      -6.677   1.175   6.850  0.00  0.00    -0.086 HD
ATOM     14  H   UNL     1      -7.707   2.426   7.135  0.00  0.00    -0.086 HD
ENDROOT
BRANCH  11  15
ATOM     15  C   UNL     1      -3.577   6.684   4.627  0.00  0.00    +0.078 A 
ATOM     16  C   UNL     1      -4.305   7.070   5.756  0.00  0.00    +0.017 A 
ATOM     17  C   UNL     1      -5.280   8.037   5.646  0.00  0.00    +0.001 A 
ATOM     18  C   UNL     1      -5.543   8.630   4.422  0.00  0.00    +0.004 A 
ATOM     19  C   UNL     1      -4.831   8.258   3.299  0.00  0.00    +0.046 A 
ATOM     20  C   UNL     1      -3.842   7.290   3.392  0.00  0.00    +0.132 A 
BRANCH  20  21
ATOM     21  O   UNL     1      -3.138   6.928   2.290  0.00  0.00    -0.494 OA
ATOM     22  C   UNL     1      -3.463   7.589   1.066  0.00  0.00    +0.277 C 
ENDBRANCH  20  21
ENDBRANCH  11  15
BRANCH   1  24
ATOM     23  N   UNL     1      -2.668   0.176   4.711  0.00  0.00    -0.315 N 
ATOM     24  C   UNL     1      -2.557   1.519   4.720  0.00  0.00    +0.218 C 
ATOM     25  O   UNL     1      -2.451   2.126   3.676  0.00  0.00    -0.275 OA
ATOM     26  H   UNL     1      -2.753  -0.310   5.546  0.00  0.00    +0.149 HD
BRANCH  23  27
ATOM     27  C   UNL     1      -2.661  -0.550   3.438  0.00  0.00    +0.109 C 
BRANCH  27  28
ATOM     28  C   UNL     1      -2.800  -2.050   3.707  0.00  0.00    +0.054 C 
BRANCH  28  35
ATOM     29  C   UNL     1      -0.292  -2.784   2.476  0.00  0.00    +0.044 C 
ATOM     30  C   UNL     1      -1.593  -3.149   1.810  0.00  0.00    -0.047 A 
ATOM     31  C   UNL     1      -1.587  -3.840   0.612  0.00  0.00    +0.003 A 
ATOM     32  C   UNL     1      -2.780  -4.174   0.001  0.00  0.00    +0.000 A 
ATOM     33  C   UNL     1      -3.981  -3.818   0.587  0.00  0.00    +0.000 A 
ATOM     34  C   UNL     1      -3.987  -3.128   1.785  0.00  0.00    +0.004 A 
ATOM     35  C   UNL     1      -2.793  -2.798   2.398  0.00  0.00    -0.043 A 
ENDBRANCH  28  35
ENDBRANCH  27  28
ENDBRANCH  23  27
ENDBRANCH   1  24
TORSDOF 6
