REMARK  Name = ZINC40034818
REMARK  5 active torsions:
REMARK  status: ('A' for Active; 'I' for Inactive)
REMARK    1  A    between atoms: C_1  and  C_2
REMARK    2  A    between atoms: C_2  and  C_33
REMARK    3  A    between atoms: N_14  and  C_27
REMARK    4  A    between atoms: N_17  and  N_18
REMARK    5  A    between atoms: C_19  and  C_20
REMARK                            x       y       z     vdW  Elec       q    Type
REMARK                         _______ _______ _______ _____ _____    ______ ____
ROOT
ATOM      1  C   UNL     1      -0.411   0.575  -0.491  0.00  0.00    +0.016 C 
ATOM      2  C   UNL     1      -0.369  -0.891  -0.054  0.00  0.00    +0.001 C 
ATOM      3  C   UNL     1      -1.790  -1.373   0.227  0.00  0.00    +0.047 C 
ATOM      4  C   UNL     1      -2.337  -0.713   1.464  0.00  0.00    -0.037 A 
ATOM      5  C   UNL     1      -3.672  -0.378   1.546  0.00  0.00    +0.004 A 
ATOM      6  C   UNL     1      -4.168   0.225   2.688  0.00  0.00    +0.000 A 
ATOM      7  C   UNL     1      -3.331   0.496   3.756  0.00  0.00    +0.001 A 
ATOM      8  C   UNL     1      -1.992   0.168   3.687  0.00  0.00    +0.010 A 
ATOM      9  C   UNL     1      -1.489  -0.438   2.539  0.00  0.00    +0.004 A 
ATOM     10  C   UNL     1      -0.056  -0.794   2.431  0.00  0.00    +0.084 A 
ATOM     11  C   UNL     1       0.486  -1.018   1.174  0.00  0.00    +0.049 A 
ATOM     12  C   UNL     1       1.840  -1.362   1.075  0.00  0.00    +0.264 A 
ATOM     13  O   UNL     1       2.353  -1.569  -0.014  0.00  0.00    -0.267 OA
ATOM     14  N   UNL     1       2.567  -1.461   2.208  0.00  0.00    -0.248 N 
ATOM     15  C   UNL     1       1.986  -1.224   3.420  0.00  0.00    +0.223 A 
ATOM     16  N   UNL     1       0.713  -0.901   3.520  0.00  0.00    -0.214 NA
ATOM     17  N   UNL     1       2.744  -1.325   4.558  0.00  0.00    -0.206 N 
ATOM     18  C   UNL     1       0.235  -1.734  -1.179  0.00  0.00    +0.016 C 
ATOM     19  H   UNL     1       3.683  -1.558   4.496  0.00  0.00    +0.177 HD
ENDROOT
BRANCH  14  20
ATOM     20  C   UNL     1       3.923  -1.808   2.141  0.00  0.00    +0.053 A 
ATOM     21  C   UNL     1       4.304  -3.141   2.212  0.00  0.00    +0.026 A 
ATOM     22  C   UNL     1       5.641  -3.479   2.145  0.00  0.00    +0.002 A 
ATOM     23  C   UNL     1       6.600  -2.492   2.007  0.00  0.00    +0.000 A 
ATOM     24  C   UNL     1       6.223  -1.164   1.936  0.00  0.00    +0.002 A 
ATOM     25  C   UNL     1       4.887  -0.819   1.996  0.00  0.00    +0.026 A 
ENDBRANCH  14  20
BRANCH  17  26
ATOM     26  N   UNL     1       2.161  -1.092   5.810  0.00  0.00    -0.188 NA
ATOM     27  C   UNL     1       2.878  -1.188   6.888  0.00  0.00    +0.138 C 
BRANCH  27  28
ATOM     28  C   UNL     1       2.264  -0.942   8.206  0.00  0.00    -0.003 A 
ATOM     29  C   UNL     1       0.910  -0.612   8.299  0.00  0.00    +0.009 A 
ATOM     30  C   UNL     1       0.341  -0.383   9.534  0.00  0.00    +0.003 A 
ATOM     31  C   UNL     1       1.108  -0.479  10.682  0.00  0.00    +0.038 A 
ATOM     32  C   UNL     1       2.452  -0.806  10.599  0.00  0.00    +0.124 A 
ATOM     33  C   UNL     1       3.033  -1.044   9.367  0.00  0.00    +0.047 A 
ATOM     34  F   UNL     1       3.195  -0.898  11.723  0.00  0.00    -0.205 F 
ENDBRANCH  27  28
ENDBRANCH  17  26
TORSDOF 3
