REMARK  Name = ZINC11998633
REMARK  6 active torsions:
REMARK  status: ('A' for Active; 'I' for Inactive)
REMARK    1  A    between atoms: C_4  and  C_8
REMARK    2  A    between atoms: C_8  and  C_10
REMARK    3  A    between atoms: C_8  and  N_55
REMARK    4  A    between atoms: C_10  and  N_11
REMARK    5  A    between atoms: C_12  and  C_14
REMARK    6  A    between atoms: C_17  and  N_20
REMARK                            x       y       z     vdW  Elec       q    Type
REMARK                         _______ _______ _______ _____ _____    ______ ____
ROOT
ATOM      1  N   UNL     1       5.160   3.634   1.299  0.00  0.00    -0.313 N 
ATOM      2  C   UNL     1       5.623   4.244   2.408  0.00  0.00    +0.244 C 
ATOM      3  O   UNL     1       4.998   4.169   3.449  0.00  0.00    -0.270 OA
ATOM      4  H   UNL     1       5.657   3.693   0.469  0.00  0.00    +0.149 HD
ENDROOT
BRANCH   2   5
ATOM      5  C   UNL     1       6.888   5.003   2.359  0.00  0.00    +0.037 A 
ATOM      6  C   UNL     1       7.609   5.085   1.165  0.00  0.00    +0.015 A 
ATOM      7  C   UNL     1       8.785   5.799   1.121  0.00  0.00    +0.026 A 
ATOM      8  C   UNL     1       9.262   6.428   2.267  0.00  0.00    +0.059 A 
ATOM      9  C   UNL     1       8.549   6.344   3.459  0.00  0.00    +0.026 A 
ATOM     10  C   UNL     1       7.369   5.636   3.508  0.00  0.00    +0.015 A 
BRANCH   8  11
ATOM     11  N   UNL     1      10.457   7.145   2.221  0.00  0.00    -0.144 N 
ATOM     12  C   UNL     1      10.803   8.156   3.032  0.00  0.00    +0.240 C 
ATOM     13  O   UNL     1      10.067   8.512   3.928  0.00  0.00    -0.274 OA
ATOM     14  C   UNL     1      12.121   8.834   2.809  0.00  0.00    +0.122 C 
ATOM     15  C   UNL     1      13.022   7.901   1.956  0.00  0.00    +0.198 C 
ATOM     16  S   UNL     1      11.711   6.901   1.139  0.00  0.00    +0.052 S 
ATOM     17  O   UNL     1      12.014   5.515   1.207  0.00  0.00    -0.155 OA
ATOM     18  O   UNL     1      11.294   7.508  -0.076  0.00  0.00    -0.155 OA
ENDBRANCH   8  11
ENDBRANCH   2   5
BRANCH   1  19
ATOM     19  C   UNL     1       3.904   2.880   1.348  0.00  0.00    +0.094 C 
BRANCH  19  20
ATOM     20  C   UNL     1       3.674   2.185   0.005  0.00  0.00    -0.016 C 
BRANCH  20  24
ATOM     21  C   UNL     1       6.715  -0.754  -0.615  0.00  0.00    +0.004 A 
ATOM     22  C   UNL     1       6.757   0.439  -1.311  0.00  0.00    +0.038 A 
ATOM     23  C   UNL     1       5.772   1.392  -1.111  0.00  0.00    +0.126 A 
ATOM     24  C   UNL     1       4.746   1.148  -0.214  0.00  0.00    -0.006 A 
ATOM     25  C   UNL     1       4.707  -0.046   0.482  0.00  0.00    +0.045 A 
ATOM     26  C   UNL     1       5.691  -0.997   0.281  0.00  0.00    +0.020 A 
ATOM     27 CL   UNL     1       3.421  -0.352   1.608  0.00  0.00    -0.083 Cl
ATOM     28  F   UNL     1       5.812   2.558  -1.792  0.00  0.00    -0.205 F 
ENDBRANCH  20  24
BRANCH  20  33
ATOM     29  C   UNL     1       1.276   2.522   0.254  0.00  0.00    -0.078 C 
ATOM     30  C   UNL     1       0.013   1.806  -0.287  0.00  0.00    -0.020 C 
ATOM     31  C   UNL     1       0.544   1.063  -1.535  0.00  0.00    -0.020 C 
ATOM     32  C   UNL     1       2.061   0.928  -1.307  0.00  0.00    -0.078 C 
ATOM     33  N   UNL     1       2.332   1.529  -0.000  0.00  0.00    +0.385 N 
ATOM     34  H   UNL     1       2.308   0.804   0.727  0.00  0.00    -0.081 HD
ENDBRANCH  20  33
ENDBRANCH  19  20
ENDBRANCH   1  19
TORSDOF 6
