REMARK  Name = ZINC39988935
REMARK  7 active torsions:
REMARK  status: ('A' for Active; 'I' for Inactive)
REMARK    1  A    between atoms: C_4  and  C_7
REMARK    2  A    between atoms: C_17  and  C_19
REMARK    3  A    between atoms: C_22  and  C_25
REMARK    4  A    between atoms: C_31  and  C_33
REMARK    5  A    between atoms: C_33  and  C_34
REMARK    6  A    between atoms: C_34  and  C_35
REMARK    7  A    between atoms: C_35  and  C_36
REMARK                            x       y       z     vdW  Elec       q    Type
REMARK                         _______ _______ _______ _____ _____    ______ ____
ROOT
ATOM      1  C   UNL     1       3.760  -1.059   0.391  0.00  0.00    -0.014 C 
ATOM      2  C   UNL     1       5.046  -0.515   0.455  0.00  0.00    +0.002 A 
ATOM      3  C   UNL     1       5.238   0.882   0.465  0.00  0.00    +0.030 A 
ATOM      4  C   UNL     1       6.501   1.386   0.528  0.00  0.00    +0.042 A 
ATOM      5  C   UNL     1       7.613   0.547   0.583  0.00  0.00    +0.022 A 
ATOM      6  C   UNL     1       7.491  -0.809   0.577  0.00  0.00    +0.025 A 
ATOM      7  C   UNL     1       6.216  -1.399   0.514  0.00  0.00    +0.041 A 
ATOM      8  N   UNL     1       6.098  -2.731   0.508  0.00  0.00    -0.284 N 
ATOM      9  C   UNL     1       4.941  -3.360   0.450  0.00  0.00    +0.230 C 
ATOM     10  O   UNL     1       4.909  -4.577   0.448  0.00  0.00    -0.274 OA
ATOM     11  C   UNL     1       3.652  -2.572   0.393  0.00  0.00    +0.152 C 
ATOM     12 CL   UNL     1       6.732   3.106   0.539  0.00  0.00    -0.084 Cl
ATOM     13  H   UNL     1       6.908  -3.264   0.549  0.00  0.00    +0.155 HD
ENDROOT
BRANCH  11  14
ATOM     14  C   UNL     1       2.919  -2.984  -0.858  0.00  0.00    +0.055 C 
ATOM     15  N   UNL     1       2.563  -2.197  -1.788  0.00  0.00    -0.185 NA
ATOM     16  N   UNL     1       1.897  -2.816  -2.845  0.00  0.00    -0.189 N 
ATOM     17  C   UNL     1       1.799  -4.258  -2.561  0.00  0.00    +0.120 C 
ATOM     18  C   UNL     1       2.502  -4.398  -1.196  0.00  0.00    +0.079 C 
ATOM     19  C   UNL     1       1.423  -2.198  -3.945  0.00  0.00    +0.235 C 
ATOM     20  O   UNL     1       0.774  -2.821  -4.758  0.00  0.00    -0.274 OA
BRANCH  17  21
ATOM     21  C   UNL     1       2.531  -5.070  -3.631  0.00  0.00    +0.077 C 
ATOM     22  C   UNL     1       2.428  -6.594  -3.357  0.00  0.00    +0.044 C 
ATOM     23  C   UNL     1       3.716  -7.279  -3.685  0.00  0.00    -0.019 C 
ATOM     24  C   UNL     1       4.826  -6.574  -3.790  0.00  0.00    +0.036 C 
ATOM     25  S   UNL     1       4.358  -4.878  -3.493  0.00  0.00    -0.128 S 
ENDBRANCH  17  21
BRANCH  19  26
ATOM     26  C   UNL     1       1.699  -0.733  -4.163  0.00  0.00    +0.098 C 
BRANCH  26  27
ATOM     27  C   UNL     1       1.053  -0.283  -5.475  0.00  0.00    +0.020 C 
BRANCH  27  28
ATOM     28  C   UNL     1       1.333   1.205  -5.697  0.00  0.00    +0.125 C 
BRANCH  28  29
ATOM     29  C   UNL     1       0.697   1.648  -6.990  0.00  0.00    +0.356 C 
ATOM     30  O   UNL     1       0.078   0.849  -7.670  0.00  0.00    -0.246 OA
ATOM     31  O   UNL     1       0.803   2.807  -7.355  0.00  0.00    -0.246 OA
ENDBRANCH  28  29
ENDBRANCH  27  28
ENDBRANCH  26  27
ENDBRANCH  19  26
ENDBRANCH  11  14
BRANCH   1  35
ATOM     32  C   UNL     1       0.359   1.381   0.222  0.00  0.00    +0.000 A 
ATOM     33  C   UNL     1       0.480   0.438   1.230  0.00  0.00    +0.001 A 
ATOM     34  C   UNL     1       1.594  -0.369   1.295  0.00  0.00    +0.008 A 
ATOM     35  C   UNL     1       2.609  -0.234   0.334  0.00  0.00    -0.020 A 
ATOM     36  C   UNL     1       2.476   0.725  -0.684  0.00  0.00    +0.008 A 
ATOM     37  C   UNL     1       1.355   1.522  -0.731  0.00  0.00    +0.001 A 
ENDBRANCH   1  35
TORSDOF 7
