REMARK  Name = ZINC65246810
REMARK  5 active torsions:
REMARK  status: ('A' for Active; 'I' for Inactive)
REMARK    1  A    between atoms: C_1  and  C_2
REMARK    2  A    between atoms: C_5  and  N_8
REMARK    3  A    between atoms: N_8  and  S_9
REMARK    4  A    between atoms: S_9  and  C_12
REMARK    5  A    between atoms: C_15  and  C_24
REMARK                            x       y       z     vdW  Elec       q    Type
REMARK                         _______ _______ _______ _____ _____    ______ ____
ROOT
ATOM      1  S   UNL     1       0.076  -5.003   1.409  0.00  0.00    +0.089 S 
ATOM      2  O   UNL     1       1.321  -4.716   2.031  0.00  0.00    -0.149 OA
ATOM      3  O   UNL     1      -1.169  -4.749   2.043  0.00  0.00    -0.149 OA
ENDROOT
BRANCH   1   4
ATOM      4  C   UNL     1       0.097  -6.719   1.009  0.00  0.00    +0.104 C 
ATOM      5  C   UNL     1      -0.928  -7.538   1.105  0.00  0.00    +0.097 C 
ATOM      6  N   UNL     1      -0.630  -8.828   0.757  0.00  0.00    -0.300 N 
ATOM      7  C   UNL     1      -1.399 -10.065   0.958  0.00  0.00    +0.209 C 
ATOM      8  N   UNL     1      -0.475 -11.044   1.548  0.00  0.00    -0.173 NA
ATOM      9  N   UNL     1       0.745 -10.948   1.501  0.00  0.00    -0.082 NA
ATOM     10  C   UNL     1       1.456  -9.962   0.927  0.00  0.00    +0.274 C 
ATOM     11  O   UNL     1       2.660  -9.946   1.016  0.00  0.00    -0.270 OA
ATOM     12  C   UNL     1       0.731  -8.876   0.169  0.00  0.00    +0.170 C 
ATOM     13  C   UNL     1       1.297  -7.487   0.492  0.00  0.00    +0.090 C 
ATOM     14  C   UNL     1      -1.923 -10.579  -0.384  0.00  0.00    +0.056 C 
ENDBRANCH   1   4
BRANCH   1  15
ATOM     15  N   UNL     1       0.058  -4.167  -0.021  0.00  0.00    -0.098 NA
BRANCH  15  20
ATOM     16  C   UNL     1      -0.018   1.503   0.010  0.00  0.00    +0.044 C 
ATOM     17  C   UNL     1       0.002  -0.004   0.002  0.00  0.00    -0.050 A 
ATOM     18  C   UNL     1       0.006  -0.687  -1.200  0.00  0.00    +0.005 A 
ATOM     19  C   UNL     1       0.024  -2.068  -1.212  0.00  0.00    +0.027 A 
ATOM     20  C   UNL     1       0.040  -2.771  -0.013  0.00  0.00    +0.074 A 
ATOM     21  C   UNL     1       0.036  -2.081   1.193  0.00  0.00    +0.027 A 
ATOM     22  C   UNL     1       0.023  -0.700   1.197  0.00  0.00    +0.005 A 
ENDBRANCH  15  20
ENDBRANCH   1  15
TORSDOF 3
