REMARK  Name = ZINC51698867
REMARK  7 active torsions:
REMARK  status: ('A' for Active; 'I' for Inactive)
REMARK    1  A    between atoms: C_1  and  C_2
REMARK    2  A    between atoms: C_2  and  N_3
REMARK    3  A    between atoms: C_4  and  C_17
REMARK    4  A    between atoms: C_5  and  N_16
REMARK    5  A    between atoms: N_8  and  C_9
REMARK    6  A    between atoms: C_17  and  O_18
REMARK    7  A    between atoms: O_18  and  C_19
REMARK                            x       y       z     vdW  Elec       q    Type
REMARK                         _______ _______ _______ _____ _____    ______ ____
ROOT
ATOM      1  N   UNL     1       0.710  -0.370  -1.240  0.00  0.00    -0.277 N 
ATOM      2  C   UNL     1       2.035  -0.723  -1.321  0.00  0.00    +0.088 A 
ATOM      3  C   UNL     1       2.259  -1.249  -2.544  0.00  0.00    +0.115 A 
ATOM      4  C   UNL     1       1.036  -1.228  -3.262  0.00  0.00    +0.293 A 
ATOM      5  O   UNL     1       0.865  -1.625  -4.401  0.00  0.00    -0.264 OA
ATOM      6  N   UNL     1       0.096  -0.695  -2.456  0.00  0.00    -0.214 N 
ENDROOT
BRANCH   6   7
ATOM      7  C   UNL     1      -1.251  -0.499  -2.778  0.00  0.00    +0.081 A 
ATOM      8  C   UNL     1      -1.644   0.645  -3.461  0.00  0.00    +0.029 A 
ATOM      9  C   UNL     1      -2.975   0.836  -3.777  0.00  0.00    +0.002 A 
ATOM     10  C   UNL     1      -3.916  -0.110  -3.416  0.00  0.00    +0.001 A 
ATOM     11  C   UNL     1      -3.529  -1.250  -2.736  0.00  0.00    +0.017 A 
ATOM     12  C   UNL     1      -2.198  -1.450  -2.420  0.00  0.00    +0.043 A 
ATOM     13 BR   UNL     1      -1.669  -3.013  -1.497  0.00  0.00    -0.048 Br
ENDBRANCH   6   7
BRANCH   3  14
ATOM     14  N   UNL     1       3.494  -1.734  -3.024  0.00  0.00    -0.352 N 
ATOM     15  H   UNL     1       4.261  -1.780  -2.432  0.00  0.00    +0.143 HD
ATOM     16  H   UNL     1       3.577  -2.021  -3.947  0.00  0.00    +0.143 HD
ENDBRANCH   3  14
BRANCH   1  18
ATOM     17  C   UNL     1       0.136   1.761  -0.184  0.00  0.00    +0.029 C 
ATOM     18  C   UNL     1       0.052   0.237  -0.079  0.00  0.00    +0.139 C 
ENDBRANCH   1  18
BRANCH   2  19
ATOM     19  C   UNL     1       3.063  -0.553  -0.232  0.00  0.00    +0.216 C 
BRANCH  19  20
ATOM     20  O   UNL     1       2.729  -1.395   0.874  0.00  0.00    -0.377 OA
ATOM     21  C   UNL     1       3.645  -1.309   1.967  0.00  0.00    +0.194 C 
ENDBRANCH  19  20
ENDBRANCH   2  19
TORSDOF 5
