REMARK  Name = ZINC00931293
REMARK  8 active torsions:
REMARK  status: ('A' for Active; 'I' for Inactive)
REMARK    1  A    between atoms: C_1  and  C_2
REMARK    2  A    between atoms: C_9  and  C_11
REMARK    3  A    between atoms: C_11  and  S_12
REMARK    4  A    between atoms: S_12  and  C_13
REMARK    5  A    between atoms: C_16  and  C_19
REMARK    6  A    between atoms: N_17  and  C_18
REMARK    7  A    between atoms: C_22  and  S_25
REMARK    8  A    between atoms: S_25  and  N_28
REMARK                            x       y       z     vdW  Elec       q    Type
REMARK                         _______ _______ _______ _____ _____    ______ ____
ROOT
ATOM      1  C   UNL     1      -6.825   3.793  -4.209  0.00  0.00    +0.192 A 
ATOM      2  N   UNL     1      -5.987   3.493  -5.177  0.00  0.00    -0.122 NA
ATOM      3  N   UNL     1      -6.457   3.888  -6.306  0.00  0.00    -0.128 NA
ATOM      4  C   UNL     1      -7.623   4.464  -6.129  0.00  0.00    +0.165 A 
ATOM      5  N   UNL     1      -7.897   4.415  -4.781  0.00  0.00    -0.305 N 
ATOM      6  C   UNL     1      -9.089   4.928  -4.101  0.00  0.00    +0.153 C 
ENDROOT
BRANCH   4   7
ATOM      7  C   UNL     1      -8.483   5.048  -7.180  0.00  0.00    +0.019 A 
ATOM      8  C   UNL     1      -8.309   4.678  -8.514  0.00  0.00    +0.013 A 
ATOM      9  C   UNL     1      -9.118   5.223  -9.489  0.00  0.00    +0.029 A 
ATOM     10  C   UNL     1     -10.093   6.143  -9.149  0.00  0.00    +0.106 A 
ATOM     11  C   UNL     1     -10.268   6.519  -7.828  0.00  0.00    +0.029 A 
ATOM     12  C   UNL     1      -9.469   5.977  -6.843  0.00  0.00    +0.013 A 
BRANCH  10  13
ATOM     13  S   UNL     1     -11.118   6.840 -10.401  0.00  0.00    +0.061 S 
ATOM     14  O   UNL     1     -11.120   5.919 -11.483  0.00  0.00    -0.153 OA
ATOM     15  O   UNL     1     -12.313   7.264  -9.759  0.00  0.00    -0.153 OA
BRANCH  13  16
ATOM     16  N   UNL     1     -10.363   8.209 -10.947  0.00  0.00    -0.177 NA
ATOM     17  C   UNL     1     -10.549   9.564 -10.406  0.00  0.00    +0.109 C 
ATOM     18  C   UNL     1      -9.664  10.515 -11.239  0.00  0.00    +0.018 C 
ATOM     19  C   UNL     1      -9.472   9.734 -12.566  0.00  0.00    +0.018 C 
ATOM     20  C   UNL     1      -9.397   8.273 -12.059  0.00  0.00    +0.109 C 
ENDBRANCH  13  16
ENDBRANCH  10  13
ENDBRANCH   4   7
BRANCH   1  21
ATOM     21  S   UNL     1      -6.608   3.449  -2.495  0.00  0.00    -0.077 S 
BRANCH  21  22
ATOM     22  C   UNL     1      -4.996   2.627  -2.541  0.00  0.00    +0.173 C 
BRANCH  22  30
ATOM     23  C   UNL     1      -3.893   1.993   1.441  0.00  0.00    +0.028 C 
ATOM     24  C   UNL     1      -2.956   1.324   0.433  0.00  0.00    +0.073 C 
ATOM     25  C   UNL     1      -1.541   1.889   0.595  0.00  0.00    +0.022 C 
ATOM     26  C   UNL     1      -0.640   1.320  -0.504  0.00  0.00    +0.003 C 
ATOM     27  C   UNL     1      -1.175   1.742  -1.874  0.00  0.00    +0.019 C 
ATOM     28  C   UNL     1      -2.586   1.176  -2.063  0.00  0.00    +0.108 C 
ATOM     29  N   UNL     1      -3.422   1.600  -0.932  0.00  0.00    -0.298 N 
ATOM     30  C   UNL     1      -4.594   2.231  -1.143  0.00  0.00    +0.226 C 
ATOM     31  O   UNL     1      -5.325   2.481  -0.208  0.00  0.00    -0.275 OA
ENDBRANCH  22  30
ENDBRANCH  21  22
ENDBRANCH   1  21
TORSDOF 6
