REMARK  Name = ZINC63481582
REMARK  6 active torsions:
REMARK  status: ('A' for Active; 'I' for Inactive)
REMARK    1  A    between atoms: C_1  and  C_2
REMARK    2  A    between atoms: C_3  and  N_14
REMARK    3  A    between atoms: C_7  and  N_8
REMARK    4  A    between atoms: N_14  and  C_15
REMARK    5  A    between atoms: C_15  and  C_16
REMARK    6  A    between atoms: N_18  and  C_19
REMARK                            x       y       z     vdW  Elec       q    Type
REMARK                         _______ _______ _______ _____ _____    ______ ____
ROOT
ATOM      1  N   UNL     1       0.009   0.011  -2.410  0.00  0.00    -0.335 N 
ATOM      2  H   UNL     1      -0.009   0.981  -2.407  0.00  0.00    +0.147 HD
ENDROOT
BRANCH   1   5
ATOM      3  C   UNL     1       0.006   1.505   0.010  0.00  0.00    +0.047 C 
ATOM      4  C   UNL     1       0.034  -0.002   0.002  0.00  0.00    -0.008 A 
ATOM      5  C   UNL     1       0.034  -0.691  -1.203  0.00  0.00    +0.032 A 
ATOM      6  C   UNL     1       0.060  -2.080  -1.207  0.00  0.00    +0.023 A 
ATOM      7  C   UNL     1       0.085  -2.775  -0.013  0.00  0.00    +0.004 A 
ATOM      8  C   UNL     1       0.084  -2.092   1.188  0.00  0.00    +0.024 A 
ATOM      9  C   UNL     1       0.064  -0.703   1.198  0.00  0.00    +0.041 A 
BRANCH   9  10
ATOM     10  N   UNL     1       0.070  -0.011   2.415  0.00  0.00    -0.271 N 
ATOM     11  C   UNL     1      -1.138   0.370   3.156  0.00  0.00    +0.114 C 
ATOM     12  C   UNL     1      -0.658   0.698   4.587  0.00  0.00    +0.029 C 
ATOM     13  C   UNL     1       0.816   1.095   4.341  0.00  0.00    +0.098 C 
ATOM     14  C   UNL     1       1.182   0.383   3.058  0.00  0.00    +0.220 C 
ATOM     15  O   UNL     1       2.314   0.198   2.665  0.00  0.00    -0.275 OA
ENDBRANCH   9  10
ENDBRANCH   1   5
BRANCH   1  16
ATOM     16  C   UNL     1       0.009  -0.718  -3.681  0.00  0.00    +0.198 C 
BRANCH  16  17
ATOM     17  C   UNL     1      -0.021   0.265  -4.824  0.00  0.00    +0.234 C 
ATOM     18  O   UNL     1      -0.041   1.457  -4.598  0.00  0.00    -0.274 OA
ATOM     19  N   UNL     1      -0.025  -0.180  -6.096  0.00  0.00    -0.284 N 
ATOM     20  H   UNL     1       0.057  -1.129  -6.277  0.00  0.00    +0.155 HD
BRANCH  19  21
ATOM     21  C   UNL     1      -0.148   0.725  -7.151  0.00  0.00    +0.041 A 
ATOM     22  C   UNL     1       0.420   1.978  -7.063  0.00  0.00    +0.024 A 
ATOM     23  C   UNL     1       0.303   2.887  -8.110  0.00  0.00    +0.002 A 
ATOM     24  C   UNL     1      -0.373   2.567  -9.248  0.00  0.00    +0.008 A 
ATOM     25  C   UNL     1      -0.967   1.300  -9.378  0.00  0.00    -0.016 A 
ATOM     26  C   UNL     1      -0.850   0.363  -8.321  0.00  0.00    +0.003 A 
ATOM     27  C   UNL     1      -1.440  -0.903  -8.454  0.00  0.00    +0.010 A 
ATOM     28  C   UNL     1      -2.111  -1.218  -9.596  0.00  0.00    +0.001 A 
ATOM     29  C   UNL     1      -2.221  -0.300 -10.639  0.00  0.00    +0.001 A 
ATOM     30  C   UNL     1      -1.671   0.942 -10.540  0.00  0.00    +0.008 A 
ENDBRANCH  19  21
ENDBRANCH  16  17
ENDBRANCH   1  16
TORSDOF 5
