REMARK  Name = ZINC21243682
REMARK  8 active torsions:
REMARK  status: ('A' for Active; 'I' for Inactive)
REMARK    1  A    between atoms: C_1  and  C_2
REMARK    2  A    between atoms: C_2  and  C_3
REMARK    3  A    between atoms: C_2  and  O_4
REMARK    4  A    between atoms: O_4  and  C_5
REMARK    5  A    between atoms: C_10  and  C_11
REMARK    6  A    between atoms: C_16  and  C_21
REMARK    7  A    between atoms: C_26  and  O_27
REMARK    8  A    between atoms: O_27  and  C_28
REMARK                            x       y       z     vdW  Elec       q    Type
REMARK                         _______ _______ _______ _____ _____    ______ ____
ROOT
ATOM      1  C   UNL     1      -1.328   2.562   1.067  0.00  0.00    +0.139 C 
ATOM      2  C   UNL     1      -0.286   3.655   1.107  0.00  0.00    +0.037 C 
ATOM      3  C   UNL     1       0.957   3.579   0.601  0.00  0.00    +0.017 C 
ATOM      4  C   UNL     1       1.916   4.749   0.738  0.00  0.00    +0.060 C 
ATOM      5  C   UNL     1       1.139   6.064   0.696  0.00  0.00    +0.035 C 
ATOM      6  C   UNL     1       0.145   6.056   1.863  0.00  0.00    +0.088 C 
ATOM      7  C   UNL     1      -0.724   4.840   1.744  0.00  0.00    +0.163 C 
ATOM      8  O   UNL     1      -1.846   4.874   2.211  0.00  0.00    -0.292 OA
ATOM      9  N   UNL     1       1.464   2.497  -0.041  0.00  0.00    -0.316 N 
ATOM     10  C   UNL     1       1.357   1.186   0.408  0.00  0.00    +0.052 A 
ATOM     11  C   UNL     1       2.465   0.431   0.754  0.00  0.00    +0.025 A 
ATOM     12  C   UNL     1       2.297  -0.896   1.110  0.00  0.00    +0.002 A 
ATOM     13  C   UNL     1       1.035  -1.463   1.119  0.00  0.00    +0.002 A 
ATOM     14  C   UNL     1      -0.075  -0.705   0.790  0.00  0.00    +0.025 A 
ATOM     15  C   UNL     1       0.088   0.628   0.450  0.00  0.00    +0.049 A 
ATOM     16  N   UNL     1      -1.004   1.456   0.193  0.00  0.00    -0.331 N 
ATOM     17  H   UNL     1       2.008   2.625  -0.989  0.00  0.00    +0.152 HD
ATOM     18  H   UNL     1      -1.625   1.255  -0.693  0.00  0.00    +0.147 HD
ENDROOT
BRANCH   1  24
ATOM     19  C   UNL     1      -2.636   1.275   2.776  0.00  0.00    +0.126 A 
ATOM     20  C   UNL     1      -2.804   0.785   4.063  0.00  0.00    +0.046 A 
ATOM     21  C   UNL     1      -1.855   1.049   5.031  0.00  0.00    +0.004 A 
ATOM     22  C   UNL     1      -0.737   1.801   4.718  0.00  0.00    +0.001 A 
ATOM     23  C   UNL     1      -0.565   2.286   3.435  0.00  0.00    +0.009 A 
ATOM     24  C   UNL     1      -1.514   2.029   2.465  0.00  0.00    +0.019 A 
BRANCH  19  25
ATOM     25  O   UNL     1      -3.568   1.016   1.821  0.00  0.00    -0.489 OA
BRANCH  25  27
ATOM     26  C   UNL     1      -5.740   0.946   2.879  0.00  0.00    +0.051 C 
ATOM     27  C   UNL     1      -4.640   0.143   2.182  0.00  0.00    +0.167 C 
ATOM     28  C   UNL     1      -5.208  -0.514   0.922  0.00  0.00    +0.051 C 
ENDBRANCH  25  27
ENDBRANCH  19  25
ENDBRANCH   1  24
BRANCH   5  29
ATOM     29  C   UNL     1       2.090   7.224   0.842  0.00  0.00    -0.002 A 
ATOM     30  C   UNL     1       2.866   7.343   1.979  0.00  0.00    +0.007 A 
ATOM     31  C   UNL     1       3.743   8.404   2.111  0.00  0.00    +0.001 A 
ATOM     32  C   UNL     1       3.837   9.355   1.112  0.00  0.00    +0.004 A 
ATOM     33  C   UNL     1       3.059   9.244  -0.025  0.00  0.00    +0.046 A 
ATOM     34  C   UNL     1       2.183   8.177  -0.162  0.00  0.00    +0.124 A 
BRANCH  34  35
ATOM     35  O   UNL     1       1.417   8.065  -1.279  0.00  0.00    -0.495 OA
ATOM     36  C   UNL     1       1.565   9.082  -2.272  0.00  0.00    +0.277 C 
ENDBRANCH  34  35
ENDBRANCH   5  29
TORSDOF 5
