REMARK  Name = ZINC64800690
REMARK  10 active torsions:
REMARK  status: ('A' for Active; 'I' for Inactive)
REMARK    1  A    between atoms: C_1  and  C_2
REMARK    2  A    between atoms: C_2  and  N_3
REMARK    3  A    between atoms: C_6  and  C_29
REMARK    4  A    between atoms: C_8  and  N_10
REMARK    5  A    between atoms: N_13  and  S_16
REMARK    6  A    between atoms: S_16  and  C_19
REMARK    7  A    between atoms: C_21  and  C_26
REMARK    8  A    between atoms: C_24  and  C_25
REMARK    9  A    between atoms: C_26  and  C_27
REMARK   10  A    between atoms: C_26  and  C_28
REMARK                            x       y       z     vdW  Elec       q    Type
REMARK                         _______ _______ _______ _____ _____    ______ ____
ROOT
ATOM      1  N   UNL     1      -4.421  -4.077   0.012  0.00  0.00    -0.312 N 
ATOM      2  C   UNL     1      -5.545  -3.131   0.016  0.00  0.00    +0.123 C 
ATOM      3  C   UNL     1      -6.458  -3.449  -1.175  0.00  0.00    +0.128 C 
ATOM      4  N   UNL     1      -6.746  -4.890  -1.174  0.00  0.00    -0.174 NA
ATOM      5  C   UNL     1      -5.622  -5.837  -1.177  0.00  0.00    +0.128 C 
ATOM      6  C   UNL     1      -4.709  -5.519   0.008  0.00  0.00    +0.123 C 
ENDROOT
BRANCH   1  12
ATOM      7  N   UNL     1      -1.362  -0.546  -0.414  0.00  0.00    -0.314 N 
ATOM      8  C   UNL     1      -1.601  -1.892  -0.201  0.00  0.00    +0.217 A 
ATOM      9  N   UNL     1      -0.576  -2.708  -0.005  0.00  0.00    -0.220 NA
ATOM     10  C   UNL     1      -0.766  -4.003   0.203  0.00  0.00    +0.045 A 
ATOM     11  C   UNL     1      -2.053  -4.503   0.216  0.00  0.00    +0.066 A 
ATOM     12  C   UNL     1      -3.114  -3.620   0.008  0.00  0.00    +0.127 A 
ATOM     13  N   UNL     1      -2.851  -2.332  -0.191  0.00  0.00    -0.200 NA
ATOM     14  C   UNL     1       0.410  -4.919   0.423  0.00  0.00    +0.066 C 
ATOM     15  H   UNL     1      -2.104   0.063  -0.554  0.00  0.00    +0.149 HD
BRANCH   7  17
ATOM     16  C   UNL     1      -0.001   1.468  -0.683  0.00  0.00    +0.024 C 
ATOM     17  C   UNL     1       0.013  -0.040  -0.429  0.00  0.00    +0.101 C 
ENDBRANCH   7  17
ENDBRANCH   1  12
BRANCH   4  18
ATOM     18  S   UNL     1      -8.309  -5.438  -1.168  0.00  0.00    +0.061 S 
ATOM     19  O   UNL     1      -8.278  -6.747  -0.618  0.00  0.00    -0.153 OA
ATOM     20  O   UNL     1      -9.101  -4.396  -0.615  0.00  0.00    -0.153 OA
BRANCH  18  21
ATOM     21  C   UNL     1      -8.806  -5.610  -2.850  0.00  0.00    +0.109 A 
ATOM     22  C   UNL     1      -9.104  -6.860  -3.358  0.00  0.00    +0.032 A 
ATOM     23  C   UNL     1      -9.495  -6.995  -4.677  0.00  0.00    -0.043 A 
ATOM     24  C   UNL     1      -9.588  -5.880  -5.488  0.00  0.00    +0.004 A 
ATOM     25  C   UNL     1      -9.291  -4.629  -4.980  0.00  0.00    +0.005 A 
ATOM     26  C   UNL     1      -8.905  -4.494  -3.659  0.00  0.00    -0.024 A 
ATOM     27  C   UNL     1      -8.586  -3.129  -3.103  0.00  0.00    +0.046 C 
BRANCH  23  28
ATOM     28  C   UNL     1      -9.818  -8.359  -5.231  0.00  0.00    +0.013 C 
ATOM     29  C   UNL     1     -11.267  -8.379  -5.722  0.00  0.00    +0.012 C 
ATOM     30  C   UNL     1      -8.880  -8.671  -6.399  0.00  0.00    +0.012 C 
ENDBRANCH  23  28
ENDBRANCH  18  21
ENDBRANCH   4  18
TORSDOF 5
