REMARK  Name = ZINC08597765
REMARK  8 active torsions:
REMARK  status: ('A' for Active; 'I' for Inactive)
REMARK    1  A    between atoms: C_1  and  C_2
REMARK    2  A    between atoms: C_2  and  C_3
REMARK    3  A    between atoms: C_2  and  C_4
REMARK    4  A    between atoms: C_2  and  O_5
REMARK    5  A    between atoms: O_5  and  C_6
REMARK    6  A    between atoms: C_11  and  C_14
REMARK    7  A    between atoms: C_15  and  C_25
REMARK    8  A    between atoms: N_18  and  C_19
REMARK                            x       y       z     vdW  Elec       q    Type
REMARK                         _______ _______ _______ _____ _____    ______ ____
ROOT
ATOM      1  C   UNL     1       5.090  -3.252  -4.271  0.00  0.00    +0.060 A 
ATOM      2  C   UNL     1       5.680  -3.666  -5.449  0.00  0.00    +0.078 A 
ATOM      3  C   UNL     1       6.329  -4.892  -5.182  0.00  0.00    +0.148 A 
ATOM      4  N   UNL     1       6.136  -5.187  -3.925  0.00  0.00    -0.174 NA
ATOM      5  N   UNL     1       5.370  -4.176  -3.335  0.00  0.00    -0.236 N 
ENDROOT
BRANCH   2   6
ATOM      6  C   UNL     1       5.639  -2.961  -6.743  0.00  0.00    +0.250 C 
ATOM      7  O   UNL     1       4.572  -2.743  -7.284  0.00  0.00    -0.270 OA
ATOM      8  N   UNL     1       6.785  -2.557  -7.326  0.00  0.00    -0.294 N 
ATOM      9  C   UNL     1       6.768  -1.937  -8.659  0.00  0.00    +0.127 C 
ATOM     10  C   UNL     1       7.463  -0.573  -8.574  0.00  0.00    +0.125 C 
ATOM     11  N   UNL     1       8.752  -0.744  -7.889  0.00  0.00    -0.314 N 
ATOM     12  C   UNL     1       8.769  -1.363  -6.556  0.00  0.00    +0.125 C 
ATOM     13  C   UNL     1       8.073  -2.723  -6.639  0.00  0.00    +0.127 C 
ATOM     14  C   UNL     1       9.933  -0.328  -8.491  0.00  0.00    +0.099 A 
ATOM     15  C   UNL     1       9.886   0.377  -9.690  0.00  0.00    +0.042 A 
ATOM     16  C   UNL     1      11.069   0.785 -10.278  0.00  0.00    +0.005 A 
ATOM     17  C   UNL     1      12.265   0.474  -9.645  0.00  0.00    +0.018 A 
ATOM     18  C   UNL     1      12.239  -0.228  -8.456  0.00  0.00    +0.084 A 
ATOM     19  N   UNL     1      11.094  -0.600  -7.915  0.00  0.00    -0.350 N 
ATOM     20  H   UNL     1      11.104  -1.089  -7.078  0.00  0.00    +0.166 HD
ENDBRANCH   2   6
BRANCH   1  26
ATOM     21  C   UNL     1       2.516   1.268  -5.835  0.00  0.00    +0.403 C 
ATOM     22  O   UNL     1       1.423   1.137  -6.349  0.00  0.00    -0.226 OA
ATOM     23  N   UNL     1       2.965   0.344  -4.962  0.00  0.00    -0.267 N 
ATOM     24  C   UNL     1       4.282   0.491  -4.328  0.00  0.00    +0.112 C 
ATOM     25  C   UNL     1       5.089  -0.789  -4.565  0.00  0.00    +0.029 C 
ATOM     26  C   UNL     1       4.285  -1.994  -4.071  0.00  0.00    +0.042 C 
ATOM     27  C   UNL     1       2.977  -2.094  -4.859  0.00  0.00    +0.029 C 
ATOM     28  C   UNL     1       2.143  -0.825  -4.621  0.00  0.00    +0.112 C 
BRANCH  21  29
ATOM     29  O   UNL     1       3.280   2.334  -6.138  0.00  0.00    -0.445 OA
BRANCH  29  31
ATOM     30  C   UNL     1       1.433   3.846  -6.521  0.00  0.00    +0.055 C 
ATOM     31  C   UNL     1       2.741   3.273  -7.071  0.00  0.00    +0.107 C 
ATOM     32  C   UNL     1       2.470   2.570  -8.403  0.00  0.00    +0.055 C 
ATOM     33  C   UNL     1       3.744   4.408  -7.289  0.00  0.00    +0.055 C 
ENDBRANCH  29  31
ENDBRANCH  21  29
ENDBRANCH   1  26
BRANCH   5  34
ATOM     34  C   UNL     1       4.963  -4.134  -1.994  0.00  0.00    +0.066 A 
ATOM     35  C   UNL     1       3.662  -3.769  -1.674  0.00  0.00    +0.028 A 
ATOM     36  C   UNL     1       3.263  -3.729  -0.352  0.00  0.00    +0.002 A 
ATOM     37  C   UNL     1       4.158  -4.052   0.651  0.00  0.00    +0.000 A 
ATOM     38  C   UNL     1       5.454  -4.415   0.336  0.00  0.00    +0.002 A 
ATOM     39  C   UNL     1       5.857  -4.462  -0.985  0.00  0.00    +0.028 A 
ENDBRANCH   5  34
TORSDOF 5
