REMARK  Name = ZINC45545865
REMARK  10 active torsions:
REMARK  status: ('A' for Active; 'I' for Inactive)
REMARK    1  A    between atoms: C_1  and  C_2
REMARK    2  A    between atoms: C_6  and  C_34
REMARK    3  A    between atoms: C_7  and  N_8
REMARK    4  A    between atoms: C_9  and  C_11
REMARK    5  A    between atoms: C_11  and  N_12
REMARK    6  A    between atoms: C_13  and  C_15
REMARK    7  A    between atoms: C_15  and  C_17
REMARK    8  A    between atoms: C_15  and  S_18
REMARK    9  A    between atoms: S_18  and  C_19
REMARK   10  A    between atoms: N_32  and  C_33
REMARK                            x       y       z     vdW  Elec       q    Type
REMARK                         _______ _______ _______ _____ _____    ______ ____
ROOT
ATOM      1  C   UNL     1      -0.455  -1.225   8.394  0.00  0.00    +0.137 C 
ATOM      2  C   UNL     1      -1.915  -1.670   8.509  0.00  0.00    +0.029 C 
ENDROOT
BRANCH   1   4
ATOM      3  N   UNL     1      -0.231  -0.746   5.978  0.00  0.00    -0.306 N 
ATOM      4  C   UNL     1      -0.311  -0.271   7.236  0.00  0.00    +0.227 C 
ATOM      5  O   UNL     1      -0.268   0.924   7.437  0.00  0.00    -0.275 OA
ATOM      6  H   UNL     1      -0.265  -1.702   5.817  0.00  0.00    +0.149 HD
BRANCH   3   7
ATOM      7  C   UNL     1      -0.090   0.181   4.852  0.00  0.00    +0.200 C 
BRANCH   7   9
ATOM      8  N   UNL     1       0.108   0.050   2.390  0.00  0.00    -0.284 N 
ATOM      9  C   UNL     1      -0.022  -0.598   3.564  0.00  0.00    +0.234 C 
ATOM     10  O   UNL     1      -0.085  -1.810   3.584  0.00  0.00    -0.274 OA
ATOM     11  H   UNL     1       0.224   1.013   2.378  0.00  0.00    +0.155 HD
BRANCH   8  18
ATOM     12  C   UNL     1       2.558  -0.356   1.002  0.00  0.00    +0.045 C 
ATOM     13  C   UNL     1       1.249  -0.887   0.479  0.00  0.00    -0.029 A 
ATOM     14  C   UNL     1       1.214  -1.599  -0.704  0.00  0.00    +0.005 A 
ATOM     15  C   UNL     1       0.013  -2.087  -1.185  0.00  0.00    +0.001 A 
ATOM     16  C   UNL     1      -1.158  -1.863  -0.484  0.00  0.00    +0.005 A 
ATOM     17  C   UNL     1      -1.130  -1.152   0.700  0.00  0.00    -0.029 A 
ATOM     18  C   UNL     1       0.076  -0.666   1.188  0.00  0.00    +0.039 A 
ATOM     19  C   UNL     1      -2.406  -0.908   1.463  0.00  0.00    +0.045 C 
ENDBRANCH   8  18
ENDBRANCH   7   9
ENDBRANCH   3   7
ENDBRANCH   1   4
BRANCH   1  20
ATOM     20  S   UNL     1       0.047  -0.395   9.927  0.00  0.00    -0.073 S 
BRANCH  20  21
ATOM     21  C   UNL     1      -0.035  -1.666  11.145  0.00  0.00    +0.198 A 
ATOM     22  N   UNL     1      -0.380  -2.913  10.936  0.00  0.00    -0.120 NA
ATOM     23  N   UNL     1      -0.316  -3.591  12.159  0.00  0.00    -0.109 NA
ATOM     24  C   UNL     1       0.068  -2.737  13.081  0.00  0.00    +0.240 A 
ATOM     25  N   UNL     1       0.257  -1.525  12.475  0.00  0.00    -0.256 N 
ATOM     26  C   UNL     1       0.674  -0.421  13.216  0.00  0.00    +0.064 A 
ATOM     27  C   UNL     1       0.865   0.813  12.612  0.00  0.00    +0.027 A 
ATOM     28  C   UNL     1       1.279   1.891  13.368  0.00  0.00    +0.002 A 
ATOM     29  C   UNL     1       1.507   1.753  14.729  0.00  0.00    +0.001 A 
ATOM     30  C   UNL     1       1.323   0.533  15.345  0.00  0.00    +0.015 A 
ATOM     31  C   UNL     1       0.904  -0.563  14.592  0.00  0.00    +0.064 A 
ATOM     32  C   UNL     1       0.696  -1.883  15.214  0.00  0.00    +0.263 A 
ATOM     33  O   UNL     1       0.885  -2.044  16.405  0.00  0.00    -0.267 OA
ATOM     34  N   UNL     1       0.281  -2.908  14.441  0.00  0.00    -0.280 N 
ATOM     35  C   UNL     1       0.072  -4.227  15.043  0.00  0.00    +0.155 C 
ENDBRANCH  20  21
ENDBRANCH   1  20
TORSDOF 6
