REMARK  Name = ZINC22809071
REMARK  10 active torsions:
REMARK  status: ('A' for Active; 'I' for Inactive)
REMARK    1  A    between atoms: C_1  and  C_2
REMARK    2  A    between atoms: C_5  and  C_8
REMARK    3  A    between atoms: N_10  and  C_21
REMARK    4  A    between atoms: N_13  and  C_14
REMARK    5  A    between atoms: C_17  and  C_20
REMARK    6  A    between atoms: C_21  and  N_22
REMARK    7  A    between atoms: N_25  and  C_28
REMARK    8  A    between atoms: C_28  and  C_30
REMARK    9  A    between atoms: C_28  and  C_31
REMARK   10  A    between atoms: N_33  and  C_34
REMARK                            x       y       z     vdW  Elec       q    Type
REMARK                         _______ _______ _______ _____ _____    ______ ____
ROOT
ATOM      1  C   UNL     1      -1.721  -5.125  -1.097  0.00  0.00    +0.167 A 
ATOM      2  N   UNL     1      -1.462  -5.831  -2.162  0.00  0.00    -0.152 NA
ATOM      3  N   UNL     1      -1.764  -7.170  -1.878  0.00  0.00    -0.257 N 
ATOM      4  C   UNL     1      -2.211  -7.226  -0.607  0.00  0.00    +0.181 A 
ATOM      5  S   UNL     1      -2.712  -8.635   0.227  0.00  0.00    -0.011 S 
ATOM      6  N   UNL     1      -2.186  -5.973  -0.110  0.00  0.00    -0.271 N 
ENDROOT
BRANCH   1  11
ATOM      7  C   UNL     1      -1.028   0.566  -0.588  0.00  0.00    +0.044 C 
ATOM      8  C   UNL     1      -1.210  -0.924  -0.721  0.00  0.00    -0.050 A 
ATOM      9  C   UNL     1      -1.032  -1.532  -1.951  0.00  0.00    +0.004 A 
ATOM     10  C   UNL     1      -1.196  -2.896  -2.080  0.00  0.00    +0.012 A 
ATOM     11  C   UNL     1      -1.543  -3.662  -0.966  0.00  0.00    +0.020 A 
ATOM     12  C   UNL     1      -1.721  -3.042   0.271  0.00  0.00    +0.012 A 
ATOM     13  C   UNL     1      -1.549  -1.679   0.388  0.00  0.00    +0.004 A 
ENDBRANCH   1  11
BRANCH   6  14
ATOM     14  C   UNL     1      -2.567  -5.596   1.184  0.00  0.00    +0.050 A 
ATOM     15  C   UNL     1      -3.852  -5.124   1.421  0.00  0.00    +0.026 A 
ATOM     16  C   UNL     1      -4.226  -4.753   2.697  0.00  0.00    +0.005 A 
ATOM     17  C   UNL     1      -3.322  -4.851   3.740  0.00  0.00    -0.050 A 
ATOM     18  C   UNL     1      -2.042  -5.320   3.507  0.00  0.00    +0.005 A 
ATOM     19  C   UNL     1      -1.664  -5.699   2.234  0.00  0.00    +0.026 A 
ATOM     20  C   UNL     1      -3.733  -4.445   5.131  0.00  0.00    +0.044 C 
ENDBRANCH   6  14
BRANCH   3  21
ATOM     21  C   UNL     1      -1.620  -8.303  -2.796  0.00  0.00    +0.072 C 
BRANCH  21  22
ATOM     22  N   UNL     1      -0.199  -8.652  -2.925  0.00  0.00    +0.394 N 
ATOM     23  C   UNL     1       0.522  -7.541  -3.561  0.00  0.00    -0.061 C 
ATOM     24  C   UNL     1       2.006  -7.896  -3.679  0.00  0.00    +0.066 C 
ATOM     25  N   UNL     1       2.152  -9.119  -4.480  0.00  0.00    -0.295 NA
ATOM     26  C   UNL     1       1.415 -10.234  -3.869  0.00  0.00    +0.066 C 
ATOM     27  C   UNL     1      -0.064  -9.860  -3.749  0.00  0.00    -0.061 C 
ATOM     28  H   UNL     1       0.190  -8.824  -2.010  0.00  0.00    -0.079 HD
BRANCH  25  29
ATOM     29  C   UNL     1       3.568  -9.462  -4.663  0.00  0.00    +0.140 C 
ATOM     30  C   UNL     1       4.288  -9.396  -3.315  0.00  0.00    +0.034 C 
BRANCH  29  31
ATOM     31  C   UNL     1       4.202  -8.485  -5.620  0.00  0.00    +0.230 C 
ATOM     32  O   UNL     1       3.635  -7.448  -5.891  0.00  0.00    -0.274 OA
ATOM     33  N   UNL     1       5.399  -8.763  -6.173  0.00  0.00    -0.311 N 
ATOM     34  H   UNL     1       5.852  -9.593  -5.956  0.00  0.00    +0.149 HD
BRANCH  33  35
ATOM     35  C   UNL     1       6.014  -7.813  -7.103  0.00  0.00    +0.073 C 
ATOM     36  C   UNL     1       6.651  -8.380  -8.374  0.00  0.00    +0.024 C 
ATOM     37  C   UNL     1       7.537  -7.850  -7.245  0.00  0.00    +0.024 C 
ENDBRANCH  33  35
ENDBRANCH  29  31
ENDBRANCH  25  29
ENDBRANCH  21  22
ENDBRANCH   3  21
TORSDOF 7
