REMARK  Name = ZINC38814058
REMARK  7 active torsions:
REMARK  status: ('A' for Active; 'I' for Inactive)
REMARK    1  A    between atoms: C_1  and  C_2
REMARK    2  A    between atoms: C_4  and  C_17
REMARK    3  A    between atoms: C_6  and  C_16
REMARK    4  A    between atoms: N_8  and  C_10
REMARK    5  A    between atoms: N_18  and  N_19
REMARK    6  A    between atoms: C_20  and  C_22
REMARK    7  A    between atoms: C_25  and  C_28
REMARK                            x       y       z     vdW  Elec       q    Type
REMARK                         _______ _______ _______ _____ _____    ______ ____
ROOT
ATOM      1  N   UNL     1      -3.673  -0.344  -2.870  0.00  0.00    -0.205 N 
ATOM      2  C   UNL     1      -4.819   0.284  -3.200  0.00  0.00    +0.262 C 
ATOM      3  O   UNL     1      -5.372   1.000  -2.392  0.00  0.00    -0.271 OA
ATOM      4  H   UNL     1      -3.231  -0.917  -3.516  0.00  0.00    +0.177 HD
ENDROOT
BRANCH   2   5
ATOM      5  C   UNL     1      -5.413   0.097  -4.572  0.00  0.00    +0.240 C 
ATOM      6  C   UNL     1      -4.744   1.017  -5.577  0.00  0.00    +0.036 C 
ATOM      7  C   UNL     1      -5.738   1.796  -6.010  0.00  0.00    +0.068 C 
ATOM      8  N   UNL     1      -6.902   1.470  -5.406  0.00  0.00    -0.158 NA
ATOM      9  N   UNL     1      -6.818   0.538  -4.596  0.00  0.00    -0.170 NA
BRANCH   7  10
ATOM     10  C   UNL     1      -5.583   2.891  -7.034  0.00  0.00    +0.015 C 
ATOM     11  C   UNL     1      -5.990   4.229  -6.415  0.00  0.00    +0.016 C 
ATOM     12  C   UNL     1      -5.833   5.341  -7.455  0.00  0.00    -0.010 C 
ATOM     13  C   UNL     1      -6.728   5.043  -8.659  0.00  0.00    +0.007 C 
ATOM     14  C   UNL     1      -6.321   3.704  -9.278  0.00  0.00    -0.010 C 
ATOM     15  C   UNL     1      -6.478   2.593  -8.239  0.00  0.00    +0.016 C 
ATOM     16  C   UNL     1      -4.861   3.776  -9.732  0.00  0.00    +0.007 C 
ATOM     17  C   UNL     1      -3.966   4.074  -8.527  0.00  0.00    -0.010 C 
ATOM     18  C   UNL     1      -4.374   5.412  -7.908  0.00  0.00    +0.007 C 
ATOM     19  C   UNL     1      -4.124   2.962  -7.488  0.00  0.00    +0.016 C 
ENDBRANCH   7  10
ENDBRANCH   2   5
BRANCH   1  21
ATOM     20  C   UNL     1      -2.032  -0.767  -1.282  0.00  0.00    +0.110 C 
ATOM     21  N   UNL     1      -3.120  -0.170  -1.595  0.00  0.00    -0.192 NA
BRANCH  20  24
ATOM     22  C   UNL     1      -0.019   1.526   0.010  0.00  0.00    +0.026 C 
ATOM     23  C   UNL     1       0.002  -0.004   0.002  0.00  0.00    +0.080 C 
ATOM     24  C   UNL     1      -1.438  -0.580   0.090  0.00  0.00    +0.072 C 
ATOM     25  C   UNL     1      -1.173  -1.943   0.774  0.00  0.00    +0.098 C 
ATOM     26  N   UNL     1       0.143  -1.809   1.419  0.00  0.00    -0.263 N 
ATOM     27  N   UNL     1       0.619  -0.534   1.245  0.00  0.00    -0.236 NA
ATOM     28  C   UNL     1      -2.252  -2.227   1.822  0.00  0.00    +0.030 C 
ATOM     29  H   UNL     1       0.392   0.048   2.038  0.00  0.00    +0.145 HD
BRANCH  26  30
ATOM     30  C   UNL     1       0.809  -2.827   2.104  0.00  0.00    +0.045 A 
ATOM     31  C   UNL     1       0.232  -4.086   2.213  0.00  0.00    +0.024 A 
ATOM     32  C   UNL     1       0.893  -5.091   2.891  0.00  0.00    +0.002 A 
ATOM     33  C   UNL     1       2.128  -4.845   3.462  0.00  0.00    +0.000 A 
ATOM     34  C   UNL     1       2.705  -3.593   3.357  0.00  0.00    +0.002 A 
ATOM     35  C   UNL     1       2.052  -2.585   2.675  0.00  0.00    +0.024 A 
ENDBRANCH  26  30
ENDBRANCH  20  24
ENDBRANCH   1  21
TORSDOF 5
