REMARK  Name = ZINC66190770
REMARK  10 active torsions:
REMARK  status: ('A' for Active; 'I' for Inactive)
REMARK    1  A    between atoms: C_1  and  C_2
REMARK    2  A    between atoms: C_2  and  C_3
REMARK    3  A    between atoms: C_2  and  O_4
REMARK    4  A    between atoms: O_4  and  C_5
REMARK    5  A    between atoms: C_8  and  N_11
REMARK    6  A    between atoms: C_12  and  C_14
REMARK    7  A    between atoms: C_14  and  N_15
REMARK    8  A    between atoms: N_15  and  C_16
REMARK    9  A    between atoms: C_19  and  N_22
REMARK   10  A    between atoms: C_23  and  C_25
REMARK                            x       y       z     vdW  Elec       q    Type
REMARK                         _______ _______ _______ _____ _____    ______ ____
ROOT
ATOM      1  N   UNL     1       6.196  -0.885  -1.109  0.00  0.00    -0.284 N 
ATOM      2  C   UNL     1       6.855  -1.125  -2.260  0.00  0.00    +0.234 C 
ATOM      3  O   UNL     1       6.235  -1.317  -3.285  0.00  0.00    -0.274 OA
ATOM      4  H   UNL     1       6.689  -0.796  -0.278  0.00  0.00    +0.155 HD
ENDROOT
BRANCH   1   8
ATOM      5  C   UNL     1       2.042  -0.528  -1.120  0.00  0.00    +0.121 A 
ATOM      6  C   UNL     1       2.663  -1.420  -1.981  0.00  0.00    +0.047 A 
ATOM      7  C   UNL     1       4.039  -1.539  -1.978  0.00  0.00    +0.027 A 
ATOM      8  C   UNL     1       4.801  -0.765  -1.113  0.00  0.00    +0.034 A 
ATOM      9  C   UNL     1       4.178   0.128  -0.251  0.00  0.00    +0.027 A 
ATOM     10  C   UNL     1       2.803   0.250  -0.259  0.00  0.00    +0.047 A 
BRANCH   5  11
ATOM     11  O   UNL     1       0.687  -0.411  -1.123  0.00  0.00    -0.489 OA
BRANCH  11  13
ATOM     12  C   UNL     1       0.132   1.939  -1.033  0.00  0.00    +0.051 C 
ATOM     13  C   UNL     1       0.121   0.602  -0.289  0.00  0.00    +0.167 C 
ATOM     14  C   UNL     1      -1.319   0.226   0.064  0.00  0.00    +0.051 C 
ENDBRANCH  11  13
ENDBRANCH   5  11
ENDBRANCH   1   8
BRANCH   2  15
ATOM     15  C   UNL     1       8.362  -1.154  -2.274  0.00  0.00    +0.198 C 
BRANCH  15  16
ATOM     16  N   UNL     1       8.832  -1.432  -3.633  0.00  0.00    -0.335 N 
ATOM     17  H   UNL     1       8.193  -1.563  -4.351  0.00  0.00    +0.147 HD
BRANCH  16  18
ATOM     18  C   UNL     1      10.204  -1.508  -3.897  0.00  0.00    +0.028 A 
ATOM     19  C   UNL     1      11.120  -1.326  -2.869  0.00  0.00    +0.025 A 
ATOM     20  C   UNL     1      12.474  -1.401  -3.129  0.00  0.00    +0.025 A 
ATOM     21  C   UNL     1      12.920  -1.658  -4.418  0.00  0.00    +0.033 A 
ATOM     22  C   UNL     1      12.004  -1.840  -5.447  0.00  0.00    +0.025 A 
ATOM     23  C   UNL     1      10.650  -1.771  -5.186  0.00  0.00    +0.025 A 
BRANCH  21  24
ATOM     24  N   UNL     1      14.294  -1.734  -4.682  0.00  0.00    -0.286 N 
ATOM     25  C   UNL     1      15.130  -2.247  -3.758  0.00  0.00    +0.214 C 
ATOM     26  O   UNL     1      14.685  -2.734  -2.741  0.00  0.00    -0.276 OA
ATOM     27  C   UNL     1      16.619  -2.215  -3.989  0.00  0.00    +0.109 C 
ATOM     28  H   UNL     1      14.643  -1.417  -5.530  0.00  0.00    +0.155 HD
ENDBRANCH  21  24
ENDBRANCH  16  18
ENDBRANCH  15  16
ENDBRANCH   2  15
TORSDOF 7
