REMARK  Name = ZINC65748951
REMARK  8 active torsions:
REMARK  status: ('A' for Active; 'I' for Inactive)
REMARK    1  A    between atoms: C_1  and  C_2
REMARK    2  A    between atoms: C_2  and  O_4
REMARK    3  A    between atoms: O_4  and  C_5
REMARK    4  A    between atoms: C_7  and  C_22
REMARK    5  A    between atoms: N_16  and  C_19
REMARK    6  A    between atoms: C_19  and  C_20
REMARK    7  A    between atoms: C_20  and  N_21
REMARK    8  A    between atoms: C_25  and  O_28
REMARK                            x       y       z     vdW  Elec       q    Type
REMARK                         _______ _______ _______ _____ _____    ______ ____
ROOT
ATOM      1  C   UNL     1      -1.200  -2.572   0.362  0.00  0.00    +0.279 C 
ATOM      2  C   UNL     1      -2.280  -2.703  -0.726  0.00  0.00    +0.131 C 
ATOM      3  S   UNL     1      -2.638  -4.480  -0.927  0.00  0.00    -0.111 S 
ATOM      4  C   UNL     1      -1.041  -5.224  -0.849  0.00  0.00    +0.030 A 
ATOM      5  C   UNL     1      -0.448  -5.744  -1.988  0.00  0.00    +0.016 A 
ATOM      6  C   UNL     1       0.806  -6.324  -1.903  0.00  0.00    +0.001 A 
ATOM      7  C   UNL     1       1.463  -6.386  -0.688  0.00  0.00    +0.002 A 
ATOM      8  C   UNL     1       0.875  -5.869   0.453  0.00  0.00    +0.024 A 
ATOM      9  C   UNL     1      -0.378  -5.286   0.375  0.00  0.00    +0.050 A 
ATOM     10  N   UNL     1      -0.991  -4.750   1.519  0.00  0.00    -0.269 N 
ATOM     11  C   UNL     1      -1.491  -3.506   1.499  0.00  0.00    +0.262 C 
ATOM     12  O   UNL     1      -2.187  -3.127   2.418  0.00  0.00    -0.271 OA
ENDROOT
BRANCH   2  13
ATOM     13  C   UNL     1      -3.527  -1.972  -0.300  0.00  0.00    -0.030 A 
ATOM     14  C   UNL     1      -3.891  -0.799  -0.935  0.00  0.00    +0.008 A 
ATOM     15  C   UNL     1      -5.034  -0.127  -0.546  0.00  0.00    +0.046 A 
ATOM     16  C   UNL     1      -5.817  -0.631   0.481  0.00  0.00    +0.117 A 
ATOM     17  C   UNL     1      -5.451  -1.809   1.117  0.00  0.00    +0.046 A 
ATOM     18  C   UNL     1      -4.310  -2.479   0.721  0.00  0.00    +0.008 A 
BRANCH  16  19
ATOM     19  O   UNL     1      -6.942   0.028   0.866  0.00  0.00    -0.507 OA
ATOM     20  H   UNL     1      -7.739  -0.244   0.391  0.00  0.00    +0.292 HD
ENDBRANCH  16  19
ENDBRANCH   2  13
BRANCH   1  21
ATOM     21  O   UNL     1      -1.180  -1.229   0.849  0.00  0.00    -0.451 OA
BRANCH  21  23
ATOM     22  C   UNL     1       0.098   0.652   1.810  0.00  0.00    +0.136 C 
ATOM     23  C   UNL     1      -0.001  -0.756   1.284  0.00  0.00    +0.305 C 
ATOM     24  O   UNL     1       0.981  -1.460   1.252  0.00  0.00    -0.251 OA
ENDBRANCH  21  23
ENDBRANCH   1  21
BRANCH  10  25
ATOM     25  C   UNL     1      -1.089  -5.556   2.738  0.00  0.00    +0.094 C 
BRANCH  25  26
ATOM     26  C   UNL     1       0.150  -5.322   3.605  0.00  0.00    -0.067 C 
BRANCH  26  27
ATOM     27  N   UNL     1       0.052  -6.130   4.828  0.00  0.00    +0.379 N 
ATOM     28  H   UNL     1      -0.773  -5.862   5.342  0.00  0.00    -0.090 HD
ATOM     29  H   UNL     1      -0.007  -7.107   4.582  0.00  0.00    -0.090 HD
ATOM     30  H   UNL     1       0.870  -5.976   5.399  0.00  0.00    -0.090 HD
ENDBRANCH  26  27
ENDBRANCH  25  26
ENDBRANCH  10  25
TORSDOF 7
