REMARK  Name = ZINC65405783
REMARK  8 active torsions:
REMARK  status: ('A' for Active; 'I' for Inactive)
REMARK    1  A    between atoms: C_1  and  C_2
REMARK    2  A    between atoms: C_7  and  C_10
REMARK    3  A    between atoms: N_12  and  C_13
REMARK    4  A    between atoms: N_12  and  C_14
REMARK    5  A    between atoms: C_14  and  C_15
REMARK    6  A    between atoms: C_15  and  C_16
REMARK    7  A    between atoms: C_22  and  O_26
REMARK    8  A    between atoms: O_26  and  C_27
REMARK                            x       y       z     vdW  Elec       q    Type
REMARK                         _______ _______ _______ _____ _____    ______ ____
ROOT
ATOM      1  C   UNL     1       1.163  -5.471   0.685  0.00  0.00    +0.247 C 
ATOM      2  O   UNL     1       1.067  -6.571   0.172  0.00  0.00    -0.270 OA
ATOM      3  N   UNL     1       2.327  -4.795   0.617  0.00  0.00    -0.301 N 
ATOM      4  C   UNL     1       2.483  -3.529   1.337  0.00  0.00    +0.132 C 
ENDROOT
BRANCH   1  10
ATOM      5  C   UNL     1      -2.792  -0.093   0.948  0.00  0.00    +0.046 C 
ATOM      6  C   UNL     1      -2.030  -1.386   1.086  0.00  0.00    -0.017 C 
ATOM      7  C   UNL     1      -2.338  -2.260   2.082  0.00  0.00    +0.098 C 
ATOM      8  N   UNL     1      -1.583  -3.404   2.097  0.00  0.00    -0.232 N 
ATOM      9  C   UNL     1      -0.182  -3.435   1.623  0.00  0.00    +0.245 C 
ATOM     10  C   UNL     1       0.054  -4.903   1.354  0.00  0.00    +0.073 C 
ATOM     11  C   UNL     1      -1.000  -5.567   1.875  0.00  0.00    +0.100 C 
ATOM     12  N   UNL     1      -1.903  -4.711   2.437  0.00  0.00    -0.269 N 
ATOM     13  N   UNL     1      -0.125  -2.631   0.400  0.00  0.00    -0.262 NA
ATOM     14  C   UNL     1      -0.994  -1.701   0.179  0.00  0.00    +0.112 C 
ATOM     15  H   UNL     1      -2.656  -4.976   2.989  0.00  0.00    +0.170 HD
ENDBRANCH   1  10
BRANCH   3  16
ATOM     16  C   UNL     1       3.437  -5.326  -0.178  0.00  0.00    +0.111 C 
BRANCH  16  17
ATOM     17  C   UNL     1       3.339  -4.795  -1.610  0.00  0.00    +0.065 C 
BRANCH  17  18
ATOM     18  C   UNL     1       4.498  -5.350  -2.440  0.00  0.00    +0.175 C 
ATOM     19  N   UNL     1       5.779  -4.891  -1.889  0.00  0.00    -0.363 N 
ATOM     20  C   UNL     1       6.378  -4.197  -2.813  0.00  0.00    +0.060 A 
ATOM     21  C   UNL     1       7.671  -3.496  -2.842  0.00  0.00    +0.031 A 
ATOM     22  C   UNL     1       8.052  -2.842  -3.955  0.00  0.00    +0.048 A 
ATOM     23  C   UNL     1       7.218  -2.804  -5.149  0.00  0.00    +0.122 A 
ATOM     24  C   UNL     1       6.014  -3.424  -5.200  0.00  0.00    +0.073 A 
ATOM     25  C   UNL     1       5.525  -4.158  -4.032  0.00  0.00    +0.064 A 
ATOM     26  N   UNL     1       4.428  -4.833  -3.812  0.00  0.00    -0.363 N 
ATOM     27  H   UNL     1       6.116  -5.071  -0.997  0.00  0.00    +0.162 HD
ATOM     28  H   UNL     1       3.701  -4.968  -4.440  0.00  0.00    +0.162 HD
BRANCH  23  29
ATOM     29  O   UNL     1       7.658  -2.127  -6.239  0.00  0.00    -0.495 OA
ATOM     30  C   UNL     1       8.932  -1.489  -6.136  0.00  0.00    +0.277 C 
ENDBRANCH  23  29
ENDBRANCH  17  18
ENDBRANCH  16  17
ENDBRANCH   3  16
TORSDOF 5
