REMARK  Name = ZINC40034004
REMARK  8 active torsions:
REMARK  status: ('A' for Active; 'I' for Inactive)
REMARK    1  A    between atoms: C_1  and  C_2
REMARK    2  A    between atoms: C_2  and  N_3
REMARK    3  A    between atoms: C_12  and  C_15
REMARK    4  A    between atoms: C_15  and  O_17
REMARK    5  A    between atoms: O_17  and  C_18
REMARK    6  A    between atoms: C_18  and  C_20
REMARK    7  A    between atoms: C_18  and  C_26
REMARK    8  A    between atoms: C_26  and  C_28
REMARK                            x       y       z     vdW  Elec       q    Type
REMARK                         _______ _______ _______ _____ _____    ______ ____
ROOT
ATOM      1  C   UNL     1       3.778   3.210  -3.029  0.00  0.00    +0.277 C 
ENDROOT
BRANCH   1   2
ATOM      2  C   UNL     1       2.925   3.720  -4.161  0.00  0.00    +0.000 A 
ATOM      3  C   UNL     1       2.889   3.036  -5.362  0.00  0.00    +0.008 A 
ATOM      4  C   UNL     1       2.106   3.504  -6.401  0.00  0.00    +0.000 A 
ATOM      5  C   UNL     1       1.359   4.656  -6.239  0.00  0.00    +0.000 A 
ATOM      6  C   UNL     1       1.394   5.339  -5.038  0.00  0.00    +0.000 A 
ATOM      7  C   UNL     1       2.174   4.869  -3.998  0.00  0.00    +0.008 A 
ENDBRANCH   1   2
BRANCH   1   8
ATOM      8  C   UNL     1       5.186   3.723  -3.191  0.00  0.00    +0.206 C 
ATOM      9  O   UNL     1       6.044   3.004  -3.662  0.00  0.00    -0.288 OA
BRANCH   8  10
ATOM     10  C   UNL     1       5.508   5.038  -2.794  0.00  0.00    +0.027 C 
ATOM     11  C   UNL     1       6.741   5.660  -2.880  0.00  0.00    +0.006 A 
ATOM     12  C   UNL     1       8.004   5.231  -3.353  0.00  0.00    +0.010 A 
ATOM     13  C   UNL     1       9.065   6.068  -3.316  0.00  0.00    +0.001 A 
ATOM     14  C   UNL     1       8.975   7.378  -2.818  0.00  0.00    +0.002 A 
ATOM     15  C   UNL     1       7.816   7.884  -2.343  0.00  0.00    +0.026 A 
ATOM     16  C   UNL     1       6.611   7.038  -2.347  0.00  0.00    +0.043 A 
ATOM     17  N   UNL     1       5.389   7.264  -1.957  0.00  0.00    -0.380 N 
ATOM     18  C   UNL     1       4.576   6.067  -2.193  0.00  0.00    +0.152 C 
ATOM     19  H   UNL     1       5.067   8.095  -1.574  0.00  0.00    +0.160 HD
ENDBRANCH   8  10
ENDBRANCH   1   8
BRANCH   1  20
ATOM     20  O   UNL     1       3.787   1.782  -3.045  0.00  0.00    -0.447 OA
BRANCH  20  21
ATOM     21  C   UNL     1       2.832   1.159  -2.336  0.00  0.00    +0.331 C 
ATOM     22  O   UNL     1       2.017   1.805  -1.722  0.00  0.00    -0.249 OA
BRANCH  21  32
ATOM     23  N   UNL     1       0.688  -0.476  -1.203  0.00  0.00    -0.232 N 
ATOM     24  C   UNL     1      -0.011  -0.597  -2.353  0.00  0.00    +0.260 C 
ATOM     25  O   UNL     1      -1.211  -0.402  -2.378  0.00  0.00    -0.269 OA
ATOM     26  C   UNL     1       0.726  -0.971  -3.580  0.00  0.00    +0.043 A 
ATOM     27  C   UNL     1       0.078  -1.430  -4.720  0.00  0.00    +0.013 A 
ATOM     28  C   UNL     1       0.824  -1.765  -5.835  0.00  0.00    +0.001 A 
ATOM     29  C   UNL     1       2.202  -1.644  -5.814  0.00  0.00    +0.000 A 
ATOM     30  C   UNL     1       2.851  -1.186  -4.678  0.00  0.00    +0.006 A 
ATOM     31  C   UNL     1       2.120  -0.850  -3.563  0.00  0.00    -0.006 A 
ATOM     32  C   UNL     1       2.778  -0.347  -2.305  0.00  0.00    +0.212 C 
ATOM     33  N   UNL     1       2.011  -0.777  -1.136  0.00  0.00    -0.220 NA
ATOM     34  H   UNL     1       2.150  -1.760  -0.959  0.00  0.00    +0.146 HD
BRANCH  23  36
ATOM     35  C   UNL     1      -0.019   1.526   0.010  0.00  0.00    +0.026 C 
ATOM     36  C   UNL     1       0.002  -0.004   0.002  0.00  0.00    +0.124 C 
ENDBRANCH  23  36
ENDBRANCH  21  32
ENDBRANCH  20  21
ENDBRANCH   1  20
TORSDOF 7
