REMARK  Name = ZINC63375781
REMARK  7 active torsions:
REMARK  status: ('A' for Active; 'I' for Inactive)
REMARK    1  A    between atoms: C_1  and  C_2
REMARK    2  A    between atoms: C_2  and  C_4
REMARK    3  A    between atoms: C_2  and  O_18
REMARK    4  A    between atoms: N_6  and  C_7
REMARK    5  A    between atoms: C_7  and  C_8
REMARK    6  A    between atoms: C_8  and  C_9
REMARK    7  A    between atoms: O_18  and  C_19
REMARK                            x       y       z     vdW  Elec       q    Type
REMARK                         _______ _______ _______ _____ _____    ______ ____
ROOT
ATOM      1  C   UNL     1       0.003   1.496   0.262  0.00  0.00    +0.062 C 
ATOM      2  C   UNL     1       0.005  -0.012   0.001  0.00  0.00    +0.255 C 
ENDROOT
BRANCH   2   3
ATOM      3  C   UNL     1       0.629  -0.289  -1.342  0.00  0.00    +0.254 C 
ATOM      4  O   UNL     1      -0.040  -0.766  -2.235  0.00  0.00    -0.272 OA
ATOM      5  N   UNL     1       1.930  -0.008  -1.552  0.00  0.00    -0.312 N 
ATOM      6  H   UNL     1       2.465   0.373  -0.839  0.00  0.00    +0.149 HD
BRANCH   5   7
ATOM      7  C   UNL     1       2.536  -0.277  -2.858  0.00  0.00    +0.108 C 
BRANCH   7   8
ATOM      8  C   UNL     1       4.011   0.130  -2.830  0.00  0.00    +0.052 C 
BRANCH   8   9
ATOM      9  C   UNL     1       4.635  -0.147  -4.173  0.00  0.00    -0.040 C 
ATOM     10  C   UNL     1       4.791   0.728  -5.193  0.00  0.00    -0.001 A 
ATOM     11  C   UNL     1       4.440   2.144  -5.351  0.00  0.00    +0.010 A 
ATOM     12  C   UNL     1       4.729   2.766  -6.517  0.00  0.00    +0.001 A 
ATOM     13  C   UNL     1       5.354   2.092  -7.576  0.00  0.00    +0.002 A 
ATOM     14  C   UNL     1       5.707   0.791  -7.506  0.00  0.00    +0.026 A 
ATOM     15  C   UNL     1       5.450   0.040  -6.326  0.00  0.00    +0.043 A 
ATOM     16  N   UNL     1       5.692  -1.212  -6.019  0.00  0.00    -0.380 N 
ATOM     17  C   UNL     1       5.218  -1.458  -4.652  0.00  0.00    +0.144 C 
ATOM     18  H   UNL     1       6.116  -1.865  -6.597  0.00  0.00    +0.160 HD
ENDBRANCH   8   9
ENDBRANCH   7   8
ENDBRANCH   5   7
ENDBRANCH   2   3
BRANCH   2  19
ATOM     19  O   UNL     1      -1.339  -0.499   0.012  0.00  0.00    -0.480 OA
BRANCH  19  20
ATOM     20  C   UNL     1      -1.869  -0.818   1.222  0.00  0.00    +0.125 A 
ATOM     21  C   UNL     1      -1.157  -0.556   2.384  0.00  0.00    +0.046 A 
ATOM     22  C   UNL     1      -1.698  -0.887   3.611  0.00  0.00    +0.011 A 
ATOM     23  C   UNL     1      -2.947  -1.476   3.690  0.00  0.00    -0.001 A 
ATOM     24  C   UNL     1      -3.669  -1.731   2.532  0.00  0.00    +0.139 A 
ATOM     25  C   UNL     1      -3.123  -1.399   1.297  0.00  0.00    +0.092 A 
ATOM     26  O   UNL     1      -4.914  -2.282   2.560  0.00  0.00    -0.425 OA
ATOM     27  C   UNL     1      -5.407  -2.703   3.747  0.00  0.00    +0.316 C 
ATOM     28  O   UNL     1      -6.101  -3.688   3.839  0.00  0.00    -0.250 OA
ATOM     29  C   UNL     1      -5.039  -1.869   4.949  0.00  0.00    +0.106 C 
ATOM     30  C   UNL     1      -3.509  -1.842   5.032  0.00  0.00    +0.036 C 
ATOM     31  C   UNL     1      -3.095  -0.878   6.137  0.00  0.00    +0.009 C 
ATOM     32  C   UNL     1      -3.650  -1.403   7.467  0.00  0.00    +0.001 C 
ATOM     33  C   UNL     1      -5.171  -1.524   7.400  0.00  0.00    +0.001 C 
ATOM     34  C   UNL     1      -5.588  -2.447   6.248  0.00  0.00    +0.015 C 
ENDBRANCH  19  20
ENDBRANCH   2  19
TORSDOF 6
