REMARK  Name = ZINC22076345
REMARK  10 active torsions:
REMARK  status: ('A' for Active; 'I' for Inactive)
REMARK    1  A    between atoms: C_1  and  C_2
REMARK    2  A    between atoms: C_2  and  O_3
REMARK    3  A    between atoms: O_3  and  C_4
REMARK    4  A    between atoms: C_6  and  C_21
REMARK    5  A    between atoms: C_9  and  O_10
REMARK    6  A    between atoms: O_10  and  C_11
REMARK    7  A    between atoms: C_11  and  C_12
REMARK    8  A    between atoms: C_21  and  N_22
REMARK    9  A    between atoms: N_22  and  C_23
REMARK   10  A    between atoms: C_23  and  C_24
REMARK                            x       y       z     vdW  Elec       q    Type
REMARK                         _______ _______ _______ _____ _____    ______ ____
ROOT
ATOM      1  C   UNL     1       2.405   0.035  -0.021  0.00  0.00    +0.164 A 
ATOM      2  C   UNL     1       2.379   1.421  -0.013  0.00  0.00    +0.051 A 
ATOM      3  C   UNL     1       1.169   2.089   0.002  0.00  0.00    -0.059 A 
ATOM      4  C   UNL     1      -0.017   1.379   0.010  0.00  0.00    +0.025 A 
ATOM      5  C   UNL     1       0.002  -0.004   0.002  0.00  0.00    +0.086 A 
ATOM      6  C   UNL     1       1.212  -0.680  -0.013  0.00  0.00    +0.181 A 
ATOM      7 CL   UNL     1      -1.489  -0.893   0.012  0.00  0.00    -0.080 Cl
ENDROOT
BRANCH   1   8
ATOM      8  O   UNL     1       3.595  -0.624  -0.035  0.00  0.00    -0.489 OA
BRANCH   8  10
ATOM      9  C   UNL     1       6.009  -0.735  -0.059  0.00  0.00    +0.048 C 
ATOM     10  C   UNL     1       4.779   0.176  -0.042  0.00  0.00    +0.226 C 
ENDBRANCH   8  10
ENDBRANCH   1   8
BRANCH   6  11
ATOM     11  O   UNL     1       1.233  -2.041  -0.020  0.00  0.00    -0.482 OA
BRANCH  11  12
ATOM     12  C   UNL     1       1.231  -2.683  -1.297  0.00  0.00    +0.266 C 
BRANCH  12  13
ATOM     13  C   UNL     1       1.255  -4.178  -1.107  0.00  0.00    +0.008 A 
ATOM     14  C   UNL     1       1.276  -4.712   0.168  0.00  0.00    +0.010 A 
ATOM     15  C   UNL     1       1.298  -6.083   0.342  0.00  0.00    +0.020 A 
ATOM     16  C   UNL     1       1.300  -6.921  -0.759  0.00  0.00    +0.042 A 
ATOM     17  C   UNL     1       1.279  -6.387  -2.034  0.00  0.00    +0.040 A 
ATOM     18  C   UNL     1       1.252  -5.015  -2.208  0.00  0.00    +0.049 A 
ATOM     19 CL   UNL     1       1.219  -4.343  -3.809  0.00  0.00    -0.083 Cl
ATOM     20 CL   UNL     1       1.329  -8.643  -0.539  0.00  0.00    -0.083 Cl
ENDBRANCH  12  13
ENDBRANCH  11  12
ENDBRANCH   6  11
BRANCH   3  21
ATOM     21  C   UNL     1       1.143   3.596   0.010  0.00  0.00    -0.046 C 
BRANCH  21  22
ATOM     22  N   UNL     1       1.148   4.079   1.397  0.00  0.00    +0.386 N 
ATOM     23  H   UNL     1       0.261   3.694   1.922  0.00  0.00    -0.085 HD
ATOM     24  H   UNL     1       2.057   3.725   1.906  0.00  0.00    -0.085 HD
BRANCH  22  25
ATOM     25  C   UNL     1       1.123   5.547   1.444  0.00  0.00    -0.006 C 
BRANCH  25  26
ATOM     26  C   UNL     1       1.129   6.004   2.880  0.00  0.00    +0.088 A 
ATOM     27  C   UNL     1       2.222   6.261   3.620  0.00  0.00    +0.042 A 
ATOM     28  C   UNL     1       1.768   6.659   4.898  0.00  0.00    +0.041 A 
ATOM     29  C   UNL     1       0.424   6.620   4.864  0.00  0.00    +0.195 A 
ATOM     30  O   UNL     1       0.042   6.229   3.637  0.00  0.00    -0.470 OA
ENDBRANCH  25  26
ENDBRANCH  22  25
ENDBRANCH  21  22
ENDBRANCH   3  21
TORSDOF 9
