REMARK  Name = ZINC14571151
REMARK  7 active torsions:
REMARK  status: ('A' for Active; 'I' for Inactive)
REMARK    1  A    between atoms: C_1  and  C_2
REMARK    2  A    between atoms: C_2  and  C_3
REMARK    3  A    between atoms: C_3  and  N_4
REMARK    4  A    between atoms: N_4  and  C_5
REMARK    5  A    between atoms: C_5  and  C_6
REMARK    6  A    between atoms: C_19  and  C_21
REMARK    7  A    between atoms: C_21  and  N_22
REMARK                            x       y       z     vdW  Elec       q    Type
REMARK                         _______ _______ _______ _____ _____    ______ ____
ROOT
ATOM      1  N   UNL     1      -2.748   3.158   1.700  0.00  0.00    -0.293 N 
ATOM      2  C   UNL     1      -1.646   2.424   1.444  0.00  0.00    +0.234 C 
ATOM      3  O   UNL     1      -0.986   1.982   2.360  0.00  0.00    -0.274 OA
ENDROOT
BRANCH   1   4
ATOM      4  C   UNL     1      -3.545   3.692   0.593  0.00  0.00    +0.108 C 
BRANCH   4   6
ATOM      5  C   UNL     1      -5.456   3.235  -0.951  0.00  0.00    +0.005 C 
ATOM      6  C   UNL     1      -4.623   2.677   0.205  0.00  0.00    +0.016 C 
ENDBRANCH   4   6
ENDBRANCH   1   4
BRANCH   1   7
ATOM      7  C   UNL     1      -3.147   3.421   3.084  0.00  0.00    +0.182 C 
BRANCH   7   8
ATOM      8  C   UNL     1      -2.496   4.694   3.562  0.00  0.00    +0.128 A 
ATOM      9  N   UNL     1      -2.747   5.109   4.831  0.00  0.00    -0.309 N 
ATOM     10  H   UNL     1      -3.332   4.586   5.401  0.00  0.00    +0.170 HD
ATOM     11  C   UNL     1      -2.186   6.245   5.308  0.00  0.00    +0.259 A 
ATOM     12  O   UNL     1      -2.402   6.628   6.443  0.00  0.00    -0.267 OA
ATOM     13  C   UNL     1      -1.307   6.997   4.402  0.00  0.00    +0.065 A 
ATOM     14  C   UNL     1      -0.680   8.179   4.795  0.00  0.00    +0.017 A 
ATOM     15  C   UNL     1       0.128   8.841   3.913  0.00  0.00    +0.021 A 
ATOM     16  C   UNL     1       0.333   8.348   2.630  0.00  0.00    +0.043 A 
ATOM     17  C   UNL     1      -0.275   7.182   2.217  0.00  0.00    +0.048 A 
ATOM     18  C   UNL     1      -1.105   6.489   3.099  0.00  0.00    +0.080 A 
ATOM     19  N   UNL     1      -1.721   5.334   2.741  0.00  0.00    -0.232 NA
ATOM     20 CL   UNL     1       1.366   9.212   1.534  0.00  0.00    -0.083 Cl
ENDBRANCH   7   8
ENDBRANCH   1   7
BRANCH   2  21
ATOM     21  C   UNL     1      -1.235   2.154   0.020  0.00  0.00    +0.212 C 
BRANCH  21  22
ATOM     22  N   UNL     1      -0.016   1.341   0.009  0.00  0.00    -0.225 N 
ATOM     23  C   UNL     1       1.232   1.842   0.000  0.00  0.00    +0.254 C 
ATOM     24  O   UNL     1       1.523   3.021   0.003  0.00  0.00    -0.270 OA
ATOM     25  C   UNL     1       2.191   0.717  -0.015  0.00  0.00    +0.049 A 
ATOM     26  C   UNL     1       3.574   0.624  -0.029  0.00  0.00    +0.014 A 
ATOM     27  C   UNL     1       4.178  -0.624  -0.041  0.00  0.00    +0.001 A 
ATOM     28  C   UNL     1       3.411  -1.774  -0.040  0.00  0.00    +0.001 A 
ATOM     29  C   UNL     1       2.027  -1.696  -0.026  0.00  0.00    +0.014 A 
ATOM     30  C   UNL     1       1.409  -0.456  -0.014  0.00  0.00    +0.049 A 
ATOM     31  C   UNL     1       0.002  -0.004   0.002  0.00  0.00    +0.254 C 
ATOM     32  O   UNL     1      -0.974  -0.726   0.007  0.00  0.00    -0.270 OA
ENDBRANCH  21  22
ENDBRANCH   2  21
TORSDOF 6
