REMARK  Name = ZINC56634155
REMARK  12 active torsions:
REMARK  status: ('A' for Active; 'I' for Inactive)
REMARK    1  A    between atoms: C_1  and  C_2
REMARK    2  A    between atoms: C_2  and  C_3
REMARK    3  A    between atoms: C_3  and  C_5
REMARK    4  A    between atoms: C_3  and  N_6
REMARK    5  A    between atoms: C_7  and  N_11
REMARK    6  A    between atoms: C_12  and  C_14
REMARK    7  A    between atoms: C_14  and  C_16
REMARK    8  A    between atoms: C_14  and  S_17
REMARK    9  A    between atoms: S_17  and  C_18
REMARK   10  A    between atoms: N_22  and  C_23
REMARK   11  A    between atoms: C_24  and  C_30
REMARK   12  A    between atoms: C_28  and  C_29
REMARK                            x       y       z     vdW  Elec       q    Type
REMARK                         _______ _______ _______ _____ _____    ______ ____
ROOT
ATOM      1  C   UNL     1      -4.451  -2.030   4.710  0.00  0.00    +0.137 C 
ATOM      2  C   UNL     1      -5.936  -1.968   4.344  0.00  0.00    +0.029 C 
ENDROOT
BRANCH   1   4
ATOM      3  N   UNL     1      -3.264  -1.329   2.657  0.00  0.00    -0.270 N 
ATOM      4  C   UNL     1      -3.641  -2.331   3.476  0.00  0.00    +0.231 C 
ATOM      5  O   UNL     1      -3.329  -3.474   3.219  0.00  0.00    -0.274 OA
ATOM      6  H   UNL     1      -3.514  -0.414   2.862  0.00  0.00    +0.156 HD
BRANCH   3   8
ATOM      7  N   UNL     1      -2.071  -0.704   0.610  0.00  0.00    -0.248 N 
ATOM      8  C   UNL     1      -2.514  -1.607   1.514  0.00  0.00    +0.123 A 
ATOM      9  C   UNL     1      -2.096  -2.836   1.106  0.00  0.00    +0.065 A 
ATOM     10  C   UNL     1      -1.377  -2.672  -0.081  0.00  0.00    +0.136 A 
ATOM     11  N   UNL     1      -1.366  -1.398  -0.382  0.00  0.00    -0.178 NA
BRANCH   7  12
ATOM     12  C   UNL     1      -2.294   0.743   0.656  0.00  0.00    +0.106 C 
ATOM     13  C   UNL     1      -3.059   1.181  -0.595  0.00  0.00    +0.032 C 
BRANCH  12  15
ATOM     14  C   UNL     1      -1.180   2.968   0.882  0.00  0.00    +0.006 C 
ATOM     15  C   UNL     1      -0.947   1.466   0.709  0.00  0.00    +0.023 C 
ENDBRANCH  12  15
ENDBRANCH   7  12
ENDBRANCH   3   8
ENDBRANCH   1   4
BRANCH   1  16
ATOM     16  S   UNL     1      -4.187  -3.337   5.940  0.00  0.00    -0.072 S 
BRANCH  16  17
ATOM     17  C   UNL     1      -5.069  -2.773   7.358  0.00  0.00    +0.215 A 
ATOM     18  N   UNL     1      -5.756  -1.656   7.458  0.00  0.00    -0.101 NA
ATOM     19  N   UNL     1      -6.276  -1.551   8.627  0.00  0.00    -0.022 NA
ATOM     20  N   UNL     1      -5.967  -2.573   9.350  0.00  0.00    -0.038 NA
ATOM     21  N   UNL     1      -5.172  -3.413   8.550  0.00  0.00    -0.187 N 
BRANCH  21  22
ATOM     22  C   UNL     1      -4.607  -4.645   8.908  0.00  0.00    +0.076 A 
ATOM     23  C   UNL     1      -4.923  -5.790   8.191  0.00  0.00    -0.025 A 
ATOM     24  C   UNL     1      -4.364  -7.002   8.545  0.00  0.00    +0.005 A 
ATOM     25  C   UNL     1      -3.490  -7.076   9.614  0.00  0.00    +0.001 A 
ATOM     26  C   UNL     1      -3.173  -5.936  10.331  0.00  0.00    +0.005 A 
ATOM     27  C   UNL     1      -3.725  -4.720   9.977  0.00  0.00    -0.025 A 
ATOM     28  C   UNL     1      -3.374  -3.478  10.755  0.00  0.00    +0.046 C 
ATOM     29  C   UNL     1      -5.876  -5.711   7.026  0.00  0.00    +0.046 C 
ENDBRANCH  21  22
ENDBRANCH  16  17
ENDBRANCH   1  16
TORSDOF 7
