REMARK  Name = ZINC14744245
REMARK  13 active torsions:
REMARK  status: ('A' for Active; 'I' for Inactive)
REMARK    1  A    between atoms: C_1  and  C_2
REMARK    2  A    between atoms: C_2  and  C_3
REMARK    3  A    between atoms: C_5  and  C_36
REMARK    4  A    between atoms: C_7  and  C_9
REMARK    5  A    between atoms: C_9  and  N_10
REMARK    6  A    between atoms: N_10  and  C_11
REMARK    7  A    between atoms: C_13  and  C_24
REMARK    8  A    between atoms: C_15  and  S_17
REMARK    9  A    between atoms: S_17  and  N_20
REMARK   10  A    between atoms: N_20  and  C_21
REMARK   11  A    between atoms: C_21  and  C_22
REMARK   12  A    between atoms: C_21  and  C_23
REMARK   13  A    between atoms: N_26  and  C_27
REMARK                            x       y       z     vdW  Elec       q    Type
REMARK                         _______ _______ _______ _____ _____    ______ ____
ROOT
ATOM      1  C   UNL     1       5.357  -0.569  -4.650  0.00  0.00    +0.030 A 
ATOM      2  C   UNL     1       6.070  -1.754  -4.554  0.00  0.00    +0.036 A 
ATOM      3  C   UNL     1       7.298  -1.879  -5.203  0.00  0.00    +0.040 A 
ATOM      4  C   UNL     1       7.802  -0.809  -5.944  0.00  0.00    +0.041 A 
ATOM      5  C   UNL     1       7.086   0.367  -6.033  0.00  0.00    +0.108 A 
ATOM      6  C   UNL     1       5.866   0.489  -5.395  0.00  0.00    +0.051 A 
ENDROOT
BRANCH   3   7
ATOM      7  C   UNL     1       8.064  -3.140  -5.106  0.00  0.00    +0.245 C 
ATOM      8  O   UNL     1       9.134  -3.246  -5.672  0.00  0.00    -0.270 OA
ATOM      9  N   UNL     1       7.575  -4.171  -4.389  0.00  0.00    -0.300 N 
ATOM     10  H   UNL     1       6.721  -4.087  -3.937  0.00  0.00    +0.150 HD
BRANCH   9  11
ATOM     11  C   UNL     1       8.334  -5.421  -4.292  0.00  0.00    +0.159 C 
ATOM     12  C   UNL     1       7.939  -6.165  -3.014  0.00  0.00    +0.032 C 
ATOM     13  C   UNL     1       9.056  -7.089  -2.564  0.00  0.00    +0.004 C 
ATOM     14  C   UNL     1       9.314  -8.247  -3.511  0.00  0.00    +0.019 C 
ATOM     15  C   UNL     1       9.871  -7.746  -4.845  0.00  0.00    +0.104 C 
ATOM     16  N   UNL     1       8.744  -7.393  -5.723  0.00  0.00    -0.314 N 
ATOM     17  C   UNL     1       8.018  -6.301  -5.483  0.00  0.00    +0.233 C 
ATOM     18  O   UNL     1       7.097  -6.016  -6.219  0.00  0.00    -0.274 OA
ATOM     19  H   UNL     1       8.531  -7.956  -6.484  0.00  0.00    +0.149 HD
ENDBRANCH   9  11
ENDBRANCH   3   7
BRANCH   5  20
ATOM     20  S   UNL     1       7.725   1.716  -6.969  0.00  0.00    +0.059 S 
ATOM     21  O   UNL     1       7.124   2.893  -6.448  0.00  0.00    -0.153 OA
ATOM     22  O   UNL     1       9.134   1.541  -7.024  0.00  0.00    -0.153 OA
BRANCH  20  23
ATOM     23  N   UNL     1       7.166   1.545  -8.519  0.00  0.00    -0.187 NA
ATOM     24  H   UNL     1       7.789   1.378  -9.243  0.00  0.00    +0.148 HD
BRANCH  23  25
ATOM     25  C   UNL     1       5.731   1.647  -8.795  0.00  0.00    +0.070 C 
ATOM     26  C   UNL     1       5.521   2.309 -10.158  0.00  0.00    +0.025 C 
ATOM     27  C   UNL     1       5.113   0.248  -8.807  0.00  0.00    +0.025 C 
ENDBRANCH  23  25
ENDBRANCH  20  23
ENDBRANCH   5  20
BRANCH   1  28
ATOM     28  N   UNL     1       4.127  -0.439  -4.002  0.00  0.00    -0.338 N 
ATOM     29  H   UNL     1       3.626   0.389  -4.072  0.00  0.00    +0.146 HD
BRANCH  28  30
ATOM     30  C   UNL     1       3.591  -1.554  -3.217  0.00  0.00    +0.156 C 
BRANCH  30  35
ATOM     31  C   UNL     1       0.707  -0.490  -1.238  0.00  0.00    +0.084 A 
ATOM     32  N   UNL     1       0.141  -0.740  -2.387  0.00  0.00    -0.347 N 
ATOM     33  C   UNL     1       1.073  -1.153  -3.259  0.00  0.00    +0.035 A 
ATOM     34  H   UNL     1       2.695  -0.630  -0.646  0.00  0.00    +0.167 HD
ATOM     35  C   UNL     1       2.262  -1.159  -2.626  0.00  0.00    +0.054 A 
ATOM     36  N   UNL     1       2.031  -0.734  -1.346  0.00  0.00    -0.346 N 
ATOM     37  C   UNL     1       0.831  -1.541  -4.695  0.00  0.00    +0.065 C 
ATOM     38  H   UNL     1      -0.805  -0.642  -2.580  0.00  0.00    +0.167 HD
BRANCH  31  40
ATOM     39  C   UNL     1      -0.019   1.526   0.010  0.00  0.00    +0.012 C 
ATOM     40  C   UNL     1       0.002  -0.004   0.002  0.00  0.00    +0.069 C 
ENDBRANCH  31  40
ENDBRANCH  30  35
ENDBRANCH  28  30
ENDBRANCH   1  28
TORSDOF 9
