REMARK  Name = ZINC54214428
REMARK  4 active torsions:
REMARK  status: ('A' for Active; 'I' for Inactive)
REMARK    1  A    between atoms: C_3  and  C_9
REMARK    2  A    between atoms: N_11  and  C_12
REMARK    3  A    between atoms: C_12  and  C_17
REMARK    4  A    between atoms: N_18  and  O_19
REMARK                            x       y       z     vdW  Elec       q    Type
REMARK                         _______ _______ _______ _____ _____    ______ ____
ROOT
ATOM      1  C   UNL     1       3.614   2.208  -0.019  0.00  0.00    +0.248 C 
ATOM      2  O   UNL     1       4.650   1.575  -0.069  0.00  0.00    -0.270 OA
ATOM      3  N   UNL     1       3.648   3.555   0.025  0.00  0.00    -0.299 N 
ATOM      4  H   UNL     1       2.822   4.062  -0.008  0.00  0.00    +0.150 HD
ENDROOT
BRANCH   1   7
ATOM      5  C   UNL     1      -0.084   1.562   0.065  0.00  0.00    +0.004 A 
ATOM      6  C   UNL     1       1.124   2.226   0.053  0.00  0.00    +0.016 A 
ATOM      7  C   UNL     1       2.317   1.502  -0.005  0.00  0.00    +0.075 A 
ATOM      8  C   UNL     1       2.277   0.105  -0.050  0.00  0.00    +0.170 A 
ATOM      9  C   UNL     1       1.056  -0.549  -0.037  0.00  0.00    +0.159 A 
ATOM     10  C   UNL     1      -0.120   0.179   0.020  0.00  0.00    +0.041 A 
ATOM     11  F   UNL     1       1.013  -1.898  -0.081  0.00  0.00    -0.202 F 
ATOM     12  F   UNL     1       3.425  -0.604  -0.107  0.00  0.00    -0.202 F 
ENDBRANCH   1   7
BRANCH   3  13
ATOM     13  C   UNL     1       4.933   4.252   0.121  0.00  0.00    +0.093 C 
ATOM     14  C   UNL     1       5.687   3.824   1.404  0.00  0.00    +0.033 C 
ATOM     15  C   UNL     1       5.013   4.687   2.500  0.00  0.00    +0.003 C 
ATOM     16  C   UNL     1       4.764   6.045   1.812  0.00  0.00    +0.003 C 
ATOM     17  C   UNL     1       4.713   5.768   0.299  0.00  0.00    +0.033 C 
BRANCH  13  18
ATOM     18  C   UNL     1       5.771   3.981  -1.102  0.00  0.00    +0.155 C 
ATOM     19  N   UNL     1       6.979   4.434  -1.170  0.00  0.00    -0.075 NA
ATOM     20  N   UNL     1       5.250   3.251  -2.147  0.00  0.00    -0.342 N 
ATOM     21  H   UNL     1       4.318   2.983  -2.133  0.00  0.00    +0.144 HD
ATOM     22  H   UNL     1       5.814   3.006  -2.897  0.00  0.00    +0.144 HD
BRANCH  19  23
ATOM     23  O   UNL     1       7.474   5.286  -0.153  0.00  0.00    -0.408 OA
ATOM     24  H   UNL     1       8.388   5.573  -0.291  0.00  0.00    +0.328 HD
ENDBRANCH  19  23
ENDBRANCH  13  18
ENDBRANCH   3  13
TORSDOF 4
