REMARK  Name = ZINC59890775
REMARK  10 active torsions:
REMARK  status: ('A' for Active; 'I' for Inactive)
REMARK    1  A    between atoms: C_1  and  C_2
REMARK    2  A    between atoms: C_7  and  C_9
REMARK    3  A    between atoms: C_7  and  N_29
REMARK    4  A    between atoms: C_9  and  N_10
REMARK    5  A    between atoms: C_11  and  C_13
REMARK    6  A    between atoms: C_16  and  S_19
REMARK    7  A    between atoms: S_19  and  N_22
REMARK    8  A    between atoms: N_22  and  C_23
REMARK    9  A    between atoms: N_29  and  C_30
REMARK   10  A    between atoms: N_29  and  C_31
REMARK                            x       y       z     vdW  Elec       q    Type
REMARK                         _______ _______ _______ _____ _____    ______ ____
ROOT
ATOM      1  C   UNL     1       5.705  -5.822   4.081  0.00  0.00    +0.037 A 
ATOM      2  C   UNL     1       4.946  -5.917   2.914  0.00  0.00    +0.015 A 
ATOM      3  C   UNL     1       4.091  -6.985   2.735  0.00  0.00    +0.029 A 
ATOM      4  C   UNL     1       3.985  -7.960   3.711  0.00  0.00    +0.109 A 
ATOM      5  C   UNL     1       4.734  -7.872   4.871  0.00  0.00    +0.029 A 
ATOM      6  C   UNL     1       5.598  -6.812   5.059  0.00  0.00    +0.015 A 
ENDROOT
BRANCH   1   8
ATOM      7  N   UNL     1       6.725  -3.726   3.333  0.00  0.00    -0.313 N 
ATOM      8  C   UNL     1       6.624  -4.680   4.279  0.00  0.00    +0.244 C 
ATOM      9  O   UNL     1       7.287  -4.603   5.295  0.00  0.00    -0.270 OA
ATOM     10  H   UNL     1       6.196  -3.787   2.523  0.00  0.00    +0.149 HD
BRANCH   7  11
ATOM     11  C   UNL     1       7.636  -2.594   3.529  0.00  0.00    +0.092 C 
BRANCH  11  17
ATOM     12  C   UNL     1       9.493   1.548   1.441  0.00  0.00    +0.007 C 
ATOM     13  C   UNL     1       8.626   0.309   1.203  0.00  0.00    -0.015 C 
ATOM     14  C   UNL     1       7.213   0.744   0.809  0.00  0.00    +0.003 C 
ATOM     15  C   UNL     1       6.346  -0.494   0.571  0.00  0.00    -0.001 C 
ATOM     16  C   UNL     1       6.284  -1.327   1.853  0.00  0.00    -0.010 C 
ATOM     17  C   UNL     1       7.697  -1.762   2.248  0.00  0.00    -0.050 C 
ATOM     18  C   UNL     1       8.564  -0.523   2.485  0.00  0.00    -0.007 C 
BRANCH  17  19
ATOM     19  N   UNL     1       8.281  -2.568   1.167  0.00  0.00    +0.381 N 
ATOM     20  C   UNL     1       9.586  -3.088   1.595  0.00  0.00    -0.096 C 
ATOM     21  C   UNL     1       7.385  -3.690   0.855  0.00  0.00    -0.096 C 
ATOM     22  H   UNL     1       8.400  -1.994   0.346  0.00  0.00    -0.082 HD
ENDBRANCH  17  19
ENDBRANCH  11  17
ENDBRANCH   7  11
ENDBRANCH   1   8
BRANCH   4  23
ATOM     23  S   UNL     1       2.890  -9.321   3.475  0.00  0.00    +0.072 S 
ATOM     24  O   UNL     1       2.637  -9.866   4.763  0.00  0.00    -0.150 OA
ATOM     25  O   UNL     1       1.849  -8.862   2.624  0.00  0.00    -0.150 OA
BRANCH  23  26
ATOM     26  N   UNL     1       3.721 -10.476   2.627  0.00  0.00    -0.216 N 
ATOM     27  H   UNL     1       3.922 -11.330   3.041  0.00  0.00    +0.174 HD
BRANCH  26  28
ATOM     28  C   UNL     1       4.130 -10.221   1.316  0.00  0.00    +0.048 A 
ATOM     29  C   UNL     1       3.205 -10.248   0.280  0.00  0.00    +0.024 A 
ATOM     30  C   UNL     1       3.613  -9.995  -1.014  0.00  0.00    +0.002 A 
ATOM     31  C   UNL     1       4.941  -9.715  -1.280  0.00  0.00    +0.000 A 
ATOM     32  C   UNL     1       5.864  -9.687  -0.252  0.00  0.00    +0.002 A 
ATOM     33  C   UNL     1       5.462  -9.934   1.046  0.00  0.00    +0.024 A 
ENDBRANCH  26  28
ENDBRANCH  23  26
ENDBRANCH   4  23
TORSDOF 7
