REMARK  Name = ZINC33033482
REMARK  11 active torsions:
REMARK  status: ('A' for Active; 'I' for Inactive)
REMARK    1  A    between atoms: C_1  and  C_2
REMARK    2  A    between atoms: C_2  and  C_3
REMARK    3  A    between atoms: C_6  and  S_9
REMARK    4  A    between atoms: S_9  and  N_12
REMARK    5  A    between atoms: N_12  and  C_13
REMARK    6  A    between atoms: C_15  and  C_25
REMARK    7  A    between atoms: C_18  and  N_19
REMARK    8  A    between atoms: N_27  and  C_28
REMARK    9  A    between atoms: N_27  and  C_29
REMARK   10  A    between atoms: C_29  and  C_30
REMARK   11  A    between atoms: N_32  and  C_33
REMARK                            x       y       z     vdW  Elec       q    Type
REMARK                         _______ _______ _______ _____ _____    ______ ____
ROOT
ATOM      1  C   UNL     1       0.002   2.426   6.290  0.00  0.00    +0.070 A 
ATOM      2  C   UNL     1       0.262   3.769   6.095  0.00  0.00    +0.039 A 
ATOM      3  C   UNL     1       1.477   4.312   6.525  0.00  0.00    +0.039 A 
ATOM      4  C   UNL     1       2.427   3.492   7.141  0.00  0.00    +0.015 A 
ATOM      5  C   UNL     1       2.166   2.153   7.327  0.00  0.00    +0.026 A 
ATOM      6  C   UNL     1       0.957   1.612   6.905  0.00  0.00    +0.052 A 
ENDROOT
BRANCH   6   7
ATOM      7  N   UNL     1       0.697   0.256   7.096  0.00  0.00    -0.332 N 
ATOM      8  C   UNL     1       1.904  -0.454   7.542  0.00  0.00    +0.086 C 
ATOM      9  C   UNL     1       1.598  -1.948   7.663  0.00  0.00    -0.063 C 
ATOM     10  N   UNL     1       0.493  -2.145   8.612  0.00  0.00    +0.381 N 
ATOM     11  C   UNL     1      -0.713  -1.435   8.166  0.00  0.00    -0.063 C 
ATOM     12  C   UNL     1      -0.407   0.060   8.045  0.00  0.00    +0.086 C 
ATOM     13  H   UNL     1       0.264  -3.218   8.691  0.00  0.00    -0.086 HD
ATOM     14  H   UNL     1       0.786  -1.759   9.600  0.00  0.00    -0.086 HD
ENDBRANCH   6   7
BRANCH   3  15
ATOM     15  C   UNL     1       1.757   5.746   6.325  0.00  0.00    +0.247 C 
ATOM     16  O   UNL     1       1.465   6.282   5.274  0.00  0.00    -0.270 OA
ATOM     17  N   UNL     1       2.336   6.463   7.309  0.00  0.00    -0.292 N 
ATOM     18  C   UNL     1       2.772   5.799   8.540  0.00  0.00    +0.133 C 
BRANCH  17  19
ATOM     19  C   UNL     1       2.530   7.906   7.146  0.00  0.00    +0.203 C 
BRANCH  19  20
ATOM     20  C   UNL     1       1.321   8.637   7.670  0.00  0.00    +0.230 C 
ATOM     21  O   UNL     1       0.389   8.014   8.134  0.00  0.00    -0.274 OA
ATOM     22  N   UNL     1       1.275   9.983   7.624  0.00  0.00    -0.317 N 
ATOM     23  C   UNL     1       0.099  10.694   8.133  0.00  0.00    +0.128 C 
ATOM     24  H   UNL     1       2.120  10.549   7.204  0.00  0.00    +0.148 HD
ENDBRANCH  19  20
ENDBRANCH  17  19
ENDBRANCH   3  15
BRANCH   1  25
ATOM     25  N   UNL     1      -1.216   1.879   5.865  0.00  0.00    -0.214 N 
ATOM     26  H   UNL     1      -2.048   1.772   6.576  0.00  0.00    +0.174 HD
BRANCH  25  27
ATOM     27  S   UNL     1      -1.402   1.393   4.293  0.00  0.00    +0.072 S 
ATOM     28  O   UNL     1      -0.962   2.473   3.479  0.00  0.00    -0.150 OA
ATOM     29  O   UNL     1      -2.708   0.844   4.189  0.00  0.00    -0.150 OA
BRANCH  27  33
ATOM     30  C   UNL     1       1.493  -2.016   3.592  0.00  0.00    -0.048 A 
ATOM     31  C   UNL     1       1.892  -0.712   3.362  0.00  0.00    +0.005 A 
ATOM     32  C   UNL     1       1.006   0.329   3.572  0.00  0.00    +0.029 A 
ATOM     33  C   UNL     1      -0.275   0.066   4.021  0.00  0.00    +0.109 A 
ATOM     34  C   UNL     1      -0.672  -1.237   4.255  0.00  0.00    +0.029 A 
ATOM     35  C   UNL     1       0.212  -2.278   4.041  0.00  0.00    +0.005 A 
BRANCH  30  37
ATOM     36  C   UNL     1       2.326  -3.641   1.915  0.00  0.00    +0.009 C 
ATOM     37  C   UNL     1       2.457  -3.151   3.358  0.00  0.00    +0.032 C 
ENDBRANCH  30  37
ENDBRANCH  27  33
ENDBRANCH  25  27
ENDBRANCH   1  25
TORSDOF 8
