REMARK  Name = ZINC15859524
REMARK  6 active torsions:
REMARK  status: ('A' for Active; 'I' for Inactive)
REMARK    1  A    between atoms: C_1  and  C_2
REMARK    2  A    between atoms: C_7  and  C_9
REMARK    3  A    between atoms: C_7  and  C_16
REMARK    4  A    between atoms: C_7  and  N_60
REMARK    5  A    between atoms: C_17  and  N_25
REMARK    6  A    between atoms: C_26  and  C_28
REMARK                            x       y       z     vdW  Elec       q    Type
REMARK                         _______ _______ _______ _____ _____    ______ ____
ROOT
ATOM      1  C   UNL     1      -0.927   1.564  -3.566  0.00  0.00    +0.118 A 
ATOM      2  C   UNL     1      -1.717   0.783  -4.324  0.00  0.00    +0.082 A 
ATOM      3  C   UNL     1      -2.821   1.641  -4.782  0.00  0.00    +0.042 A 
ATOM      4  C   UNL     1      -3.946   1.438  -5.579  0.00  0.00    +0.013 A 
ATOM      5  C   UNL     1      -4.800   2.477  -5.824  0.00  0.00    +0.001 A 
ATOM      6  C   UNL     1      -4.553   3.732  -5.284  0.00  0.00    +0.004 A 
ATOM      7  C   UNL     1      -3.445   3.951  -4.494  0.00  0.00    +0.047 A 
ATOM      8  C   UNL     1      -2.564   2.908  -4.233  0.00  0.00    +0.137 A 
ATOM      9  O   UNL     1      -1.426   2.814  -3.517  0.00  0.00    -0.459 OA
ENDROOT
BRANCH   2  10
ATOM     10  N   UNL     1      -1.528  -0.578  -4.618  0.00  0.00    -0.278 N 
ATOM     11  C   UNL     1      -2.052  -1.103  -5.743  0.00  0.00    +0.248 C 
ATOM     12  O   UNL     1      -2.627  -0.386  -6.539  0.00  0.00    -0.270 OA
ATOM     13  H   UNL     1      -1.020  -1.139  -4.011  0.00  0.00    +0.155 HD
BRANCH  11  14
ATOM     14  C   UNL     1      -1.927  -2.552  -6.010  0.00  0.00    +0.037 A 
ATOM     15  C   UNL     1      -1.263  -3.377  -5.101  0.00  0.00    +0.013 A 
ATOM     16  C   UNL     1      -1.156  -4.729  -5.353  0.00  0.00    +0.001 A 
ATOM     17  C   UNL     1      -1.695  -5.266  -6.508  0.00  0.00    +0.000 A 
ATOM     18  C   UNL     1      -2.349  -4.452  -7.416  0.00  0.00    +0.001 A 
ATOM     19  C   UNL     1      -2.469  -3.100  -7.174  0.00  0.00    +0.013 A 
ENDBRANCH  11  14
ENDBRANCH   2  10
BRANCH   1  20
ATOM     20  C   UNL     1       0.334   1.109  -2.879  0.00  0.00    +0.035 C 
BRANCH  20  27
ATOM     21  C   UNL     1       0.198   1.890   2.781  0.00  0.00    +0.007 C 
ATOM     22  C   UNL     1       0.207   1.249   1.392  0.00  0.00    -0.018 C 
ATOM     23  C   UNL     1      -0.990   1.761   0.585  0.00  0.00    -0.015 C 
ATOM     24  C   UNL     1      -0.942   1.163  -0.823  0.00  0.00    -0.077 C 
ATOM     25  C   UNL     1       1.476   1.028  -0.746  0.00  0.00    -0.077 C 
ATOM     26  C   UNL     1       1.501   1.622   0.664  0.00  0.00    -0.015 C 
ATOM     27  N   UNL     1       0.316   1.579  -1.478  0.00  0.00    +0.389 N 
ATOM     28  H   UNL     1       0.373   2.604  -1.470  0.00  0.00    -0.080 HD
ENDBRANCH  20  27
BRANCH  20  29
ATOM     29  C   UNL     1       1.530   1.706  -3.576  0.00  0.00    -0.018 A 
ATOM     30  C   UNL     1       2.065   2.900  -3.130  0.00  0.00    +0.005 A 
ATOM     31  C   UNL     1       3.161   3.448  -3.769  0.00  0.00    +0.000 A 
ATOM     32  C   UNL     1       3.724   2.802  -4.854  0.00  0.00    +0.003 A 
ATOM     33  C   UNL     1       3.191   1.609  -5.302  0.00  0.00    +0.038 A 
ATOM     34  C   UNL     1       2.095   1.057  -4.660  0.00  0.00    +0.125 A 
ATOM     35  F   UNL     1       1.577  -0.113  -5.093  0.00  0.00    -0.205 F 
ENDBRANCH  20  29
ENDBRANCH   1  20
TORSDOF 5
