REMARK  Name = ZINC59266673
REMARK  8 active torsions:
REMARK  status: ('A' for Active; 'I' for Inactive)
REMARK    1  A    between atoms: C_1  and  C_2
REMARK    2  A    between atoms: C_5  and  C_35
REMARK    3  A    between atoms: C_10  and  C_12
REMARK    4  A    between atoms: C_12  and  O_13
REMARK    5  A    between atoms: O_13  and  C_14
REMARK    6  A    between atoms: C_14  and  C_16
REMARK    7  A    between atoms: C_21  and  C_22
REMARK    8  A    between atoms: C_22  and  C_23
REMARK                            x       y       z     vdW  Elec       q    Type
REMARK                         _______ _______ _______ _____ _____    ______ ____
ROOT
ATOM      1  C   UNL     1       6.496  -3.654   1.977  0.00  0.00    +0.063 A 
ATOM      2  C   UNL     1       6.201  -5.012   2.108  0.00  0.00    +0.015 A 
ATOM      3  C   UNL     1       7.211  -5.947   2.006  0.00  0.00    +0.001 A 
ATOM      4  C   UNL     1       8.513  -5.540   1.775  0.00  0.00    +0.000 A 
ATOM      5  C   UNL     1       8.812  -4.196   1.645  0.00  0.00    +0.005 A 
ATOM      6  C   UNL     1       7.811  -3.251   1.738  0.00  0.00    -0.026 A 
ENDROOT
BRANCH   1   7
ATOM      7  C   UNL     1       5.420  -2.647   2.084  0.00  0.00    +0.340 C 
ATOM      8  O   UNL     1       5.692  -1.463   2.067  0.00  0.00    -0.245 OA
BRANCH   7   9
ATOM      9  O   UNL     1       4.138  -3.042   2.201  0.00  0.00    -0.452 OA
BRANCH   9  10
ATOM     10  C   UNL     1       3.149  -2.015   2.300  0.00  0.00    +0.328 C 
BRANCH  10  18
ATOM     11  C   UNL     1      -0.095   1.703   1.522  0.00  0.00    +0.009 C 
ATOM     12  C   UNL     1      -0.107   0.175   1.448  0.00  0.00    +0.004 C 
ATOM     13  C   UNL     1      -1.532  -0.336   1.674  0.00  0.00    +0.009 C 
ATOM     14  C   UNL     1      -1.551  -1.863   1.568  0.00  0.00    +0.004 C 
ATOM     15  C   UNL     1      -0.646  -2.457   2.651  0.00  0.00    +0.111 C 
ATOM     16  N   UNL     1       0.691  -1.861   2.531  0.00  0.00    -0.298 N 
ATOM     17  C   UNL     1       0.815  -0.397   2.530  0.00  0.00    +0.111 C 
ATOM     18  C   UNL     1       1.784  -2.642   2.423  0.00  0.00    +0.253 C 
ATOM     19  O   UNL     1       1.669  -3.849   2.426  0.00  0.00    -0.272 OA
ATOM     20  C   UNL     1      -2.982  -2.370   1.761  0.00  0.00    +0.009 C 
ENDBRANCH  10  18
ENDBRANCH   9  10
ENDBRANCH   7   9
ENDBRANCH   1   7
BRANCH   6  21
ATOM     21  C   UNL     1       8.138  -1.788   1.589  0.00  0.00    +0.110 C 
BRANCH  21  22
ATOM     22  C   UNL     1       8.233  -1.153   2.952  0.00  0.00    +0.115 A 
ATOM     23  N   UNL     1       8.517   0.174   3.027  0.00  0.00    -0.310 N 
ATOM     24  H   UNL     1       8.652   0.683   2.212  0.00  0.00    +0.170 HD
ATOM     25  C   UNL     1       8.613   0.792   4.227  0.00  0.00    +0.259 A 
ATOM     26  O   UNL     1       8.865   1.980   4.309  0.00  0.00    -0.267 OA
ATOM     27  C   UNL     1       8.399  -0.028   5.429  0.00  0.00    +0.065 A 
ATOM     28  C   UNL     1       8.476   0.510   6.712  0.00  0.00    +0.015 A 
ATOM     29  C   UNL     1       8.267  -0.304   7.803  0.00  0.00    +0.001 A 
ATOM     30  C   UNL     1       7.982  -1.653   7.634  0.00  0.00    +0.002 A 
ATOM     31  C   UNL     1       7.902  -2.204   6.375  0.00  0.00    +0.028 A 
ATOM     32  C   UNL     1       8.109  -1.399   5.253  0.00  0.00    +0.078 A 
ATOM     33  N   UNL     1       8.035  -1.900   3.995  0.00  0.00    -0.233 NA
ENDBRANCH  21  22
ENDBRANCH   6  21
TORSDOF 6
