REMARK  Name = ZINC13007699
REMARK  6 active torsions:
REMARK  status: ('A' for Active; 'I' for Inactive)
REMARK    1  A    between atoms: C_1  and  N_2
REMARK    2  A    between atoms: C_9  and  C_11
REMARK    3  A    between atoms: C_11  and  C_13
REMARK    4  A    between atoms: C_11  and  N_70
REMARK    5  A    between atoms: C_13  and  N_14
REMARK    6  A    between atoms: C_15  and  C_17
REMARK                            x       y       z     vdW  Elec       q    Type
REMARK                         _______ _______ _______ _____ _____    ______ ____
ROOT
ATOM      1  C   UNL     1      -7.158   1.431   2.335  0.00  0.00    -0.020 C 
ENDROOT
BRANCH   1  10
ATOM      2  C   UNL     1     -12.397  -2.008   3.918  0.00  0.00    +0.129 C 
ATOM      3  N   UNL     1     -12.162  -1.210   2.708  0.00  0.00    -0.332 N 
ATOM      4  C   UNL     1     -13.095  -0.064   2.639  0.00  0.00    +0.109 C 
ATOM      5  C   UNL     1     -12.265   1.004   1.892  0.00  0.00    +0.056 C 
ATOM      6  C   UNL     1     -10.838   0.601   2.205  0.00  0.00    -0.025 A 
ATOM      7  C   UNL     1     -10.857  -0.703   2.687  0.00  0.00    +0.033 A 
ATOM      8  C   UNL     1      -9.656  -1.305   3.059  0.00  0.00    +0.023 A 
ATOM      9  C   UNL     1      -8.468  -0.616   2.940  0.00  0.00    +0.004 A 
ATOM     10  C   UNL     1      -8.459   0.681   2.461  0.00  0.00    -0.059 A 
ATOM     11  C   UNL     1      -9.647   1.288   2.092  0.00  0.00    +0.007 A 
ENDBRANCH   1  10
BRANCH   1  17
ATOM     12  C   UNL     1      -6.995   1.504   4.749  0.00  0.00    -0.078 C 
ATOM     13  C   UNL     1      -6.149   1.057   5.943  0.00  0.00    -0.019 C 
ATOM     14  C   UNL     1      -4.779   1.738   5.874  0.00  0.00    -0.004 C 
ATOM     15  C   UNL     1      -4.109   1.385   4.543  0.00  0.00    -0.019 C 
ATOM     16  C   UNL     1      -5.015   1.821   3.390  0.00  0.00    -0.078 C 
ATOM     17  N   UNL     1      -6.308   1.113   3.501  0.00  0.00    +0.385 N 
ATOM     18  H   UNL     1      -6.132   0.101   3.519  0.00  0.00    -0.081 HD
ENDBRANCH   1  17
BRANCH   1  19
ATOM     19  C   UNL     1      -6.437   0.991   1.060  0.00  0.00    +0.093 C 
BRANCH  19  20
ATOM     20  N   UNL     1      -7.243   1.355  -0.108  0.00  0.00    -0.316 N 
ATOM     21  C   UNL     1      -6.856   0.971  -1.341  0.00  0.00    +0.219 C 
ATOM     22  O   UNL     1      -5.841   0.323  -1.483  0.00  0.00    -0.275 OA
ATOM     23  H   UNL     1      -8.055   1.874   0.006  0.00  0.00    +0.149 HD
BRANCH  21  24
ATOM     24  C   UNL     1      -7.686   1.346  -2.542  0.00  0.00    +0.048 C 
ATOM     25  C   UNL     1      -7.030   0.791  -3.808  0.00  0.00    +0.019 C 
ATOM     26  C   UNL     1      -7.872   1.172  -5.027  0.00  0.00    -0.009 C 
ATOM     27  C   UNL     1      -7.964   2.696  -5.127  0.00  0.00    +0.007 C 
ATOM     28  C   UNL     1      -8.619   3.251  -3.861  0.00  0.00    -0.009 C 
ATOM     29  C   UNL     1      -7.778   2.870  -2.642  0.00  0.00    +0.019 C 
ATOM     30  C   UNL     1     -10.025   2.664  -3.715  0.00  0.00    +0.007 C 
ATOM     31  C   UNL     1      -9.932   1.140  -3.615  0.00  0.00    -0.009 C 
ATOM     32  C   UNL     1      -9.277   0.584  -4.880  0.00  0.00    +0.007 C 
ATOM     33  C   UNL     1      -9.091   0.759  -2.395  0.00  0.00    +0.019 C 
ENDBRANCH  21  24
ENDBRANCH  19  20
ENDBRANCH   1  19
TORSDOF 5
