REMARK  Name = ZINC39465910
REMARK  7 active torsions:
REMARK  status: ('A' for Active; 'I' for Inactive)
REMARK    1  A    between atoms: C_1  and  S_2
REMARK    2  A    between atoms: S_2  and  C_3
REMARK    3  A    between atoms: C_8  and  C_9
REMARK    4  A    between atoms: C_9  and  C_10
REMARK    5  A    between atoms: P_20  and  S_26
REMARK    6  A    between atoms: S_26  and  O_29
REMARK    7  A    between atoms: O_29  and  C_30
REMARK                            x       y       z     vdW  Elec       q    Type
REMARK                         _______ _______ _______ _____ _____    ______ ____
ROOT
ATOM      1  C   UNL     1       0.877  -0.427   1.472  0.00  0.00    +0.011 A 
ATOM      2  C   UNL     1       1.350   0.571   2.314  0.00  0.00    +0.019 A 
ATOM      3  C   UNL     1       2.037   0.240   3.470  0.00  0.00    -0.040 A 
ATOM      4  C   UNL     1       2.255  -1.084   3.789  0.00  0.00    -0.023 A 
ATOM      5  C   UNL     1       1.781  -2.082   2.948  0.00  0.00    +0.010 A 
ATOM      6  C   UNL     1       1.092  -1.760   1.798  0.00  0.00    -0.029 A 
ATOM      7  C   UNL     1       2.998  -1.495   5.033  0.00  0.00    +0.129 C 
ATOM      8  C   UNL     1       2.272  -2.678   5.681  0.00  0.00    +0.195 C 
ATOM      9  O   UNL     1       3.051  -3.140   6.802  0.00  0.00    -0.296 OA
ATOM     10  P   UNL     1       3.557  -2.044   7.893  0.00  0.00    +0.458 P 
ATOM     11  O   UNL     1       2.470  -1.734   8.848  0.00  0.00    -0.243 OA
ATOM     12  N   UNL     1       3.953  -0.697   7.020  0.00  0.00    -0.158 NA
ATOM     13  N   UNL     1       3.103  -0.383   5.978  0.00  0.00    -0.224 NA
ATOM     14  C   UNL     1       3.591   0.832   5.308  0.00  0.00    +0.108 C 
ATOM     15  C   UNL     1       2.531   1.355   4.356  0.00  0.00    +0.052 C 
ATOM     16  H   UNL     1       4.730  -0.159   7.236  0.00  0.00    +0.152 HD
ENDROOT
BRANCH  10  17
ATOM     17  S   UNL     1       5.255  -2.774   8.930  0.00  0.00    +0.211 S 
ATOM     18  O   UNL     1       6.208  -3.141   7.942  0.00  0.00    -0.126 OA
ATOM     19  O   UNL     1       5.543  -1.831   9.953  0.00  0.00    -0.126 OA
BRANCH  17  20
ATOM     20  O   UNL     1       4.837  -4.060   9.630  0.00  0.00    -0.339 OA
BRANCH  20  21
ATOM     21  C   UNL     1       4.709  -5.126   8.796  0.00  0.00    +0.157 A 
ATOM     22  C   UNL     1       3.490  -5.389   8.188  0.00  0.00    +0.048 A 
ATOM     23  C   UNL     1       3.363  -6.473   7.341  0.00  0.00    +0.004 A 
ATOM     24  C   UNL     1       4.448  -7.295   7.100  0.00  0.00    +0.000 A 
ATOM     25  C   UNL     1       5.663  -7.036   7.706  0.00  0.00    +0.004 A 
ATOM     26  C   UNL     1       5.798  -5.949   8.549  0.00  0.00    +0.048 A 
ENDBRANCH  20  21
ENDBRANCH  17  20
ENDBRANCH  10  17
BRANCH   1  28
ATOM     27  C   UNL     1      -0.022   1.810   0.012  0.00  0.00    +0.090 C 
ATOM     28  S   UNL     1       0.002  -0.004   0.002  0.00  0.00    -0.128 S 
ENDBRANCH   1  28
BRANCH   6  29
ATOM     29  C   UNL     1       0.578  -2.851   0.895  0.00  0.00    +0.071 C 
BRANCH  29  30
ATOM     30  C   UNL     1      -0.892  -3.066   1.152  0.00  0.00    -0.043 A 
ATOM     31  C   UNL     1      -1.301  -3.975   2.109  0.00  0.00    +0.004 A 
ATOM     32  C   UNL     1      -2.649  -4.172   2.345  0.00  0.00    +0.000 A 
ATOM     33  C   UNL     1      -3.588  -3.458   1.624  0.00  0.00    +0.000 A 
ATOM     34  C   UNL     1      -3.179  -2.547   0.668  0.00  0.00    +0.000 A 
ATOM     35  C   UNL     1      -1.831  -2.348   0.435  0.00  0.00    +0.004 A 
ENDBRANCH  29  30
ENDBRANCH   6  29
TORSDOF 6
