REMARK  Name = ZINC14254232
REMARK  9 active torsions:
REMARK  status: ('A' for Active; 'I' for Inactive)
REMARK    1  A    between atoms: C_1  and  C_2
REMARK    2  A    between atoms: C_3  and  C_16
REMARK    3  A    between atoms: C_4  and  C_15
REMARK    4  A    between atoms: N_5  and  C_7
REMARK    5  A    between atoms: C_16  and  N_65
REMARK    6  A    between atoms: C_17  and  N_65
REMARK    7  A    between atoms: C_18  and  C_19
REMARK    8  A    between atoms: C_18  and  N_65
REMARK    9  A    between atoms: N_21  and  N_22
REMARK                            x       y       z     vdW  Elec       q    Type
REMARK                         _______ _______ _______ _____ _____    ______ ____
ROOT
ATOM      1  C   UNL     1       0.104   1.297   2.417  0.00  0.00    +0.020 C 
ENDROOT
BRANCH   1   2
ATOM      2  C   UNL     1      -0.508   2.007   3.597  0.00  0.00    +0.213 C 
ATOM      3  O   UNL     1      -1.515   2.666   3.453  0.00  0.00    -0.276 OA
ATOM      4  N   UNL     1       0.065   1.909   4.814  0.00  0.00    -0.225 N 
ATOM      5  H   UNL     1       0.870   1.381   4.929  0.00  0.00    +0.173 HD
BRANCH   4   6
ATOM      6  N   UNL     1      -0.504   2.569   5.911  0.00  0.00    -0.137 N 
ATOM      7  C   UNL     1      -0.000   3.690   6.466  0.00  0.00    +0.263 C 
ATOM      8  O   UNL     1       0.994   4.295   6.125  0.00  0.00    -0.271 OA
ATOM      9  C   UNL     1      -0.936   4.034   7.602  0.00  0.00    +0.114 C 
ATOM     10  C   UNL     1      -0.187   4.010   8.929  0.00  0.00    +0.035 C 
ATOM     11  C   UNL     1      -1.158   4.323  10.071  0.00  0.00    +0.003 C 
ATOM     12  C   UNL     1      -1.783   5.701   9.843  0.00  0.00    +0.000 C 
ATOM     13  C   UNL     1      -2.549   5.704   8.519  0.00  0.00    +0.003 C 
ATOM     14  C   UNL     1      -1.582   5.396   7.372  0.00  0.00    +0.035 C 
ATOM     15  N   UNL     1      -1.949   2.971   7.564  0.00  0.00    -0.284 N 
ATOM     16  C   UNL     1      -1.613   2.162   6.542  0.00  0.00    +0.326 C 
ATOM     17  O   UNL     1      -2.245   1.172   6.227  0.00  0.00    -0.251 OA
ATOM     18  H   UNL     1      -2.710   2.872   8.157  0.00  0.00    +0.151 HD
ENDBRANCH   4   6
ENDBRANCH   1   2
BRANCH   1  20
ATOM     19  C   UNL     1      -2.034   0.955   1.335  0.00  0.00    -0.095 C 
ATOM     20  N   UNL     1      -0.704   1.588   1.214  0.00  0.00    +0.386 N 
ATOM     21  H   UNL     1      -0.824   2.604   1.131  0.00  0.00    -0.081 HD
BRANCH  20  22
ATOM     22  C   UNL     1      -0.013   1.086   0.008  0.00  0.00    -0.039 C 
BRANCH  22  25
ATOM     23  C   UNL     1       0.538   3.816  -1.504  0.00  0.00    +0.068 C 
ATOM     24  C   UNL     1      -0.499   2.790  -1.881  0.00  0.00    +0.062 A 
ATOM     25  C   UNL     1      -0.742   1.585  -1.213  0.00  0.00    -0.021 A 
ATOM     26  C   UNL     1      -1.742   0.944  -1.860  0.00  0.00    +0.038 A 
ATOM     27  N   UNL     1      -2.126   1.720  -2.896  0.00  0.00    -0.263 N 
ATOM     28  N   UNL     1      -1.328   2.872  -2.890  0.00  0.00    -0.176 NA
ATOM     29  C   UNL     1      -2.327  -0.394  -1.489  0.00  0.00    +0.065 C 
BRANCH  27  30
ATOM     30  C   UNL     1      -3.185   1.410  -3.859  0.00  0.00    +0.130 C 
ATOM     31  C   UNL     1      -4.268   2.500  -3.808  0.00  0.00    +0.051 C 
ATOM     32  C   UNL     1      -5.215   2.361  -5.025  0.00  0.00    +0.168 C 
ATOM     33  S   UNL     1      -4.128   1.595  -6.296  0.00  0.00    -0.029 S 
ATOM     34  O   UNL     1      -4.643   0.314  -6.633  0.00  0.00    -0.174 OA
ATOM     35  O   UNL     1      -3.882   2.543  -7.326  0.00  0.00    -0.174 OA
ATOM     36  C   UNL     1      -2.594   1.381  -5.298  0.00  0.00    +0.192 C 
ENDBRANCH  27  30
ENDBRANCH  22  25
ENDBRANCH  20  22
ENDBRANCH   1  20
TORSDOF 6
