REMARK  Name = ZINC12756329
REMARK  8 active torsions:
REMARK  status: ('A' for Active; 'I' for Inactive)
REMARK    1  A    between atoms: C_1  and  C_2
REMARK    2  A    between atoms: C_5  and  C_31
REMARK    3  A    between atoms: C_6  and  N_8
REMARK    4  A    between atoms: C_9  and  C_11
REMARK    5  A    between atoms: C_11  and  C_13
REMARK    6  A    between atoms: C_11  and  N_61
REMARK    7  A    between atoms: C_16  and  C_19
REMARK    8  A    between atoms: C_19  and  C_21
REMARK                            x       y       z     vdW  Elec       q    Type
REMARK                         _______ _______ _______ _____ _____    ______ ____
ROOT
ATOM      1  C   UNL     1      -7.428  -0.208  -0.506  0.00  0.00    -0.077 C 
ATOM      2  C   UNL     1      -6.087  -0.942  -0.577  0.00  0.00    -0.007 C 
ATOM      3  C   UNL     1      -4.993  -0.055   0.023  0.00  0.00    +0.057 C 
ATOM      4  C   UNL     1      -5.367   0.299   1.465  0.00  0.00    -0.007 C 
ATOM      5  C   UNL     1      -6.729   0.997   1.477  0.00  0.00    -0.077 C 
ATOM      6  N   UNL     1      -7.742   0.082   0.909  0.00  0.00    +0.387 N 
ATOM      7  H   UNL     1      -7.731  -0.797   1.440  0.00  0.00    -0.081 HD
ENDROOT
BRANCH   6   8
ATOM      8  C   UNL     1      -9.085   0.689   1.014  0.00  0.00    +0.016 C 
ATOM      9  C   UNL     1      -9.123   2.039   0.295  0.00  0.00    -0.004 C 
BRANCH   8  11
ATOM     10  N   UNL     1     -10.609   1.409   2.824  0.00  0.00    -0.287 N 
ATOM     11  C   UNL     1      -9.419   0.885   2.470  0.00  0.00    +0.203 C 
ATOM     12  O   UNL     1      -8.617   0.572   3.324  0.00  0.00    -0.277 OA
ATOM     13  H   UNL     1     -11.218   1.734   2.142  0.00  0.00    +0.155 HD
BRANCH  10  19
ATOM     14  C   UNL     1     -10.147  -0.263   7.424  0.00  0.00    +0.044 C 
ATOM     15  C   UNL     1     -10.758   0.686   6.426  0.00  0.00    -0.049 A 
ATOM     16  C   UNL     1     -11.673   1.635   6.846  0.00  0.00    +0.004 A 
ATOM     17  C   UNL     1     -12.236   2.508   5.933  0.00  0.00    +0.005 A 
ATOM     18  C   UNL     1     -11.881   2.439   4.600  0.00  0.00    -0.029 A 
ATOM     19  C   UNL     1     -10.967   1.485   4.175  0.00  0.00    +0.036 A 
ATOM     20  C   UNL     1     -10.403   0.609   5.094  0.00  0.00    +0.027 A 
ATOM     21  C   UNL     1     -12.490   3.396   3.607  0.00  0.00    +0.045 C 
ENDBRANCH  10  19
ENDBRANCH   8  11
ENDBRANCH   6   8
BRANCH   3  22
ATOM     22  C   UNL     1      -3.680  -0.796   0.011  0.00  0.00    +0.166 C 
ATOM     23  O   UNL     1      -3.669  -2.009   0.011  0.00  0.00    -0.292 OA
BRANCH  22  24
ATOM     24  C   UNL     1      -2.416  -0.049  -0.000  0.00  0.00    +0.021 A 
ATOM     25  C   UNL     1      -2.426   1.351  -0.001  0.00  0.00    +0.015 A 
ATOM     26  C   UNL     1      -1.239   2.047  -0.017  0.00  0.00    +0.050 A 
ATOM     27  C   UNL     1      -0.026   1.365  -0.026  0.00  0.00    +0.162 A 
ATOM     28  C   UNL     1      -0.008  -0.028  -0.023  0.00  0.00    +0.163 A 
ATOM     29  C   UNL     1      -1.195  -0.735  -0.012  0.00  0.00    +0.060 A 
ATOM     30  O   UNL     1       1.171  -0.709  -0.031  0.00  0.00    -0.485 OA
ATOM     31  C   UNL     1       2.336   0.027  -0.420  0.00  0.00    +0.270 C 
ATOM     32  C   UNL     1       2.325   1.370   0.323  0.00  0.00    +0.270 C 
ATOM     33  O   UNL     1       1.133   2.075  -0.042  0.00  0.00    -0.485 OA
ENDBRANCH  22  24
ENDBRANCH   3  22
TORSDOF 5
