REMARK  Name = ZINC28290359
REMARK  7 active torsions:
REMARK  status: ('A' for Active; 'I' for Inactive)
REMARK    1  A    between atoms: C_1  and  C_2
REMARK    2  A    between atoms: C_9  and  C_14
REMARK    3  A    between atoms: C_12  and  C_13
REMARK    4  A    between atoms: N_16  and  C_17
REMARK    5  A    between atoms: C_17  and  C_18
REMARK    6  A    between atoms: C_18  and  C_20
REMARK    7  A    between atoms: C_18  and  N_27
REMARK                            x       y       z     vdW  Elec       q    Type
REMARK                         _______ _______ _______ _____ _____    ______ ____
ROOT
ATOM      1  C   UNL     1       5.255  -2.900   0.390  0.00  0.00    +0.279 C 
ATOM      2  O   UNL     1       5.479  -4.090   0.295  0.00  0.00    -0.267 OA
ATOM      3  N   UNL     1       6.261  -2.012   0.267  0.00  0.00    -0.310 N 
ATOM      4  H   UNL     1       6.058  -0.934   0.353  0.00  0.00    +0.149 HD
ENDROOT
BRANCH   1  13
ATOM      5  C   UNL     1       0.843   2.822   1.400  0.00  0.00    +0.044 C 
ATOM      6  C   UNL     1       1.018   1.328   1.297  0.00  0.00    -0.044 A 
ATOM      7  C   UNL     1      -0.085   0.497   1.439  0.00  0.00    +0.004 A 
ATOM      8  C   UNL     1       0.056  -0.860   1.348  0.00  0.00    +0.015 A 
ATOM      9  C   UNL     1       1.316  -1.409   1.113  0.00  0.00    +0.064 A 
ATOM     10  C   UNL     1       1.510  -2.868   1.009  0.00  0.00    +0.193 A 
ATOM     11  O   UNL     1       0.580  -3.646   1.124  0.00  0.00    -0.287 OA
ATOM     12  C   UNL     1       2.882  -3.339   0.760  0.00  0.00    +0.103 A 
ATOM     13  C   UNL     1       3.873  -2.424   0.640  0.00  0.00    +0.193 A 
ATOM     14  O   UNL     1       3.655  -1.105   0.741  0.00  0.00    -0.450 OA
ATOM     15  C   UNL     1       2.437  -0.574   0.968  0.00  0.00    +0.143 A 
ATOM     16  C   UNL     1       2.271   0.804   1.063  0.00  0.00    -0.005 A 
ATOM     17  C   UNL     1       3.457   1.721   0.913  0.00  0.00    +0.048 C 
ENDBRANCH   1  13
BRANCH   3  18
ATOM     18  C   UNL     1       7.626  -2.482   0.019  0.00  0.00    +0.094 C 
BRANCH  18  19
ATOM     19  C   UNL     1       8.546  -1.280  -0.207  0.00  0.00    -0.019 C 
BRANCH  19  20
ATOM     20  C   UNL     1       8.139  -0.566  -1.469  0.00  0.00    -0.041 A 
ATOM     21  C   UNL     1       7.364   0.577  -1.398  0.00  0.00    +0.003 A 
ATOM     22  C   UNL     1       6.994   1.234  -2.556  0.00  0.00    +0.000 A 
ATOM     23  C   UNL     1       7.390   0.744  -3.787  0.00  0.00    +0.001 A 
ATOM     24  C   UNL     1       8.160  -0.401  -3.860  0.00  0.00    +0.020 A 
ATOM     25  C   UNL     1       8.535  -1.057  -2.700  0.00  0.00    +0.043 A 
ATOM     26 CL   UNL     1       9.502  -2.496  -2.791  0.00  0.00    -0.083 Cl
ENDBRANCH  19  20
BRANCH  19  27
ATOM     27  N   UNL     1       8.439  -0.360   0.933  0.00  0.00    +0.385 N 
ATOM     28  C   UNL     1       8.712  -1.063   2.213  0.00  0.00    -0.078 C 
ATOM     29  C   UNL     1       9.074   0.091   3.181  0.00  0.00    -0.020 C 
ATOM     30  C   UNL     1       9.876   1.059   2.281  0.00  0.00    -0.020 C 
ATOM     31  C   UNL     1       9.447   0.718   0.841  0.00  0.00    -0.078 C 
ATOM     32  H   UNL     1       7.415   0.042   0.898  0.00  0.00    -0.081 HD
ENDBRANCH  19  27
ENDBRANCH  18  19
ENDBRANCH   3  18
TORSDOF 5
