REMARK  Name = ZINC33069424
REMARK  12 active torsions:
REMARK  status: ('A' for Active; 'I' for Inactive)
REMARK    1  A    between atoms: C_1  and  C_2
REMARK    2  A    between atoms: C_5  and  C_36
REMARK    3  A    between atoms: C_6  and  C_8
REMARK    4  A    between atoms: C_8  and  N_9
REMARK    5  A    between atoms: C_10  and  C_12
REMARK    6  A    between atoms: N_15  and  C_18
REMARK    7  A    between atoms: C_19  and  N_30
REMARK    8  A    between atoms: C_20  and  C_29
REMARK    9  A    between atoms: N_22  and  C_23
REMARK   10  A    between atoms: C_31  and  C_33
REMARK   11  A    between atoms: C_33  and  C_34
REMARK   12  A    between atoms: C_33  and  C_35
REMARK                            x       y       z     vdW  Elec       q    Type
REMARK                         _______ _______ _______ _____ _____    ______ ____
ROOT
ATOM      1  C   UNL     1       3.502   1.823  -7.219  0.00  0.00    +0.078 C 
ATOM      2  C   UNL     1       2.988   3.050  -6.461  0.00  0.00    +0.031 C 
ATOM      3  C   UNL     1       4.137   3.668  -5.661  0.00  0.00    +0.107 C 
ATOM      4  N   UNL     1       5.221   4.053  -6.574  0.00  0.00    -0.314 N 
ATOM      5  C   UNL     1       5.762   2.883  -7.278  0.00  0.00    +0.107 C 
ATOM      6  C   UNL     1       4.662   2.242  -8.127  0.00  0.00    +0.031 C 
ENDROOT
BRANCH   4   7
ATOM      7  C   UNL     1       6.228   4.737  -5.895  0.00  0.00    +0.147 A 
ATOM      8  C   UNL     1       6.984   4.252  -4.867  0.00  0.00    +0.097 A 
ATOM      9  C   UNL     1       7.874   5.261  -4.477  0.00  0.00    +0.083 A 
ATOM     10  N   UNL     1       7.668   6.311  -5.232  0.00  0.00    -0.168 NA
ATOM     11  N   UNL     1       6.643   6.013  -6.138  0.00  0.00    -0.216 N 
ATOM     12  C   UNL     1       8.895   5.156  -3.374  0.00  0.00    +0.069 C 
BRANCH  11  13
ATOM     13  C   UNL     1       6.131   6.874  -7.119  0.00  0.00    +0.067 A 
ATOM     14  C   UNL     1       5.734   6.369  -8.349  0.00  0.00    +0.028 A 
ATOM     15  C   UNL     1       5.226   7.219  -9.312  0.00  0.00    +0.002 A 
ATOM     16  C   UNL     1       5.123   8.574  -9.055  0.00  0.00    +0.000 A 
ATOM     17  C   UNL     1       5.523   9.081  -7.832  0.00  0.00    +0.002 A 
ATOM     18  C   UNL     1       6.027   8.235  -6.864  0.00  0.00    +0.028 A 
ENDBRANCH  11  13
BRANCH   8  19
ATOM     19  N   UNL     1       6.887   2.964  -4.300  0.00  0.00    -0.281 N 
ATOM     20  C   UNL     1       7.971   2.165  -4.252  0.00  0.00    +0.220 C 
ATOM     21  O   UNL     1       9.044   2.575  -4.642  0.00  0.00    -0.275 OA
ATOM     22  H   UNL     1       5.926   2.611  -3.896  0.00  0.00    +0.155 HD
BRANCH  20  23
ATOM     23  C   UNL     1       7.851   0.762  -3.715  0.00  0.00    +0.069 C 
ATOM     24  C   UNL     1       6.849  -0.025  -4.562  0.00  0.00    +0.017 C 
ATOM     25  C   UNL     1       9.217   0.075  -3.771  0.00  0.00    +0.017 C 
ENDBRANCH  20  23
ENDBRANCH   8  19
ENDBRANCH   4   7
BRANCH   1  27
ATOM     26  N   UNL     1       1.259   0.810  -7.467  0.00  0.00    -0.311 N 
ATOM     27  C   UNL     1       2.390   1.246  -8.057  0.00  0.00    +0.216 C 
ATOM     28  O   UNL     1       2.513   1.174  -9.261  0.00  0.00    -0.276 OA
ATOM     29  H   UNL     1       1.148   0.876  -6.375  0.00  0.00    +0.149 HD
BRANCH  26  30
ATOM     30  C   UNL     1       0.178   0.249  -8.281  0.00  0.00    +0.139 C 
BRANCH  30  36
ATOM     31  C   UNL     1      -2.342  -3.307  -5.823  0.00  0.00    +0.044 C 
ATOM     32  C   UNL     1      -2.170  -1.861  -6.211  0.00  0.00    -0.050 A 
ATOM     33  C   UNL     1      -3.062  -0.911  -5.751  0.00  0.00    +0.003 A 
ATOM     34  C   UNL     1      -2.904   0.415  -6.107  0.00  0.00    +0.004 A 
ATOM     35  C   UNL     1      -1.853   0.791  -6.923  0.00  0.00    -0.046 A 
ATOM     36  C   UNL     1      -0.964  -0.160  -7.387  0.00  0.00    -0.027 A 
ATOM     37  C   UNL     1      -1.119  -1.485  -7.026  0.00  0.00    +0.008 A 
ATOM     38  C   UNL     1      -1.681   2.237  -7.312  0.00  0.00    +0.044 C 
ENDBRANCH  30  36
ENDBRANCH  26  30
ENDBRANCH   1  27
TORSDOF 7
