REMARK  Name = ZINC05126573
REMARK  3 active torsions:
REMARK  status: ('A' for Active; 'I' for Inactive)
REMARK    1  A    between atoms: C_17  and  C_28
REMARK    2  A    between atoms: C_19  and  O_27
REMARK    3  A    between atoms: N_30  and  N_31
REMARK                            x       y       z     vdW  Elec       q    Type
REMARK                         _______ _______ _______ _____ _____    ______ ____
ROOT
ATOM      1  C   UNL     1       2.935   2.316  -8.960  0.00  0.00    +0.001 A 
ATOM      2  C   UNL     1       4.178   2.523  -8.384  0.00  0.00    +0.002 A 
ATOM      3  C   UNL     1       4.323   2.998  -7.092  0.00  0.00    +0.026 A 
ATOM      4  C   UNL     1       3.154   3.264  -6.382  0.00  0.00    +0.047 A 
ATOM      5  C   UNL     1       1.883   3.051  -6.977  0.00  0.00    +0.003 A 
ATOM      6  C   UNL     1       1.767   2.569  -8.285  0.00  0.00    +0.010 A 
ATOM      7  C   UNL     1       0.908   3.424  -5.977  0.00  0.00    -0.022 A 
ATOM      8  C   UNL     1       1.594   3.821  -4.880  0.00  0.00    +0.006 A 
ATOM      9  N   UNL     1       2.939   3.729  -5.116  0.00  0.00    -0.359 N 
ATOM     10  H   UNL     1       3.634   3.960  -4.481  0.00  0.00    +0.166 HD
ATOM     11  C   UNL     1       0.917   4.287  -3.615  0.00  0.00    -0.020 C 
ATOM     12  C   UNL     1       1.605   3.664  -2.398  0.00  0.00    -0.006 C 
ATOM     13  C   UNL     1       0.880   4.119  -1.129  0.00  0.00    -0.010 C 
ATOM     14  C   UNL     1       1.529   3.478   0.096  0.00  0.00    +0.019 C 
ATOM     15  C   UNL     1       1.418   1.955  -0.001  0.00  0.00    +0.105 C 
ATOM     16  C   UNL     1      -0.058   1.558  -0.064  0.00  0.00    +0.127 C 
ATOM     17  C   UNL     1      -0.702   2.190  -1.299  0.00  0.00    +0.034 C 
ATOM     18  C   UNL     1      -0.593   3.715  -1.212  0.00  0.00    -0.022 C 
ATOM     19  C   UNL     1      -1.216   4.332  -2.469  0.00  0.00    -0.074 C 
ATOM     20  C   UNL     1      -1.148   4.251  -4.898  0.00  0.00    -0.073 C 
ATOM     21  C   UNL     1      -0.597   3.408  -6.057  0.00  0.00    +0.019 C 
ATOM     22  N   UNL     1      -0.485   3.814  -3.645  0.00  0.00    +0.386 N 
ATOM     23  H   UNL     1      -0.488   2.788  -3.611  0.00  0.00    -0.081 HD
ENDROOT
BRANCH  15  24
ATOM     24  C   UNL     1       2.121   1.478  -1.246  0.00  0.00    +0.232 C 
ATOM     25  O   UNL     1       1.564   0.709  -2.000  0.00  0.00    -0.274 OA
ATOM     26  N   UNL     1       3.369   1.905  -1.520  0.00  0.00    -0.253 N 
ATOM     27  H   UNL     1       3.815   2.520  -0.917  0.00  0.00    +0.169 HD
BRANCH  26  28
ATOM     28  N   UNL     1       4.007   1.472  -2.648  0.00  0.00    -0.254 NA
ATOM     29  H   UNL     1       4.929   1.875  -2.720  0.00  0.00    +0.140 HD
ATOM     30  H   UNL     1       4.049   0.465  -2.676  0.00  0.00    +0.140 HD
ENDBRANCH  26  28
ENDBRANCH  15  24
BRANCH  16  31
ATOM     31  O   UNL     1      -0.166   0.135  -0.146  0.00  0.00    -0.391 OA
ATOM     32  H   UNL     1      -1.076  -0.188  -0.190  0.00  0.00    +0.210 HD
ENDBRANCH  16  31
TORSDOF 3
