REMARK  Name = ZINC35999971
REMARK  8 active torsions:
REMARK  status: ('A' for Active; 'I' for Inactive)
REMARK    1  A    between atoms: C_1  and  C_2
REMARK    2  A    between atoms: C_2  and  C_4
REMARK    3  A    between atoms: C_11  and  C_27
REMARK    4  A    between atoms: C_11  and  C_29
REMARK    5  A    between atoms: C_12  and  C_19
REMARK    6  A    between atoms: C_14  and  C_16
REMARK    7  A    between atoms: C_29  and  O_31
REMARK    8  A    between atoms: O_31  and  C_32
REMARK                            x       y       z     vdW  Elec       q    Type
REMARK                         _______ _______ _______ _____ _____    ______ ____
ROOT
ATOM      1  C   UNL     1      -0.844  -1.085   0.079  0.00  0.00    +0.031 C 
ATOM      2  C   UNL     1      -0.996  -2.463  -0.053  0.00  0.00    +0.083 C 
ATOM      3  N   UNL     1      -2.287  -2.903  -0.036  0.00  0.00    -0.315 N 
ATOM      4  C   UNL     1      -3.393  -2.102  -0.599  0.00  0.00    +0.128 C 
ATOM      5  C   UNL     1      -3.247  -0.700  -0.066  0.00  0.00    -0.002 C 
ATOM      6  C   UNL     1      -2.049  -0.249   0.270  0.00  0.00    +0.010 C 
ATOM      7  C   UNL     1      -4.696  -2.763  -0.117  0.00  0.00    +0.184 C 
ATOM      8  C   UNL     1      -4.273  -4.252   0.026  0.00  0.00    +0.083 C 
ATOM      9  C   UNL     1      -2.826  -4.124   0.564  0.00  0.00    +0.169 C 
ENDROOT
BRANCH   8  10
ATOM     10  C   UNL     1      -5.155  -4.970   1.014  0.00  0.00    -0.020 A 
ATOM     11  C   UNL     1      -5.292  -4.482   2.300  0.00  0.00    +0.005 A 
ATOM     12  C   UNL     1      -6.101  -5.140   3.208  0.00  0.00    +0.002 A 
ATOM     13  C   UNL     1      -6.774  -6.287   2.831  0.00  0.00    +0.021 A 
ATOM     14  C   UNL     1      -6.638  -6.777   1.545  0.00  0.00    +0.060 A 
ATOM     15  C   UNL     1      -5.832  -6.115   0.634  0.00  0.00    +0.063 A 
ATOM     16 CL   UNL     1      -5.667  -6.724  -0.984  0.00  0.00    -0.082 Cl
ATOM     17 CL   UNL     1      -7.482  -8.218   1.071  0.00  0.00    -0.082 Cl
ENDBRANCH   8  10
BRANCH   9  18
ATOM     18  C   UNL     1      -2.839  -4.003   2.067  0.00  0.00    +0.232 C 
ATOM     19  O   UNL     1      -2.764  -2.911   2.588  0.00  0.00    -0.274 OA
ATOM     20  N   UNL     1      -2.934  -5.110   2.830  0.00  0.00    -0.328 N 
ATOM     21  H   UNL     1      -2.994  -5.983   2.413  0.00  0.00    +0.145 HD
ATOM     22  H   UNL     1      -2.942  -5.032   3.797  0.00  0.00    +0.145 HD
ENDBRANCH   9  18
BRANCH   1  24
ATOM     23  C   UNL     1       0.591   0.995   0.185  0.00  0.00    +0.091 C 
ATOM     24  C   UNL     1       0.441  -0.497   0.036  0.00  0.00    +0.161 C 
ATOM     25  O   UNL     1       1.423  -1.194  -0.122  0.00  0.00    -0.292 OA
ENDBRANCH   1  24
BRANCH   7  26
ATOM     26  C   UNL     1      -5.115  -2.211   1.181  0.00  0.00    +0.084 C 
ATOM     27  N   UNL     1      -5.438  -1.784   2.183  0.00  0.00    -0.195 NA
ENDBRANCH   7  26
BRANCH   7  28
ATOM     28  C   UNL     1      -5.788  -2.611  -1.144  0.00  0.00    +0.330 C 
ATOM     29  O   UNL     1      -6.283  -3.590  -1.649  0.00  0.00    -0.249 OA
BRANCH  28  30
ATOM     30  O   UNL     1      -6.209  -1.387  -1.499  0.00  0.00    -0.467 OA
ATOM     31  C   UNL     1      -7.247  -1.317  -2.479  0.00  0.00    +0.280 C 
ENDBRANCH  28  30
ENDBRANCH   7  28
TORSDOF 6
