REMARK  Name = ZINC40902005
REMARK  11 active torsions:
REMARK  status: ('A' for Active; 'I' for Inactive)
REMARK    1  A    between atoms: C_1  and  C_2
REMARK    2  A    between atoms: C_2  and  O_3
REMARK    3  A    between atoms: O_3  and  C_4
REMARK    4  A    between atoms: C_4  and  C_6
REMARK    5  A    between atoms: C_10  and  N_11
REMARK    6  A    between atoms: N_11  and  C_12
REMARK    7  A    between atoms: C_12  and  N_14
REMARK    8  A    between atoms: C_15  and  C_17
REMARK    9  A    between atoms: C_17  and  C_18
REMARK   10  A    between atoms: C_18  and  N_19
REMARK   11  A    between atoms: C_31  and  C_35
REMARK                            x       y       z     vdW  Elec       q    Type
REMARK                         _______ _______ _______ _____ _____    ______ ____
ROOT
ATOM      1  C   UNL     1      -1.117  -2.783  -5.127  0.00  0.00    +0.141 C 
ATOM      2  S   UNL     1      -0.099  -3.408  -6.352  0.00  0.00    -0.018 S 
ENDROOT
BRANCH   1   3
ATOM      3  N   UNL     1      -2.434  -2.618  -5.364  0.00  0.00    -0.268 N 
ATOM      4  C   UNL     1      -2.948  -2.946  -6.566  0.00  0.00    +0.220 C 
ATOM      5  O   UNL     1      -2.227  -3.388  -7.434  0.00  0.00    -0.275 OA
ATOM      6  H   UNL     1      -3.011  -2.264  -4.669  0.00  0.00    +0.156 HD
BRANCH   4   7
ATOM      7  C   UNL     1      -4.420  -2.761  -6.830  0.00  0.00    +0.115 C 
BRANCH   7   8
ATOM      8  C   UNL     1      -4.741  -3.206  -8.259  0.00  0.00    +0.126 C 
BRANCH   8   9
ATOM      9  N   UNL     1      -6.172  -3.027  -8.517  0.00  0.00    -0.234 N 
ATOM     10  C   UNL     1      -7.110  -3.962  -8.281  0.00  0.00    +0.254 C 
ATOM     11  O   UNL     1      -6.909  -5.071  -7.829  0.00  0.00    -0.270 OA
ATOM     12  C   UNL     1      -8.428  -3.413  -8.665  0.00  0.00    +0.049 A 
ATOM     13  C   UNL     1      -9.724  -3.904  -8.647  0.00  0.00    +0.014 A 
ATOM     14  C   UNL     1     -10.768  -3.107  -9.090  0.00  0.00    +0.001 A 
ATOM     15  C   UNL     1     -10.525  -1.826  -9.549  0.00  0.00    +0.001 A 
ATOM     16  C   UNL     1      -9.234  -1.321  -9.573  0.00  0.00    +0.014 A 
ATOM     17  C   UNL     1      -8.181  -2.107  -9.134  0.00  0.00    +0.049 A 
ATOM     18  C   UNL     1      -6.721  -1.904  -9.014  0.00  0.00    +0.254 C 
ATOM     19  O   UNL     1      -6.119  -0.894  -9.316  0.00  0.00    -0.270 OA
ENDBRANCH   8   9
ENDBRANCH   7   8
ENDBRANCH   4   7
ENDBRANCH   1   3
BRANCH   1  20
ATOM     20  N   UNL     1      -0.603  -2.455  -3.925  0.00  0.00    -0.290 N 
ATOM     21  H   UNL     1      -1.180  -2.101  -3.230  0.00  0.00    +0.154 HD
BRANCH  20  26
ATOM     22  C   UNL     1       1.449  -2.344  -2.516  0.00  0.00    +0.091 A 
ATOM     23  C   UNL     1       2.876  -2.619  -2.515  0.00  0.00    -0.021 A 
ATOM     24  C   UNL     1       3.342  -3.117  -3.680  0.00  0.00    -0.004 A 
ATOM     25  S   UNL     1       1.922  -3.212  -4.730  0.00  0.00    -0.077 S 
ATOM     26  C   UNL     1       0.750  -2.624  -3.681  0.00  0.00    +0.086 A 
ATOM     27  C   UNL     1       4.757  -3.498  -3.993  0.00  0.00    +0.046 C 
ATOM     28  C   UNL     1       5.669  -2.887  -2.919  0.00  0.00    -0.009 C 
ATOM     29  C   UNL     1       5.082  -3.191  -1.538  0.00  0.00    +0.008 C 
ATOM     30  C   UNL     1       3.799  -2.383  -1.329  0.00  0.00    +0.037 C 
ATOM     31  C   UNL     1       7.069  -3.497  -3.029  0.00  0.00    +0.008 C 
BRANCH  22  32
ATOM     32  C   UNL     1       0.776  -1.800  -1.335  0.00  0.00    +0.342 C 
ATOM     33  O   UNL     1       0.312  -2.552  -0.499  0.00  0.00    -0.245 OA
BRANCH  32  34
ATOM     34  O   UNL     1       0.671  -0.465  -1.174  0.00  0.00    -0.461 OA
BRANCH  34  36
ATOM     35  C   UNL     1      -0.019   1.526   0.010  0.00  0.00    +0.048 C 
ATOM     36  C   UNL     1       0.002  -0.004   0.002  0.00  0.00    +0.229 C 
ENDBRANCH  34  36
ENDBRANCH  32  34
ENDBRANCH  22  32
ENDBRANCH  20  26
ENDBRANCH   1  20
TORSDOF 9
