REMARK  Name = ZINC39637455
REMARK  7 active torsions:
REMARK  status: ('A' for Active; 'I' for Inactive)
REMARK    1  A    between atoms: C_1  and  C_2
REMARK    2  A    between atoms: C_7  and  N_12
REMARK    3  A    between atoms: C_9  and  C_11
REMARK    4  A    between atoms: C_13  and  C_15
REMARK    5  A    between atoms: C_26  and  C_28
REMARK    6  A    between atoms: C_31  and  O_34
REMARK    7  A    between atoms: O_34  and  C_35
REMARK                            x       y       z     vdW  Elec       q    Type
REMARK                         _______ _______ _______ _____ _____    ______ ____
ROOT
ATOM      1  C   UNL     1       0.440  -0.727   5.978  0.00  0.00    +0.100 C 
ATOM      2  C   UNL     1       0.171  -2.121   6.588  0.00  0.00    +0.121 C 
ATOM      3  N   UNL     1       0.345  -1.931   8.048  0.00  0.00    -0.296 N 
ATOM      4  C   UNL     1      -0.259  -0.605   8.321  0.00  0.00    +0.115 C 
ATOM      5  C   UNL     1       0.157   0.265   7.118  0.00  0.00    -0.004 C 
ATOM      6  C   UNL     1       1.415   1.060   7.452  0.00  0.00    -0.010 C 
ATOM      7  C   UNL     1       1.094   2.079   8.549  0.00  0.00    -0.082 C 
ATOM      8  N   UNL     1       0.030   2.979   8.087  0.00  0.00    +0.379 N 
ATOM      9  C   UNL     1      -1.204   2.219   7.857  0.00  0.00    -0.082 C 
ATOM     10  C   UNL     1      -0.980   1.206   6.731  0.00  0.00    -0.010 C 
ATOM     11  C   UNL     1       0.922  -2.773   8.927  0.00  0.00    +0.248 C 
ATOM     12  O   UNL     1       1.491  -3.772   8.529  0.00  0.00    -0.270 OA
ATOM     13  H   UNL     1      -0.138   3.686   8.787  0.00  0.00    -0.086 HD
ATOM     14  H   UNL     1       0.316   3.422   7.227  0.00  0.00    -0.086 HD
ENDROOT
BRANCH  11  15
ATOM     15  C   UNL     1       0.865  -2.483  10.373  0.00  0.00    +0.055 A 
ATOM     16  C   UNL     1      -0.101  -1.603  10.885  0.00  0.00    +0.020 A 
ATOM     17  C   UNL     1      -0.115  -1.364  12.244  0.00  0.00    +0.068 A 
ATOM     18  C   UNL     1       0.821  -1.998  13.056  0.00  0.00    +0.220 A 
ATOM     19  N   UNL     1       1.720  -2.824  12.542  0.00  0.00    -0.220 NA
ATOM     20  C   UNL     1       1.765  -3.085  11.253  0.00  0.00    +0.127 A 
BRANCH  18  21
ATOM     21  O   UNL     1       0.812  -1.768  14.391  0.00  0.00    -0.438 OA
BRANCH  21  22
ATOM     22  C   UNL     1       1.674  -2.476  15.167  0.00  0.00    +0.130 A 
ATOM     23  C   UNL     1       3.012  -2.115  15.227  0.00  0.00    +0.046 A 
ATOM     24  C   UNL     1       3.886  -2.837  16.016  0.00  0.00    +0.004 A 
ATOM     25  C   UNL     1       3.429  -3.918  16.746  0.00  0.00    +0.000 A 
ATOM     26  C   UNL     1       2.095  -4.280  16.688  0.00  0.00    +0.004 A 
ATOM     27  C   UNL     1       1.216  -3.558  15.904  0.00  0.00    +0.046 A 
ENDBRANCH  21  22
ENDBRANCH  18  21
ENDBRANCH  11  15
BRANCH   1  29
ATOM     28  N   UNL     1      -0.093   0.313   3.798  0.00  0.00    -0.312 N 
ATOM     29  C   UNL     1      -0.488  -0.473   4.819  0.00  0.00    +0.218 C 
ATOM     30  O   UNL     1      -1.591  -0.977   4.804  0.00  0.00    -0.275 OA
ATOM     31  H   UNL     1       0.789   0.716   3.810  0.00  0.00    +0.149 HD
BRANCH  28  37
ATOM     32  C   UNL     1      -3.014   2.211   1.334  0.00  0.00    +0.008 C 
ATOM     33  C   UNL     1      -1.571   2.145   0.828  0.00  0.00    -0.009 C 
ATOM     34  C   UNL     1      -1.439   1.010  -0.190  0.00  0.00    +0.003 C 
ATOM     35  C   UNL     1      -1.807  -0.318   0.477  0.00  0.00    +0.002 C 
ATOM     36  C   UNL     1      -0.864  -0.575   1.654  0.00  0.00    +0.022 C 
ATOM     37  C   UNL     1      -0.996   0.560   2.671  0.00  0.00    +0.076 C 
ATOM     38  C   UNL     1      -0.628   1.887   2.005  0.00  0.00    +0.009 C 
ATOM     39  C   UNL     1      -0.760   3.023   3.022  0.00  0.00    +0.009 C 
ENDBRANCH  28  37
ENDBRANCH   1  29
TORSDOF 5
