REMARK  Name = ZINC12630182
REMARK  1 active torsions:
REMARK  status: ('A' for Active; 'I' for Inactive)
REMARK    1  A    between atoms: C_3  and  C_8
REMARK                            x       y       z     vdW  Elec       q    Type
REMARK                         _______ _______ _______ _____ _____    ______ ____
ROOT
ATOM      1  C   UNL     1       3.672   2.186  -0.021  0.00  0.00    +0.209 C 
ATOM      2  N   UNL     1       4.652   1.521  -0.899  0.00  0.00    -0.294 N 
ATOM      3  C   UNL     1       5.384   0.464  -0.427  0.00  0.00    +0.160 C 
ATOM      4  N   UNL     1       5.701   0.361   0.852  0.00  0.00    -0.302 N 
ATOM      5  C   UNL     1       5.230   1.298   1.709  0.00  0.00    +0.213 A 
ATOM      6  N   UNL     1       4.255   2.203   1.325  0.00  0.00    -0.286 N 
ATOM      7  C   UNL     1       3.996   3.025   2.396  0.00  0.00    +0.076 A 
ATOM      8  C   UNL     1       3.148   4.105   2.607  0.00  0.00    +0.077 A 
ATOM      9  C   UNL     1       3.124   4.731   3.839  0.00  0.00    +0.164 A 
ATOM     10  C   UNL     1       3.945   4.287   4.872  0.00  0.00    +0.164 A 
ATOM     11  C   UNL     1       4.794   3.217   4.680  0.00  0.00    +0.079 A 
ATOM     12  C   UNL     1       4.827   2.574   3.438  0.00  0.00    +0.095 A 
ATOM     13  N   UNL     1       5.546   1.514   2.959  0.00  0.00    -0.212 NA
ATOM     14  O   UNL     1       3.905   4.919   6.083  0.00  0.00    -0.488 OA
ATOM     15  C   UNL     1       4.415   6.253   6.109  0.00  0.00    +0.232 C 
ATOM     16  C   UNL     1       3.346   7.247   5.683  0.00  0.00    +0.082 C 
ATOM     17  C   UNL     1       2.925   7.059   4.234  0.00  0.00    +0.232 C 
ATOM     18  O   UNL     1       2.290   5.792   4.051  0.00  0.00    -0.488 OA
ATOM     19  N   UNL     1       5.797  -0.507  -1.299  0.00  0.00    -0.332 N 
ATOM     20  H   UNL     1       5.570  -0.443  -2.240  0.00  0.00    +0.145 HD
ATOM     21  H   UNL     1       6.316  -1.260  -0.976  0.00  0.00    +0.145 HD
ATOM     22  H   UNL     1       4.778   1.831  -1.809  0.00  0.00    +0.151 HD
ATOM     23  H   UNL     1       6.257  -0.367   1.169  0.00  0.00    +0.171 HD
ENDROOT
BRANCH   1  26
ATOM     24  C   UNL     1      -0.017   1.377   0.010  0.00  0.00    +0.003 A 
ATOM     25  C   UNL     1       1.171   2.086   0.002  0.00  0.00    +0.007 A 
ATOM     26  C   UNL     1       2.378   1.413  -0.013  0.00  0.00    -0.004 A 
ATOM     27  C   UNL     1       2.399   0.030  -0.021  0.00  0.00    +0.045 A 
ATOM     28  C   UNL     1       1.211  -0.679  -0.013  0.00  0.00    +0.124 A 
ATOM     29  C   UNL     1       0.002  -0.004   0.002  0.00  0.00    +0.038 A 
ATOM     30  F   UNL     1       1.230  -2.030  -0.022  0.00  0.00    -0.205 F 
ENDBRANCH   1  26
TORSDOF 1
