REMARK  Name = ZINC10494324
REMARK  9 active torsions:
REMARK  status: ('A' for Active; 'I' for Inactive)
REMARK    1  A    between atoms: C_1  and  C_2
REMARK    2  A    between atoms: C_7  and  N_8
REMARK    3  A    between atoms: C_9  and  C_11
REMARK    4  A    between atoms: C_11  and  N_12
REMARK    5  A    between atoms: N_15  and  C_16
REMARK    6  A    between atoms: C_16  and  C_18
REMARK    7  A    between atoms: C_16  and  C_24
REMARK    8  A    between atoms: C_24  and  C_25
REMARK    9  A    between atoms: C_24  and  C_26
REMARK                            x       y       z     vdW  Elec       q    Type
REMARK                         _______ _______ _______ _____ _____    ______ ____
ROOT
ATOM      1  N   UNL     1       2.323   0.998   0.002  0.00  0.00    -0.291 N 
ATOM      2  C   UNL     1       1.147   1.656   0.026  0.00  0.00    +0.300 C 
ATOM      3  O   UNL     1       1.131   2.872   0.041  0.00  0.00    -0.253 OA
ATOM      4  N   UNL     1      -0.011   0.967   0.035  0.00  0.00    -0.292 N 
ATOM      5  H   UNL     1       2.336   0.028  -0.010  0.00  0.00    +0.151 HD
ATOM      6  H   UNL     1       0.002  -0.003   0.024  0.00  0.00    +0.151 HD
ENDROOT
BRANCH   1   7
ATOM      7  C   UNL     1       3.582   1.748  -0.008  0.00  0.00    +0.202 C 
BRANCH   7   9
ATOM      8  N   UNL     1       6.005   1.250  -0.049  0.00  0.00    -0.284 N 
ATOM      9  C   UNL     1       4.740   0.784  -0.036  0.00  0.00    +0.234 C 
ATOM     10  O   UNL     1       4.534  -0.411  -0.047  0.00  0.00    -0.274 OA
ATOM     11  H   UNL     1       6.169   2.203  -0.121  0.00  0.00    +0.155 HD
BRANCH   8  18
ATOM     12  C   UNL     1       8.510   2.053  -1.132  0.00  0.00    +0.046 C 
ATOM     13  C   UNL     1       8.320   0.711  -0.474  0.00  0.00    -0.028 A 
ATOM     14  C   UNL     1       9.381  -0.169  -0.379  0.00  0.00    +0.020 A 
ATOM     15  C   UNL     1       9.206  -1.403   0.220  0.00  0.00    +0.018 A 
ATOM     16  C   UNL     1       7.970  -1.758   0.731  0.00  0.00    +0.017 A 
ATOM     17  C   UNL     1       6.907  -0.881   0.643  0.00  0.00    +0.024 A 
ATOM     18  C   UNL     1       7.080   0.359   0.042  0.00  0.00    +0.036 A 
ATOM     19 BR   UNL     1      10.659  -2.608   0.342  0.00  0.00    -0.050 Br
ENDBRANCH   8  18
ENDBRANCH   7   9
ENDBRANCH   1   7
BRANCH   4  20
ATOM     20  C   UNL     1      -1.289   1.682   0.056  0.00  0.00    +0.107 C 
BRANCH  20  21
ATOM     21  C   UNL     1      -2.362   0.811  -0.544  0.00  0.00    -0.027 A 
ATOM     22  C   UNL     1      -2.385  -0.544  -0.272  0.00  0.00    +0.005 A 
ATOM     23  C   UNL     1      -3.372  -1.342  -0.819  0.00  0.00    +0.000 A 
ATOM     24  C   UNL     1      -4.331  -0.787  -1.646  0.00  0.00    +0.000 A 
ATOM     25  C   UNL     1      -4.304   0.567  -1.923  0.00  0.00    +0.000 A 
ATOM     26  C   UNL     1      -3.320   1.366  -1.372  0.00  0.00    +0.005 A 
ENDBRANCH  20  21
BRANCH  20  27
ATOM     27  C   UNL     1      -1.659   2.024   1.501  0.00  0.00    +0.008 C 
ATOM     28  C   UNL     1      -2.994   2.771   1.522  0.00  0.00    +0.009 C 
ATOM     29  C   UNL     1      -1.783   0.734   2.314  0.00  0.00    +0.009 C 
ENDBRANCH  20  27
ENDBRANCH   4  20
TORSDOF 6
