REMARK  Name = ZINC12083689
REMARK  6 active torsions:
REMARK  status: ('A' for Active; 'I' for Inactive)
REMARK    1  A    between atoms: C_1  and  C_2
REMARK    2  A    between atoms: C_4  and  N_24
REMARK    3  A    between atoms: C_7  and  N_8
REMARK    4  A    between atoms: C_9  and  C_11
REMARK    5  A    between atoms: C_12  and  N_23
REMARK    6  A    between atoms: C_14  and  C_22
REMARK                            x       y       z     vdW  Elec       q    Type
REMARK                         _______ _______ _______ _____ _____    ______ ____
ROOT
ATOM      1  C   UNL     1       2.467   0.962   0.083  0.00  0.00    +0.097 A 
ATOM      2  C   UNL     1       3.813   1.273   0.050  0.00  0.00    +0.054 A 
ATOM      3  C   UNL     1       4.750   0.165   0.150  0.00  0.00    +0.030 A 
ATOM      4  C   UNL     1       6.177   0.214   0.144  0.00  0.00    -0.034 A 
ATOM      5  C   UNL     1       6.895  -0.930   0.242  0.00  0.00    +0.074 A 
ATOM      6  C   UNL     1       6.253  -2.175   0.350  0.00  0.00    +0.250 A 
ATOM      7  O   UNL     1       6.912  -3.198   0.437  0.00  0.00    -0.268 OA
ATOM      8  N   UNL     1       4.906  -2.237   0.357  0.00  0.00    -0.317 N 
ATOM      9  H   UNL     1       4.464  -3.097   0.432  0.00  0.00    +0.169 HD
ATOM     10  C   UNL     1       4.163  -1.104   0.260  0.00  0.00    +0.090 A 
ATOM     11  S   UNL     1       2.463  -0.812   0.236  0.00  0.00    -0.064 S 
ATOM     12  C   UNL     1       6.884   1.540   0.029  0.00  0.00    +0.044 C 
ENDROOT
BRANCH   1  14
ATOM     13  N   UNL     1       0.107   1.348   0.051  0.00  0.00    -0.281 N 
ATOM     14  C   UNL     1       1.361   1.840   0.008  0.00  0.00    +0.257 C 
ATOM     15  O   UNL     1       1.542   3.040  -0.096  0.00  0.00    -0.269 OA
ATOM     16  H   UNL     1      -0.037   0.389   0.071  0.00  0.00    +0.155 HD
BRANCH  13  23
ATOM     17  C   UNL     1      -2.196   0.599   1.544  0.00  0.00    +0.046 C 
ATOM     18  C   UNL     1      -2.130   1.894   0.777  0.00  0.00    -0.027 A 
ATOM     19  C   UNL     1      -3.206   2.760   0.788  0.00  0.00    +0.038 A 
ATOM     20  C   UNL     1      -3.148   3.947   0.081  0.00  0.00    +0.127 A 
ATOM     21  C   UNL     1      -2.012   4.272  -0.637  0.00  0.00    +0.034 A 
ATOM     22  C   UNL     1      -0.931   3.413  -0.649  0.00  0.00    +0.026 A 
ATOM     23  C   UNL     1      -0.986   2.221   0.061  0.00  0.00    +0.037 A 
BRANCH  20  24
ATOM     24  N   UNL     1      -4.305   4.870   0.091  0.00  0.00    +0.056 N 
ATOM     25  O   UNL     1      -4.256   5.915  -0.533  0.00  0.00    -0.126 OA
ATOM     26  O   UNL     1      -5.307   4.584   0.722  0.00  0.00    -0.126 OA
ENDBRANCH  20  24
ENDBRANCH  13  23
ENDBRANCH   1  14
BRANCH   2  27
ATOM     27  N   UNL     1       4.251   2.584  -0.070  0.00  0.00    -0.356 N 
ATOM     28  H   UNL     1       3.611   3.299  -0.211  0.00  0.00    +0.142 HD
ATOM     29  H   UNL     1       5.198   2.786  -0.013  0.00  0.00    +0.142 HD
ENDBRANCH   2  27
TORSDOF 4
