REMARK  Name = ZINC06800260
REMARK  6 active torsions:
REMARK  status: ('A' for Active; 'I' for Inactive)
REMARK    1  A    between atoms: C_1  and  C_2
REMARK    2  A    between atoms: C_5  and  C_8
REMARK    3  A    between atoms: N_13  and  C_25
REMARK    4  A    between atoms: C_14  and  C_16
REMARK    5  A    between atoms: N_18  and  C_19
REMARK    6  A    between atoms: C_19  and  C_20
REMARK                            x       y       z     vdW  Elec       q    Type
REMARK                         _______ _______ _______ _____ _____    ______ ____
ROOT
ATOM      1  C   UNL     1       0.059  -4.255  -0.021  0.00  0.00    +0.096 C 
ATOM      2  N   UNL     1       0.067  -4.874  -1.171  0.00  0.00    -0.115 NA
ATOM      3  S   UNL     1       0.079  -6.535  -1.198  0.00  0.00    +0.154 S 
ATOM      4  O   UNL     1      -1.276  -6.959  -1.161  0.00  0.00    -0.131 OA
ATOM      5  O   UNL     1       0.978  -6.925  -2.228  0.00  0.00    -0.131 OA
ATOM      6  N   UNL     1       0.769  -6.991   0.246  0.00  0.00    -0.185 N 
ATOM      7  C   UNL     1       0.415  -6.260   1.377  0.00  0.00    +0.116 C 
ATOM      8  C   UNL     1       0.075  -4.961   1.256  0.00  0.00    +0.060 C 
ATOM      9  C   UNL     1       1.708  -8.112   0.325  0.00  0.00    +0.159 C 
ENDROOT
BRANCH   1  14
ATOM     10  C   UNL     1      -0.018   1.503   0.010  0.00  0.00    +0.044 C 
ATOM     11  C   UNL     1       0.002  -0.004   0.002  0.00  0.00    -0.050 A 
ATOM     12  C   UNL     1       0.006  -0.686  -1.201  0.00  0.00    +0.004 A 
ATOM     13  C   UNL     1       0.024  -2.066  -1.215  0.00  0.00    +0.010 A 
ATOM     14  C   UNL     1       0.040  -2.772  -0.013  0.00  0.00    +0.002 A 
ATOM     15  C   UNL     1       0.036  -2.079   1.196  0.00  0.00    +0.010 A 
ATOM     16  C   UNL     1       0.023  -0.699   1.198  0.00  0.00    +0.004 A 
ENDBRANCH   1  14
BRANCH   7  17
ATOM     17  C   UNL     1       0.418  -6.906   2.708  0.00  0.00    +0.260 C 
ATOM     18  O   UNL     1       0.729  -8.076   2.815  0.00  0.00    -0.269 OA
ATOM     19  N   UNL     1       0.075  -6.197   3.801  0.00  0.00    -0.303 N 
ATOM     20  H   UNL     1      -0.174  -5.263   3.716  0.00  0.00    +0.149 HD
BRANCH  19  21
ATOM     21  C   UNL     1       0.077  -6.837   5.119  0.00  0.00    +0.179 C 
BRANCH  21  22
ATOM     22  C   UNL     1      -0.341  -5.835   6.165  0.00  0.00    +0.122 A 
ATOM     23  C   UNL     1      -1.601  -5.606   6.575  0.00  0.00    +0.046 A 
ATOM     24  C   UNL     1      -1.534  -4.594   7.560  0.00  0.00    +0.041 A 
ATOM     25  C   UNL     1      -0.237  -4.264   7.692  0.00  0.00    +0.195 A 
ATOM     26  O   UNL     1       0.482  -5.023   6.848  0.00  0.00    -0.466 OA
ENDBRANCH  21  22
ENDBRANCH  19  21
ENDBRANCH   7  17
TORSDOF 4
