REMARK  Name = ZINC59148647
REMARK  5 active torsions:
REMARK  status: ('A' for Active; 'I' for Inactive)
REMARK    1  A    between atoms: N_8  and  N_9
REMARK    2  A    between atoms: N_9  and  C_10
REMARK    3  A    between atoms: C_10  and  N_12
REMARK    4  A    between atoms: N_15  and  C_16
REMARK    5  A    between atoms: C_16  and  C_17
REMARK                            x       y       z     vdW  Elec       q    Type
REMARK                         _______ _______ _______ _____ _____    ______ ____
ROOT
ATOM      1  C   UNL     1       0.247   1.945   0.291  0.00  0.00    +0.001 A 
ATOM      2  C   UNL     1       1.514   2.502   0.330  0.00  0.00    +0.002 A 
ATOM      3  C   UNL     1       2.636   1.706   0.225  0.00  0.00    +0.024 A 
ATOM      4  C   UNL     1       2.504   0.329   0.078  0.00  0.00    +0.046 A 
ATOM      5  C   UNL     1       1.220  -0.231   0.040  0.00  0.00    +0.028 A 
ATOM      6  C   UNL     1       0.096   0.580   0.147  0.00  0.00    +0.012 A 
ATOM      7  C   UNL     1       1.406  -1.692  -0.121  0.00  0.00    +0.153 C 
ATOM      8  N   UNL     1       0.474  -2.611  -0.205  0.00  0.00    -0.175 NA
ATOM      9  C   UNL     1       2.868  -1.887  -0.167  0.00  0.00    +0.272 C 
ATOM     10  O   UNL     1       3.444  -2.952  -0.292  0.00  0.00    -0.268 OA
ATOM     11  N   UNL     1       3.450  -0.682  -0.047  0.00  0.00    -0.261 N 
ENDROOT
BRANCH   8  12
ATOM     12  N   UNL     1       0.830  -3.957  -0.356  0.00  0.00    -0.218 N 
ATOM     13  H   UNL     1       1.765  -4.210  -0.399  0.00  0.00    +0.176 HD
BRANCH  12  14
ATOM     14  C   UNL     1      -0.128  -4.902  -0.443  0.00  0.00    +0.147 C 
ATOM     15  S   UNL     1       0.306  -6.547  -0.628  0.00  0.00    -0.017 S 
BRANCH  14  16
ATOM     16  N   UNL     1      -1.428  -4.551  -0.383  0.00  0.00    -0.339 N 
ATOM     17  H   UNL     1      -1.674  -3.618  -0.278  0.00  0.00    +0.144 HD
ATOM     18  H   UNL     1      -2.117  -5.230  -0.445  0.00  0.00    +0.144 HD
ENDBRANCH  14  16
ENDBRANCH  12  14
ENDBRANCH   8  12
BRANCH  11  19
ATOM     19  C   UNL     1       4.898  -0.461  -0.049  0.00  0.00    +0.152 C 
BRANCH  19  20
ATOM     20  C   UNL     1       5.401  -0.437  -1.469  0.00  0.00    +0.007 A 
ATOM     21  C   UNL     1       5.855  -1.602  -2.062  0.00  0.00    +0.047 A 
ATOM     22  C   UNL     1       6.316  -1.579  -3.366  0.00  0.00    +0.020 A 
ATOM     23  C   UNL     1       6.325  -0.393  -4.076  0.00  0.00    +0.003 A 
ATOM     24  C   UNL     1       5.872   0.771  -3.484  0.00  0.00    +0.020 A 
ATOM     25  C   UNL     1       5.404   0.748  -2.182  0.00  0.00    +0.047 A 
ATOM     26 CL   UNL     1       4.828   2.208  -1.441  0.00  0.00    -0.083 Cl
ATOM     27 CL   UNL     1       5.845  -3.091  -1.171  0.00  0.00    -0.083 Cl
ENDBRANCH  19  20
ENDBRANCH  11  19
TORSDOF 5
