REMARK  Name = ZINC36512991
REMARK  21 active torsions:
REMARK  status: ('A' for Active; 'I' for Inactive)
REMARK    1  A    between atoms: C_1  and  C_2
REMARK    2  A    between atoms: C_2  and  C_3
REMARK    3  A    between atoms: C_3  and  C_4
REMARK    4  A    between atoms: C_4  and  C_5
REMARK    5  A    between atoms: C_5  and  C_6
REMARK    6  A    between atoms: C_6  and  N_7
REMARK    7  A    between atoms: N_7  and  C_8
REMARK    8  A    between atoms: C_8  and  C_10
REMARK    9  A    between atoms: C_8  and  C_19
REMARK   10  A    between atoms: C_11  and  O_18
REMARK   11  A    between atoms: C_13  and  O_17
REMARK   12  A    between atoms: C_15  and  O_16
REMARK   13  A    between atoms: N_21  and  C_22
REMARK   14  A    between atoms: C_22  and  C_23
REMARK   15  A    between atoms: C_22  and  C_24
REMARK   16  A    between atoms: C_22  and  C_25
REMARK   17  A    between atoms: C_25  and  C_26
REMARK   18  A    between atoms: C_26  and  C_27
REMARK   19  A    between atoms: C_26  and  C_28
REMARK   20  A    between atoms: C_26  and  C_29
REMARK   21  A    between atoms: C_30  and  C_32
REMARK                            x       y       z     vdW  Elec       q    Type
REMARK                         _______ _______ _______ _____ _____    ______ ____
ROOT
ATOM      1  C   UNL     1       3.032  -3.981  -4.344  0.00  0.00    +0.200 C 
ENDROOT
BRANCH   1   2
ATOM      2  C   UNL     1       2.598  -5.335  -4.841  0.00  0.00    +0.065 A 
ATOM      3  C   UNL     1       3.533  -6.347  -5.003  0.00  0.00    +0.129 A 
ATOM      4  C   UNL     1       3.133  -7.594  -5.460  0.00  0.00    +0.091 A 
ATOM      5  C   UNL     1       1.798  -7.829  -5.754  0.00  0.00    +0.124 A 
ATOM      6  C   UNL     1       0.863  -6.818  -5.591  0.00  0.00    +0.091 A 
ATOM      7  C   UNL     1       1.262  -5.572  -5.130  0.00  0.00    +0.129 A 
BRANCH   7   8
ATOM      8  O   UNL     1       0.345  -4.583  -4.966  0.00  0.00    -0.506 OA
ATOM      9  H   UNL     1       0.122  -4.115  -5.782  0.00  0.00    +0.292 HD
ENDBRANCH   7   8
BRANCH   5  10
ATOM     10  O   UNL     1       1.407  -9.051  -6.203  0.00  0.00    -0.507 OA
ATOM     11  H   UNL     1       1.156  -9.666  -5.500  0.00  0.00    +0.292 HD
ENDBRANCH   5  10
BRANCH   3  12
ATOM     12  O   UNL     1       4.840  -6.116  -4.715  0.00  0.00    -0.506 OA
ATOM     13  H   UNL     1       5.099  -6.382  -3.822  0.00  0.00    +0.292 HD
ENDBRANCH   3  12
ENDBRANCH   1   2
BRANCH   1  14
ATOM     14  C   UNL     1       4.036  -3.393  -5.302  0.00  0.00    +0.239 C 
ATOM     15  O   UNL     1       3.693  -2.539  -6.093  0.00  0.00    -0.273 OA
ATOM     16  N   UNL     1       5.316  -3.815  -5.280  0.00  0.00    -0.308 N 
ATOM     17  H   UNL     1       5.595  -4.483  -4.635  0.00  0.00    +0.149 HD
BRANCH  16  18
ATOM     18  C   UNL     1       6.285  -3.266  -6.232  0.00  0.00    +0.030 C 
ATOM     19  C   UNL     1       5.935  -3.738  -7.645  0.00  0.00    +0.031 C 
ATOM     20  C   UNL     1       6.241  -1.738  -6.180  0.00  0.00    +0.031 C 
BRANCH  18  21
ATOM     21  C   UNL     1       7.689  -3.749  -5.866  0.00  0.00    +0.031 C 
BRANCH  21  22
ATOM     22  C   UNL     1       7.917  -3.564  -4.364  0.00  0.00    -0.036 C 
ATOM     23  C   UNL     1       7.157  -4.647  -3.596  0.00  0.00    +0.010 C 
ATOM     24  C   UNL     1       9.412  -3.675  -4.058  0.00  0.00    +0.010 C 
ATOM     25  C   UNL     1       7.410  -2.185  -3.938  0.00  0.00    +0.010 C 
ENDBRANCH  21  22
ENDBRANCH  18  21
ENDBRANCH  16  18
ENDBRANCH   1  14
BRANCH   1  26
ATOM     26  N   UNL     1       1.867  -3.097  -4.255  0.00  0.00    -0.279 N 
ATOM     27  C   UNL     1       1.221  -2.718  -5.375  0.00  0.00    +0.283 C 
ATOM     28  O   UNL     1       1.530  -3.201  -6.448  0.00  0.00    -0.267 OA
BRANCH  27  29
ATOM     29  C   UNL     1       0.145  -1.725  -5.300  0.00  0.00    +0.189 A 
ATOM     30  C   UNL     1      -0.531  -1.193  -6.361  0.00  0.00    +0.054 A 
ATOM     31  C   UNL     1      -1.468  -0.291  -5.831  0.00  0.00    +0.042 A 
ATOM     32  C   UNL     1      -1.324  -0.311  -4.488  0.00  0.00    +0.196 A 
ATOM     33  O   UNL     1      -0.355  -1.180  -4.171  0.00  0.00    -0.458 OA
ENDBRANCH  27  29
BRANCH  26  34
ATOM     34  C   UNL     1       1.405  -2.624  -2.947  0.00  0.00    +0.109 C 
BRANCH  34  35
ATOM     35  C   UNL     1       2.177  -1.361  -2.559  0.00  0.00    +0.019 C 
BRANCH  35  36
ATOM     36  C   UNL     1       1.694  -0.868  -1.194  0.00  0.00    +0.002 C 
BRANCH  36  37
ATOM     37  C   UNL     1       2.466   0.395  -0.806  0.00  0.00    -0.000 C 
BRANCH  37  39
ATOM     38  C   UNL     1       2.755   2.151   0.947  0.00  0.00    +0.004 C 
ATOM     39  C   UNL     1       1.984   0.888   0.560  0.00  0.00    -0.003 C 
ENDBRANCH  37  39
ENDBRANCH  36  37
ENDBRANCH  35  36
ENDBRANCH  34  35
ENDBRANCH  26  34
ENDBRANCH   1  26
TORSDOF 15
