REMARK  Name = ZINC09435904
REMARK  6 active torsions:
REMARK  status: ('A' for Active; 'I' for Inactive)
REMARK    1  A    between atoms: C_1  and  C_2
REMARK    2  A    between atoms: N_6  and  C_21
REMARK    3  A    between atoms: C_14  and  S_16
REMARK    4  A    between atoms: S_16  and  C_17
REMARK    5  A    between atoms: N_18  and  C_19
REMARK    6  A    between atoms: N_18  and  C_20
REMARK                            x       y       z     vdW  Elec       q    Type
REMARK                         _______ _______ _______ _____ _____    ______ ____
ROOT
ATOM      1  C   UNL     1       0.304   1.576   1.083  0.00  0.00    +0.038 C 
ATOM      2  C   UNL     1       0.017   0.266   0.346  0.00  0.00    +0.168 C 
ATOM      3  C   UNL     1      -1.449  -0.094   0.459  0.00  0.00    +0.247 C 
ATOM      4  O   UNL     1      -2.388   0.557   0.052  0.00  0.00    -0.273 OA
ATOM      5  N   UNL     1      -1.507  -1.277   1.099  0.00  0.00    -0.212 N 
ATOM      6  C   UNL     1      -0.249  -1.734   1.418  0.00  0.00    +0.175 C 
ATOM      7  N   UNL     1      -0.008  -2.851   2.039  0.00  0.00    -0.374 N 
ATOM      8  N   UNL     1       0.723  -0.852   0.992  0.00  0.00    -0.231 N 
ATOM      9  C   UNL     1       2.093  -0.991   1.142  0.00  0.00    +0.230 A 
ATOM     10  N   UNL     1       2.590  -2.065   1.747  0.00  0.00    -0.180 NA
ATOM     11  C   UNL     1       3.905  -2.198   1.891  0.00  0.00    +0.223 A 
ATOM     12  N   UNL     1       4.722  -1.257   1.431  0.00  0.00    -0.189 NA
ATOM     13  C   UNL     1       4.225  -0.182   0.826  0.00  0.00    +0.194 A 
ATOM     14  N   UNL     1       2.910  -0.052   0.677  0.00  0.00    -0.188 NA
ATOM     15  N   UNL     1       4.420  -3.314   2.519  0.00  0.00    -0.306 N 
ATOM     16  C   UNL     1       3.519  -4.351   3.026  0.00  0.00    +0.132 C 
ATOM     17  C   UNL     1       5.869  -3.461   2.678  0.00  0.00    +0.132 C 
ATOM     18  H   UNL     1      -0.743  -3.413   2.330  0.00  0.00    +0.158 HD
ATOM     19  H   UNL     1       0.907  -3.122   2.212  0.00  0.00    +0.158 HD
ENDROOT
BRANCH   5  20
ATOM     20  C   UNL     1      -2.696  -1.956   1.401  0.00  0.00    +0.045 A 
ATOM     21  C   UNL     1      -3.234  -2.854   0.490  0.00  0.00    +0.025 A 
ATOM     22  C   UNL     1      -4.405  -3.522   0.789  0.00  0.00    +0.023 A 
ATOM     23  C   UNL     1      -5.042  -3.297   1.997  0.00  0.00    +0.059 A 
ATOM     24  C   UNL     1      -4.508  -2.402   2.908  0.00  0.00    +0.061 A 
ATOM     25  C   UNL     1      -3.333  -1.735   2.614  0.00  0.00    +0.045 A 
ATOM     26 CL   UNL     1      -5.310  -2.121   4.421  0.00  0.00    -0.082 Cl
ATOM     27 CL   UNL     1      -6.514  -4.139   2.370  0.00  0.00    -0.082 Cl
ENDBRANCH   5  20
BRANCH  13  28
ATOM     28  S   UNL     1       5.309   1.067   0.216  0.00  0.00    -0.089 S 
ATOM     29  C   UNL     1       6.964   0.455   0.637  0.00  0.00    +0.093 C 
ENDBRANCH  13  28
TORSDOF 2
