REMARK  Name = ZINC09171890
REMARK  11 active torsions:
REMARK  status: ('A' for Active; 'I' for Inactive)
REMARK    1  A    between atoms: C_1  and  C_2
REMARK    2  A    between atoms: C_2  and  C_3
REMARK    3  A    between atoms: C_3  and  N_4
REMARK    4  A    between atoms: C_7  and  N_18
REMARK    5  A    between atoms: C_13  and  C_16
REMARK    6  A    between atoms: C_13  and  C_17
REMARK    7  A    between atoms: N_18  and  S_19
REMARK    8  A    between atoms: S_19  and  C_22
REMARK    9  A    between atoms: C_25  and  O_29
REMARK   10  A    between atoms: C_26  and  C_28
REMARK   11  A    between atoms: O_29  and  C_30
REMARK                            x       y       z     vdW  Elec       q    Type
REMARK                         _______ _______ _______ _____ _____    ______ ____
ROOT
ATOM      1  N   UNL     1      -2.501   2.265  -0.292  0.00  0.00    -0.268 N 
ATOM      2  C   UNL     1      -1.577   3.157  -0.853  0.00  0.00    +0.080 A 
ATOM      3  C   UNL     1      -1.908   4.489  -1.040  0.00  0.00    +0.051 A 
ATOM      4  C   UNL     1      -0.984   5.356  -1.607  0.00  0.00    +0.050 A 
ATOM      5  C   UNL     1       0.268   4.887  -1.985  0.00  0.00    +0.028 A 
ATOM      6  C   UNL     1       0.598   3.558  -1.796  0.00  0.00    +0.049 A 
ATOM      7  C   UNL     1      -0.319   2.690  -1.229  0.00  0.00    +0.142 A 
ATOM      8  O   UNL     1      -0.000   1.382  -1.036  0.00  0.00    -0.489 OA
ATOM      9  C   UNL     1       0.293   0.973   0.298  0.00  0.00    +0.244 C 
ATOM     10  C   UNL     1      -0.720   1.574   1.271  0.00  0.00    +0.076 C 
ATOM     11  C   UNL     1      -2.111   1.453   0.716  0.00  0.00    +0.229 C 
ATOM     12  O   UNL     1      -2.879   0.631   1.169  0.00  0.00    -0.275 OA
ATOM     13  C   UNL     1      -0.645   0.830   2.605  0.00  0.00    +0.024 C 
ATOM     14  C   UNL     1      -0.391   3.051   1.497  0.00  0.00    +0.024 C 
ENDROOT
BRANCH   4  15
ATOM     15  N   UNL     1      -1.313   6.702  -1.799  0.00  0.00    -0.216 N 
ATOM     16  H   UNL     1      -1.754   7.199  -1.092  0.00  0.00    +0.174 HD
BRANCH  15  17
ATOM     17  S   UNL     1      -0.952   7.447  -3.233  0.00  0.00    +0.072 S 
ATOM     18  O   UNL     1      -1.429   8.782  -3.129  0.00  0.00    -0.150 OA
ATOM     19  O   UNL     1       0.407   7.145  -3.516  0.00  0.00    -0.150 OA
BRANCH  17  20
ATOM     20  C   UNL     1      -1.913   6.665  -4.484  0.00  0.00    +0.109 A 
ATOM     21  C   UNL     1      -1.405   5.574  -5.165  0.00  0.00    +0.032 A 
ATOM     22  C   UNL     1      -2.159   4.955  -6.142  0.00  0.00    +0.048 A 
ATOM     23  C   UNL     1      -3.424   5.435  -6.449  0.00  0.00    +0.123 A 
ATOM     24  C   UNL     1      -3.930   6.533  -5.769  0.00  0.00    -0.007 A 
ATOM     25  C   UNL     1      -3.174   7.145  -4.788  0.00  0.00    +0.035 A 
ATOM     26  C   UNL     1      -5.303   7.058  -6.100  0.00  0.00    +0.047 C 
BRANCH  23  27
ATOM     27  O   UNL     1      -4.165   4.832  -7.415  0.00  0.00    -0.495 OA
ATOM     28  C   UNL     1      -3.581   3.707  -8.074  0.00  0.00    +0.277 C 
ENDBRANCH  23  27
ENDBRANCH  17  20
ENDBRANCH  15  17
ENDBRANCH   4  15
BRANCH   1  29
ATOM     29  C   UNL     1      -3.877   2.212  -0.793  0.00  0.00    +0.113 C 
BRANCH  29  31
ATOM     30  C   UNL     1      -5.405   1.134  -2.450  0.00  0.00    +0.005 C 
ATOM     31  C   UNL     1      -3.968   1.189  -1.926  0.00  0.00    +0.016 C 
ENDBRANCH  29  31
ENDBRANCH   1  29
TORSDOF 6
