REMARK  Name = ZINC05295601
REMARK  10 active torsions:
REMARK  status: ('A' for Active; 'I' for Inactive)
REMARK    1  A    between atoms: C_1  and  C_2
REMARK    2  A    between atoms: C_2  and  C_3
REMARK    3  A    between atoms: C_2  and  C_4
REMARK    4  A    between atoms: C_4  and  C_6
REMARK    5  A    between atoms: C_4  and  N_22
REMARK    6  A    between atoms: N_8  and  N_9
REMARK    7  A    between atoms: C_10  and  C_12
REMARK    8  A    between atoms: C_23  and  C_25
REMARK    9  A    between atoms: C_28  and  O_31
REMARK   10  A    between atoms: O_31  and  C_32
REMARK                            x       y       z     vdW  Elec       q    Type
REMARK                         _______ _______ _______ _____ _____    ______ ____
ROOT
ATOM      1  C   UNL     1      -1.545   4.712   3.135  0.00  0.00    +0.250 C 
ATOM      2  O   UNL     1      -1.119   5.372   2.211  0.00  0.00    -0.272 OA
ATOM      3  N   UNL     1      -1.257   3.398   3.214  0.00  0.00    -0.233 N 
ATOM      4  H   UNL     1      -1.533   2.886   3.991  0.00  0.00    +0.173 HD
ENDROOT
BRANCH   3   5
ATOM      5  N   UNL     1      -0.560   2.770   2.174  0.00  0.00    -0.234 N 
ATOM      6  C   UNL     1      -0.272   1.455   2.253  0.00  0.00    +0.235 C 
ATOM      7  O   UNL     1      -0.617   0.816   3.224  0.00  0.00    -0.274 OA
ATOM      8  H   UNL     1      -0.284   3.281   1.397  0.00  0.00    +0.173 HD
BRANCH   6   9
ATOM      9  C   UNL     1       0.478   0.780   1.134  0.00  0.00    +0.049 C 
ATOM     10  C   UNL     1       1.843   1.447   0.959  0.00  0.00    +0.019 C 
ATOM     11  C   UNL     1       2.605   0.762  -0.177  0.00  0.00    -0.009 C 
ATOM     12  C   UNL     1       2.800  -0.718   0.160  0.00  0.00    +0.007 C 
ATOM     13  C   UNL     1       1.434  -1.386   0.335  0.00  0.00    -0.009 C 
ATOM     14  C   UNL     1       0.673  -0.700   1.471  0.00  0.00    +0.019 C 
ATOM     15  C   UNL     1       0.635  -1.260  -0.964  0.00  0.00    +0.007 C 
ATOM     16  C   UNL     1       0.440   0.220  -1.301  0.00  0.00    -0.009 C 
ATOM     17  C   UNL     1       1.806   0.888  -1.476  0.00  0.00    +0.007 C 
ATOM     18  C   UNL     1      -0.321   0.906  -0.165  0.00  0.00    +0.019 C 
ENDBRANCH   6   9
ENDBRANCH   3   5
BRANCH   1  19
ATOM     19  C   UNL     1      -2.396   5.362   4.196  0.00  0.00    +0.163 C 
BRANCH  19  20
ATOM     20  N   UNL     1      -2.249   6.817   4.116  0.00  0.00    -0.300 N 
ATOM     21  C   UNL     1      -2.475   7.578   5.205  0.00  0.00    +0.245 C 
ATOM     22  O   UNL     1      -2.800   7.057   6.254  0.00  0.00    -0.270 OA
ATOM     23  H   UNL     1      -1.990   7.233   3.279  0.00  0.00    +0.150 HD
BRANCH  21  24
ATOM     24  C   UNL     1      -2.327   9.044   5.125  0.00  0.00    +0.037 A 
ATOM     25  C   UNL     1      -1.947   9.645   3.921  0.00  0.00    +0.016 A 
ATOM     26  C   UNL     1      -1.814  11.014   3.849  0.00  0.00    +0.046 A 
ATOM     27  C   UNL     1      -2.047  11.797   4.973  0.00  0.00    +0.120 A 
ATOM     28  C   UNL     1      -2.420  11.203   6.173  0.00  0.00    +0.046 A 
ATOM     29  C   UNL     1      -2.560   9.835   6.253  0.00  0.00    +0.016 A 
BRANCH  27  30
ATOM     30  O   UNL     1      -1.911  13.145   4.899  0.00  0.00    -0.495 OA
ATOM     31  C   UNL     1      -1.525  13.690   3.636  0.00  0.00    +0.277 C 
ENDBRANCH  27  30
ENDBRANCH  21  24
ENDBRANCH  19  20
BRANCH  19  33
ATOM     32  C   UNL     1      -4.715   5.573   5.101  0.00  0.00    +0.009 C 
ATOM     33  C   UNL     1      -3.862   4.984   3.975  0.00  0.00    +0.012 C 
ATOM     34  C   UNL     1      -4.336   5.542   2.631  0.00  0.00    +0.009 C 
ENDBRANCH  19  33
ENDBRANCH   1  19
TORSDOF 7
