REMARK  Name = ZINC03569672
REMARK  8 active torsions:
REMARK  status: ('A' for Active; 'I' for Inactive)
REMARK    1  A    between atoms: C_1  and  C_2
REMARK    2  A    between atoms: C_2  and  C_4
REMARK    3  A    between atoms: C_2  and  N_10
REMARK    4  A    between atoms: C_11  and  C_13
REMARK    5  A    between atoms: C_16  and  S_19
REMARK    6  A    between atoms: S_19  and  N_22
REMARK    7  A    between atoms: N_22  and  C_23
REMARK    8  A    between atoms: C_23  and  C_24
REMARK                            x       y       z     vdW  Elec       q    Type
REMARK                         _______ _______ _______ _____ _____    ______ ____
ROOT
ATOM      1  C   UNL     1       2.769  -1.090   2.372  0.00  0.00    +0.037 A 
ATOM      2  C   UNL     1       2.055  -1.444   3.518  0.00  0.00    +0.015 A 
ATOM      3  C   UNL     1       2.729  -1.901   4.632  0.00  0.00    +0.029 A 
ATOM      4  C   UNL     1       4.108  -2.007   4.615  0.00  0.00    +0.105 A 
ATOM      5  C   UNL     1       4.821  -1.657   3.482  0.00  0.00    +0.029 A 
ATOM      6  C   UNL     1       4.160  -1.205   2.359  0.00  0.00    +0.015 A 
ENDROOT
BRANCH   1   8
ATOM      7  N   UNL     1       0.711  -0.489   1.189  0.00  0.00    -0.305 N 
ATOM      8  C   UNL     1       2.054  -0.600   1.174  0.00  0.00    +0.245 C 
ATOM      9  O   UNL     1       2.677  -0.297   0.175  0.00  0.00    -0.270 OA
ATOM     10  H   UNL     1       0.213  -0.731   1.986  0.00  0.00    +0.150 HD
BRANCH   7  12
ATOM     11  C   UNL     1      -0.019   1.526   0.010  0.00  0.00    +0.033 C 
ATOM     12  C   UNL     1       0.002  -0.004   0.002  0.00  0.00    +0.100 C 
BRANCH  12  13
ATOM     13  C   UNL     1      -1.412  -0.526   0.013  0.00  0.00    -0.027 A 
ATOM     14  C   UNL     1      -2.123  -0.571   1.197  0.00  0.00    +0.005 A 
ATOM     15  C   UNL     1      -3.420  -1.049   1.207  0.00  0.00    +0.000 A 
ATOM     16  C   UNL     1      -4.006  -1.482   0.032  0.00  0.00    +0.000 A 
ATOM     17  C   UNL     1      -3.295  -1.436  -1.153  0.00  0.00    +0.000 A 
ATOM     18  C   UNL     1      -2.000  -0.954  -1.163  0.00  0.00    +0.005 A 
ENDBRANCH  12  13
ENDBRANCH   7  12
ENDBRANCH   1   8
BRANCH   4  19
ATOM     19  S   UNL     1       4.960  -2.591   6.042  0.00  0.00    +0.059 S 
ATOM     20  O   UNL     1       6.285  -2.083   5.961  0.00  0.00    -0.153 OA
ATOM     21  O   UNL     1       4.113  -2.335   7.154  0.00  0.00    -0.153 OA
BRANCH  19  22
ATOM     22  N   UNL     1       5.076  -4.237   5.905  0.00  0.00    -0.183 NA
ATOM     23  H   UNL     1       4.618  -4.810   6.539  0.00  0.00    +0.148 HD
BRANCH  22  24
ATOM     24  C   UNL     1       5.869  -4.828   4.824  0.00  0.00    +0.180 C 
BRANCH  24  25
ATOM     25  C   UNL     1       6.120  -6.284   5.123  0.00  0.00    +0.120 A 
ATOM     26  C   UNL     1       5.336  -7.310   4.746  0.00  0.00    +0.046 A 
ATOM     27  C   UNL     1       5.943  -8.490   5.236  0.00  0.00    +0.041 A 
ATOM     28  C   UNL     1       7.061  -8.114   5.882  0.00  0.00    +0.195 A 
ATOM     29  O   UNL     1       7.166  -6.777   5.806  0.00  0.00    -0.466 OA
ENDBRANCH  24  25
ENDBRANCH  22  24
ENDBRANCH  19  22
ENDBRANCH   4  19
TORSDOF 7
