REMARK  Name = ZINC22609170
REMARK  12 active torsions:
REMARK  status: ('A' for Active; 'I' for Inactive)
REMARK    1  A    between atoms: C_1  and  O_2
REMARK    2  A    between atoms: O_2  and  C_3
REMARK    3  A    between atoms: C_5  and  N_13
REMARK    4  A    between atoms: C_7  and  O_11
REMARK    5  A    between atoms: C_8  and  O_9
REMARK    6  A    between atoms: O_9  and  C_10
REMARK    7  A    between atoms: O_11  and  C_12
REMARK    8  A    between atoms: C_17  and  N_21
REMARK    9  A    between atoms: C_26  and  O_33
REMARK   10  A    between atoms: C_27  and  O_31
REMARK   11  A    between atoms: O_31  and  C_32
REMARK   12  A    between atoms: O_33  and  C_34
REMARK                            x       y       z     vdW  Elec       q    Type
REMARK                         _______ _______ _______ _____ _____    ______ ____
ROOT
ATOM      1  N   UNL     1       2.362   0.323  -4.159  0.00  0.00    -0.212 N 
ATOM      2  C   UNL     1       2.266   1.658  -4.191  0.00  0.00    +0.225 C 
ATOM      3  O   UNL     1       1.690   2.341  -3.371  0.00  0.00    -0.275 OA
ATOM      4  C   UNL     1       2.990   2.180  -5.413  0.00  0.00    +0.091 C 
ATOM      5  C   UNL     1       3.526   0.902  -6.089  0.00  0.00    +0.029 C 
ATOM      6  C   UNL     1       3.054  -0.207  -5.175  0.00  0.00    +0.213 C 
ATOM      7  O   UNL     1       3.267  -1.390  -5.338  0.00  0.00    -0.277 OA
ENDROOT
BRANCH   5   8
ATOM      8  N   UNL     1       4.994   0.928  -6.153  0.00  0.00    +0.391 N 
ATOM      9  C   UNL     1       5.431   2.091  -6.941  0.00  0.00    -0.073 C 
ATOM     10  C   UNL     1       6.936   2.276  -6.741  0.00  0.00    +0.017 C 
ATOM     11  C   UNL     1       7.649   0.972  -6.992  0.00  0.00    -0.044 A 
ATOM     12  C   UNL     1       9.019   0.995  -7.203  0.00  0.00    +0.053 A 
ATOM     13  C   UNL     1       9.711  -0.181  -7.434  0.00  0.00    +0.162 A 
ATOM     14  C   UNL     1       9.024  -1.392  -7.453  0.00  0.00    +0.162 A 
ATOM     15  C   UNL     1       7.657  -1.409  -7.242  0.00  0.00    +0.051 A 
ATOM     16  C   UNL     1       6.968  -0.227  -7.013  0.00  0.00    -0.057 A 
ATOM     17  C   UNL     1       5.478  -0.295  -6.798  0.00  0.00    -0.042 C 
ATOM     18  H   UNL     1       5.371   0.990  -5.219  0.00  0.00    -0.080 HD
BRANCH  14  19
ATOM     19  O   UNL     1       9.695  -2.553  -7.678  0.00  0.00    -0.491 OA
ATOM     20  C   UNL     1       8.925  -3.757  -7.683  0.00  0.00    +0.277 C 
ENDBRANCH  14  19
BRANCH  13  21
ATOM     21  O   UNL     1      11.054  -0.154  -7.641  0.00  0.00    -0.491 OA
ATOM     22  C   UNL     1      11.691   1.125  -7.607  0.00  0.00    +0.277 C 
ENDBRANCH  13  21
ENDBRANCH   5   8
BRANCH   1  25
ATOM     23  C   UNL     1       2.039  -1.907  -1.244  0.00  0.00    +0.167 A 
ATOM     24  C   UNL     1       2.604  -1.139  -2.250  0.00  0.00    +0.073 A 
ATOM     25  C   UNL     1       1.789  -0.455  -3.142  0.00  0.00    +0.051 A 
ATOM     26  C   UNL     1       0.409  -0.541  -3.028  0.00  0.00    +0.073 A 
ATOM     27  C   UNL     1      -0.158  -1.309  -2.023  0.00  0.00    +0.167 A 
ATOM     28  C   UNL     1       0.657  -1.998  -1.133  0.00  0.00    +0.204 A 
BRANCH  23  30
ATOM     29  C   UNL     1       4.249  -2.438  -0.544  0.00  0.00    +0.277 C 
ATOM     30  O   UNL     1       2.837  -2.577  -0.370  0.00  0.00    -0.491 OA
ENDBRANCH  23  30
BRANCH  28  31
ATOM     31  O   UNL     1       0.101  -2.757  -0.149  0.00  0.00    -0.488 OA
ATOM     32  C   UNL     1      -0.168  -2.110   1.096  0.00  0.00    +0.277 C 
ENDBRANCH  28  31
BRANCH  27  33
ATOM     33  O   UNL     1      -1.511  -1.392  -1.912  0.00  0.00    -0.491 OA
ATOM     34  C   UNL     1      -2.287  -0.661  -2.864  0.00  0.00    +0.277 C 
ENDBRANCH  27  33
ENDBRANCH   1  25
TORSDOF 7
