REMARK  Name = ZINC20684816
REMARK  8 active torsions:
REMARK  status: ('A' for Active; 'I' for Inactive)
REMARK    1  A    between atoms: C_1  and  C_2
REMARK    2  A    between atoms: C_2  and  C_3
REMARK    3  A    between atoms: C_3  and  N_4
REMARK    4  A    between atoms: N_4  and  S_5
REMARK    5  A    between atoms: S_5  and  C_8
REMARK    6  A    between atoms: C_21  and  C_24
REMARK    7  A    between atoms: N_36  and  C_37
REMARK    8  A    between atoms: C_37  and  C_38
REMARK                            x       y       z     vdW  Elec       q    Type
REMARK                         _______ _______ _______ _____ _____    ______ ____
ROOT
ATOM      1  C   UNL     1      -0.718  14.036   0.154  0.00  0.00    +0.106 A 
ATOM      2  C   UNL     1       0.095  13.622   1.193  0.00  0.00    +0.030 A 
ATOM      3  C   UNL     1       0.279  12.277   1.436  0.00  0.00    +0.025 A 
ATOM      4  C   UNL     1      -0.350  11.328   0.639  0.00  0.00    +0.031 A 
ATOM      5  C   UNL     1      -1.182  11.754  -0.403  0.00  0.00    -0.018 A 
ATOM      6  C   UNL     1      -1.354  13.101  -0.640  0.00  0.00    +0.034 A 
ATOM      7  C   UNL     1      -1.849  10.713  -1.213  0.00  0.00    +0.049 C 
ATOM      8  C   UNL     1      -2.266  10.958  -2.618  0.00  0.00    -0.023 C 
ATOM      9  C   UNL     1      -2.189   9.815  -3.289  0.00  0.00    -0.030 C 
ATOM     10  C   UNL     1      -1.673   8.704  -2.372  0.00  0.00    +0.033 C 
ATOM     11  C   UNL     1      -0.873   9.505  -1.337  0.00  0.00    +0.029 C 
ATOM     12  C   UNL     1      -0.770   8.922   0.061  0.00  0.00    +0.105 C 
ATOM     13  N   UNL     1      -0.121   9.968   0.882  0.00  0.00    -0.336 N 
ATOM     14  H   UNL     1       0.557   9.683   1.700  0.00  0.00    +0.147 HD
ENDROOT
BRANCH  12  15
ATOM     15  C   UNL     1       0.074   7.674   0.045  0.00  0.00    -0.026 A 
ATOM     16  C   UNL     1       1.457   7.776   0.032  0.00  0.00    +0.007 A 
ATOM     17  C   UNL     1       2.243   6.644   0.018  0.00  0.00    +0.027 A 
ATOM     18  C   UNL     1       1.650   5.384   0.015  0.00  0.00    +0.050 A 
ATOM     19  C   UNL     1       0.251   5.284   0.028  0.00  0.00    +0.008 A 
ATOM     20  C   UNL     1      -0.531   6.436   0.041  0.00  0.00    +0.016 A 
ATOM     21  C   UNL     1      -0.064   3.844   0.023  0.00  0.00    +0.008 A 
ATOM     22  C   UNL     1      -1.257   3.124   0.030  0.00  0.00    +0.010 A 
ATOM     23  C   UNL     1      -1.226   1.747   0.017  0.00  0.00    +0.001 A 
ATOM     24  C   UNL     1      -0.013   1.076   0.008  0.00  0.00    +0.002 A 
ATOM     25  C   UNL     1       1.175   1.775   0.000  0.00  0.00    +0.026 A 
ATOM     26  C   UNL     1       1.164   3.167   0.008  0.00  0.00    +0.050 A 
ATOM     27  N   UNL     1       2.179   4.106   0.004  0.00  0.00    -0.340 N 
BRANCH  27  28
ATOM     28  C   UNL     1       3.611   3.792  -0.010  0.00  0.00    +0.119 C 
ATOM     29  C   UNL     1       4.096   3.691  -1.458  0.00  0.00    +0.027 C 
ENDBRANCH  27  28
ENDBRANCH  12  15
BRANCH   1  30
ATOM     30  S   UNL     1      -0.944  15.756  -0.157  0.00  0.00    +0.058 S 
ATOM     31  O   UNL     1       0.191  16.419   0.383  0.00  0.00    -0.153 OA
ATOM     32  O   UNL     1      -1.317  15.876  -1.523  0.00  0.00    -0.153 OA
BRANCH  30  33
ATOM     33  N   UNL     1      -2.249  16.248   0.735  0.00  0.00    -0.190 NA
ATOM     34  H   UNL     1      -3.206  16.438   0.228  0.00  0.00    +0.148 HD
BRANCH  33  35
ATOM     35  C   UNL     1      -2.189  16.218   2.199  0.00  0.00    +0.105 C 
BRANCH  35  37
ATOM     36  C   UNL     1      -3.274  17.019   4.302  0.00  0.00    +0.005 C 
ATOM     37  C   UNL     1      -3.337  17.050   2.773  0.00  0.00    +0.013 C 
ENDBRANCH  35  37
ENDBRANCH  33  35
ENDBRANCH  30  33
ENDBRANCH   1  30
TORSDOF 6
