REMARK  Name = ZINC22573188
REMARK  8 active torsions:
REMARK  status: ('A' for Active; 'I' for Inactive)
REMARK    1  A    between atoms: C_1  and  C_2
REMARK    2  A    between atoms: C_9  and  N_13
REMARK    3  A    between atoms: C_10  and  C_11
REMARK    4  A    between atoms: N_13  and  C_14
REMARK    5  A    between atoms: C_14  and  N_16
REMARK    6  A    between atoms: C_17  and  C_19
REMARK    7  A    between atoms: C_24  and  O_25
REMARK    8  A    between atoms: O_25  and  C_26
REMARK                            x       y       z     vdW  Elec       q    Type
REMARK                         _______ _______ _______ _____ _____    ______ ____
ROOT
ATOM      1  C   UNL     1      -2.333  -0.402   0.022  0.00  0.00    +0.141 C 
ATOM      2  S   UNL     1      -2.606   1.288   0.033  0.00  0.00    -0.018 S 
ENDROOT
BRANCH   1   3
ATOM      3  N   UNL     1      -3.377  -1.254   0.028  0.00  0.00    -0.263 N 
ATOM      4  C   UNL     1      -4.637  -0.775   0.042  0.00  0.00    +0.253 C 
ATOM      5  O   UNL     1      -4.831   0.425   0.050  0.00  0.00    -0.270 OA
ATOM      6  H   UNL     1      -3.202  -2.339   0.021  0.00  0.00    +0.157 HD
BRANCH   4   7
ATOM      7  C   UNL     1      -5.780  -1.706   0.049  0.00  0.00    +0.080 A 
ATOM      8  C   UNL     1      -5.561  -3.087   0.040  0.00  0.00    +0.032 A 
ATOM      9  C   UNL     1      -6.634  -3.952   0.045  0.00  0.00    +0.019 A 
ATOM     10  C   UNL     1      -7.930  -3.459   0.060  0.00  0.00    +0.019 A 
ATOM     11  C   UNL     1      -8.159  -2.098   0.069  0.00  0.00    +0.047 A 
ATOM     12  C   UNL     1      -7.092  -1.213   0.069  0.00  0.00    +0.132 A 
ATOM     13 BR   UNL     1      -6.337  -5.820   0.033  0.00  0.00    -0.050 Br
BRANCH  12  14
ATOM     14  O   UNL     1      -7.316   0.125   0.085  0.00  0.00    -0.494 OA
ATOM     15  C   UNL     1      -8.679   0.554   0.105  0.00  0.00    +0.277 C 
ENDBRANCH  12  14
ENDBRANCH   4   7
ENDBRANCH   1   3
BRANCH   1  16
ATOM     16  N   UNL     1      -1.073  -0.881   0.008  0.00  0.00    -0.290 N 
ATOM     17  H   UNL     1      -0.897  -1.966   0.001  0.00  0.00    +0.154 HD
BRANCH  16  25
ATOM     18  C   UNL     1       4.709   4.388  -0.115  0.00  0.00    +0.008 C 
ATOM     19  C   UNL     1       3.892   3.126  -0.398  0.00  0.00    -0.009 C 
ATOM     20  C   UNL     1       4.445   1.961   0.428  0.00  0.00    +0.008 C 
ATOM     21  C   UNL     1       3.804   0.649  -0.030  0.00  0.00    +0.037 C 
ATOM     22  C   UNL     1       2.290   0.812  -0.015  0.00  0.00    -0.018 A 
ATOM     23  C   UNL     1       1.722   2.038  -0.003  0.00  0.00    -0.004 A 
ATOM     24  S   UNL     1      -0.021   1.728   0.011  0.00  0.00    -0.077 S 
ATOM     25  C   UNL     1       0.002  -0.004   0.002  0.00  0.00    +0.089 A 
ATOM     26  C   UNL     1       1.357  -0.302  -0.012  0.00  0.00    +0.084 A 
ATOM     27  C   UNL     1       2.426   3.360  -0.004  0.00  0.00    +0.046 C 
BRANCH  26  28
ATOM     28  C   UNL     1       1.819  -1.657  -0.024  0.00  0.00    +0.102 C 
ATOM     29  N   UNL     1       2.186  -2.732  -0.033  0.00  0.00    -0.191 NA
ENDBRANCH  26  28
ENDBRANCH  16  25
ENDBRANCH   1  16
TORSDOF 6
