REMARK  Name = ZINC39637275
REMARK  7 active torsions:
REMARK  status: ('A' for Active; 'I' for Inactive)
REMARK    1  A    between atoms: C_1  and  C_2
REMARK    2  A    between atoms: C_3  and  C_14
REMARK    3  A    between atoms: C_4  and  C_7
REMARK    4  A    between atoms: C_18  and  C_27
REMARK    5  A    between atoms: N_29  and  C_30
REMARK    6  A    between atoms: C_35  and  C_40
REMARK    7  A    between atoms: C_37  and  C_39
REMARK                            x       y       z     vdW  Elec       q    Type
REMARK                         _______ _______ _______ _____ _____    ______ ____
ROOT
ATOM      1  C   UNL     1      -2.637  -0.384  -0.016  0.00  0.00    +0.252 C 
ATOM      2  O   UNL     1      -3.232  -0.153  -1.051  0.00  0.00    -0.270 OA
ATOM      3  N   UNL     1      -3.242  -0.176   1.170  0.00  0.00    -0.296 N 
ATOM      4  C   UNL     1      -2.682  -0.392   2.525  0.00  0.00    +0.121 C 
ATOM      5  C   UNL     1      -3.208   0.798   3.358  0.00  0.00    +0.100 C 
ATOM      6  C   UNL     1      -4.479   1.259   2.625  0.00  0.00    -0.004 C 
ATOM      7  C   UNL     1      -4.616   0.325   1.414  0.00  0.00    +0.115 C 
ATOM      8  C   UNL     1      -5.694   1.123   3.538  0.00  0.00    -0.010 C 
ATOM      9  C   UNL     1      -6.936   1.641   2.807  0.00  0.00    -0.082 C 
ATOM     10  N   UNL     1      -6.736   3.046   2.433  0.00  0.00    +0.379 N 
ATOM     11  C   UNL     1      -5.623   3.157   1.482  0.00  0.00    -0.082 C 
ATOM     12  C   UNL     1      -4.325   2.703   2.157  0.00  0.00    -0.010 C 
ATOM     13  H   UNL     1      -7.577   3.403   2.006  0.00  0.00    -0.086 HD
ATOM     14  H   UNL     1      -6.525   3.587   3.259  0.00  0.00    -0.086 HD
ENDROOT
BRANCH   1  17
ATOM     15  C   UNL     1      -0.045   1.361  -0.041  0.00  0.00    +0.090 C 
ATOM     16  C   UNL     1      -0.114  -0.144  -0.070  0.00  0.00    +0.147 A 
ATOM     17  C   UNL     1      -1.255  -0.891  -0.059  0.00  0.00    +0.106 A 
ATOM     18  C   UNL     1      -0.839  -2.301  -0.098  0.00  0.00    +0.127 A 
ATOM     19  N   UNL     1       0.470  -2.311  -0.128  0.00  0.00    -0.077 NA
ATOM     20  O   UNL     1       0.930  -0.975  -0.117  0.00  0.00    -0.359 OA
BRANCH  18  21
ATOM     21  C   UNL     1      -1.731  -3.486  -0.102  0.00  0.00    +0.023 A 
ATOM     22  C   UNL     1      -3.115  -3.320  -0.072  0.00  0.00    +0.011 A 
ATOM     23  C   UNL     1      -3.940  -4.426  -0.076  0.00  0.00    +0.001 A 
ATOM     24  C   UNL     1      -3.397  -5.698  -0.109  0.00  0.00    +0.001 A 
ATOM     25  C   UNL     1      -2.026  -5.870  -0.138  0.00  0.00    +0.020 A 
ATOM     26  C   UNL     1      -1.189  -4.771  -0.141  0.00  0.00    +0.050 A 
ATOM     27 CL   UNL     1       0.533  -4.987  -0.185  0.00  0.00    -0.083 Cl
ENDBRANCH  18  21
ENDBRANCH   1  17
BRANCH   5  28
ATOM     28  C   UNL     1      -3.540   0.352   4.759  0.00  0.00    +0.218 C 
ATOM     29  O   UNL     1      -3.931  -0.778   4.959  0.00  0.00    -0.275 OA
ATOM     30  N   UNL     1      -3.402   1.210   5.790  0.00  0.00    -0.312 N 
ATOM     31  H   UNL     1      -3.090   2.114   5.630  0.00  0.00    +0.149 HD
BRANCH  30  32
ATOM     32  C   UNL     1      -3.725   0.776   7.151  0.00  0.00    +0.076 C 
ATOM     33  C   UNL     1      -2.511   0.074   7.764  0.00  0.00    +0.022 C 
ATOM     34  C   UNL     1      -2.848  -0.379   9.186  0.00  0.00    +0.002 C 
ATOM     35  C   UNL     1      -3.215   0.839  10.036  0.00  0.00    +0.003 C 
ATOM     36  C   UNL     1      -4.429   1.541   9.423  0.00  0.00    -0.009 C 
ATOM     37  C   UNL     1      -4.092   1.994   8.001  0.00  0.00    +0.009 C 
ATOM     38  C   UNL     1      -5.306   2.696   7.389  0.00  0.00    +0.009 C 
ATOM     39  C   UNL     1      -5.612   0.572   9.383  0.00  0.00    +0.008 C 
ENDBRANCH  30  32
ENDBRANCH   5  28
TORSDOF 4
