REMARK  Name = ZINC13469899
REMARK  7 active torsions:
REMARK  status: ('A' for Active; 'I' for Inactive)
REMARK    1  A    between atoms: C_6  and  C_7
REMARK    2  A    between atoms: C_10  and  C_13
REMARK    3  A    between atoms: C_13  and  C_15
REMARK    4  A    between atoms: C_13  and  O_30
REMARK    5  A    between atoms: C_15  and  C_17
REMARK    6  A    between atoms: C_15  and  O_29
REMARK    7  A    between atoms: C_23  and  C_27
REMARK                            x       y       z     vdW  Elec       q    Type
REMARK                         _______ _______ _______ _____ _____    ______ ____
ROOT
ATOM      1  C   UNL     1       5.971   0.737  -0.051  0.00  0.00    +0.216 C 
ENDROOT
BRANCH   1   9
ATOM      2  C   UNL     1      -0.017   1.397   0.010  0.00  0.00    +0.021 A 
ATOM      3  C   UNL     1       1.150   2.105   0.002  0.00  0.00    +0.029 A 
ATOM      4  C   UNL     1       2.370   1.439  -0.013  0.00  0.00    +0.066 A 
ATOM      5  C   UNL     1       2.408   0.033  -0.021  0.00  0.00    +0.090 A 
ATOM      6  C   UNL     1       1.214  -0.687  -0.014  0.00  0.00    +0.048 A 
ATOM      7  C   UNL     1       0.002  -0.004   0.002  0.00  0.00    +0.054 A 
ATOM      8  N   UNL     1       3.718  -0.328  -0.035  0.00  0.00    -0.230 NA
ATOM      9  C   UNL     1       4.464   0.738  -0.037  0.00  0.00    +0.140 A 
ATOM     10  N   UNL     1       3.685   1.854  -0.023  0.00  0.00    -0.340 N 
ATOM     11  H   UNL     1       3.998   2.772  -0.021  0.00  0.00    +0.167 HD
BRANCH   7  12
ATOM     12  C   UNL     1      -1.229  -0.735   0.010  0.00  0.00    +0.099 C 
ATOM     13  N   UNL     1      -2.206  -1.315   0.016  0.00  0.00    -0.191 NA
ENDBRANCH   7  12
ENDBRANCH   1   9
BRANCH   1  14
ATOM     14  O   UNL     1       6.449   2.078   0.070  0.00  0.00    -0.381 OA
ATOM     15  H   UNL     1       6.171   2.523   0.882  0.00  0.00    +0.210 HD
ENDBRANCH   1  14
BRANCH   1  16
ATOM     16  C   UNL     1       6.491  -0.097   1.122  0.00  0.00    +0.216 C 
BRANCH  16  17
ATOM     17  C   UNL     1       7.998  -0.098   1.108  0.00  0.00    +0.140 A 
ATOM     18  N   UNL     1       8.787   0.272   2.153  0.00  0.00    -0.340 N 
ATOM     19  H   UNL     1       8.483   0.577   3.022  0.00  0.00    +0.167 HD
ATOM     20  C   UNL     1      10.098   0.132   1.748  0.00  0.00    +0.066 A 
ATOM     21  C   UNL     1      11.325   0.352   2.365  0.00  0.00    +0.029 A 
ATOM     22  C   UNL     1      12.485   0.116   1.686  0.00  0.00    +0.021 A 
ATOM     23  C   UNL     1      12.452  -0.350   0.364  0.00  0.00    +0.054 A 
ATOM     24  C   UNL     1      11.233  -0.576  -0.268  0.00  0.00    +0.048 A 
ATOM     25  C   UNL     1      10.046  -0.335   0.423  0.00  0.00    +0.090 A 
ATOM     26  N   UNL     1       8.733  -0.458   0.097  0.00  0.00    -0.230 NA
BRANCH  23  27
ATOM     27  C   UNL     1      13.677  -0.593  -0.337  0.00  0.00    +0.099 C 
ATOM     28  N   UNL     1      14.648  -0.786  -0.894  0.00  0.00    -0.191 NA
ENDBRANCH  23  27
ENDBRANCH  16  17
BRANCH  16  29
ATOM     29  O   UNL     1       6.013  -1.438   1.001  0.00  0.00    -0.381 OA
ATOM     30  H   UNL     1       6.290  -1.883   0.189  0.00  0.00    +0.210 HD
ENDBRANCH  16  29
ENDBRANCH   1  16
TORSDOF 7
