REMARK  Name = ZINC11376560
REMARK  11 active torsions:
REMARK  status: ('A' for Active; 'I' for Inactive)
REMARK    1  A    between atoms: C_1  and  C_2
REMARK    2  A    between atoms: C_2  and  C_4
REMARK    3  A    between atoms: C_2  and  N_10
REMARK    4  A    between atoms: C_11  and  C_13
REMARK    5  A    between atoms: C_18  and  N_19
REMARK    6  A    between atoms: C_20  and  C_22
REMARK    7  A    between atoms: C_22  and  N_23
REMARK    8  A    between atoms: C_26  and  C_30
REMARK    9  A    between atoms: C_26  and  C_31
REMARK   10  A    between atoms: C_31  and  C_32
REMARK   11  A    between atoms: C_32  and  C_33
REMARK                            x       y       z     vdW  Elec       q    Type
REMARK                         _______ _______ _______ _____ _____    ______ ____
ROOT
ATOM      1  N   UNL     1      -0.328  -0.349  -4.985  0.00  0.00    -0.284 N 
ATOM      2  C   UNL     1      -0.107  -0.857  -6.213  0.00  0.00    +0.235 C 
ATOM      3  O   UNL     1      -0.565  -0.303  -7.191  0.00  0.00    -0.274 OA
ATOM      4  H   UNL     1       0.101  -0.746  -4.211  0.00  0.00    +0.155 HD
ENDROOT
BRANCH   1  10
ATOM      5  C   UNL     1      -0.902   1.710  -3.842  0.00  0.00    +0.058 A 
ATOM      6  C   UNL     1      -1.753   2.808  -3.698  0.00  0.00    +0.015 A 
ATOM      7  C   UNL     1      -2.853   2.937  -4.517  0.00  0.00    +0.001 A 
ATOM      8  C   UNL     1      -3.120   1.982  -5.486  0.00  0.00    +0.002 A 
ATOM      9  C   UNL     1      -2.288   0.892  -5.640  0.00  0.00    +0.024 A 
ATOM     10  C   UNL     1      -1.172   0.748  -4.827  0.00  0.00    +0.046 A 
BRANCH   5  12
ATOM     11  N   UNL     1       0.594   2.543  -2.096  0.00  0.00    -0.305 N 
ATOM     12  C   UNL     1       0.278   1.565  -2.969  0.00  0.00    +0.246 C 
ATOM     13  O   UNL     1       0.966   0.565  -3.035  0.00  0.00    -0.270 OA
ATOM     14  H   UNL     1       0.046   3.341  -2.043  0.00  0.00    +0.150 HD
BRANCH  11  16
ATOM     15  C   UNL     1       3.016   2.866  -1.979  0.00  0.00    +0.033 C 
ATOM     16  C   UNL     1       1.766   2.400  -1.229  0.00  0.00    +0.100 C 
BRANCH  16  17
ATOM     17  C   UNL     1       1.580   3.239   0.009  0.00  0.00    -0.027 A 
ATOM     18  C   UNL     1       1.017   4.498  -0.088  0.00  0.00    +0.005 A 
ATOM     19  C   UNL     1       0.843   5.266   1.048  0.00  0.00    +0.000 A 
ATOM     20  C   UNL     1       1.240   4.780   2.279  0.00  0.00    +0.000 A 
ATOM     21  C   UNL     1       1.808   3.523   2.375  0.00  0.00    +0.000 A 
ATOM     22  C   UNL     1       1.978   2.753   1.240  0.00  0.00    +0.005 A 
ENDBRANCH  16  17
ENDBRANCH  11  16
ENDBRANCH   5  12
ENDBRANCH   1  10
BRANCH   2  23
ATOM     23  C   UNL     1       0.710  -2.114  -6.373  0.00  0.00    +0.214 C 
BRANCH  23  24
ATOM     24  N   UNL     1       0.805  -2.457  -7.794  0.00  0.00    -0.215 N 
ATOM     25  C   UNL     1       1.780  -2.022  -8.615  0.00  0.00    +0.247 C 
ATOM     26  O   UNL     1       2.709  -1.298  -8.329  0.00  0.00    -0.273 OA
ATOM     27  C   UNL     1       1.474  -2.624  -9.972  0.00  0.00    +0.110 C 
ATOM     28  N   UNL     1       0.246  -3.403  -9.735  0.00  0.00    -0.285 N 
ATOM     29  C   UNL     1      -0.064  -3.248  -8.435  0.00  0.00    +0.310 C 
ATOM     30  O   UNL     1      -1.027  -3.764  -7.904  0.00  0.00    -0.252 OA
ATOM     31  C   UNL     1       1.223  -1.524 -11.005  0.00  0.00    +0.041 C 
ATOM     32  H   UNL     1      -0.242  -3.928 -10.389  0.00  0.00    +0.151 HD
BRANCH  27  33
ATOM     33  C   UNL     1       2.615  -3.537 -10.425  0.00  0.00    +0.039 C 
BRANCH  33  34
ATOM     34  C   UNL     1       2.279  -4.131 -11.795  0.00  0.00    +0.037 C 
BRANCH  34  35
ATOM     35  C   UNL     1       3.403  -5.030 -12.242  0.00  0.00    -0.047 A 
ATOM     36  C   UNL     1       4.448  -4.513 -12.985  0.00  0.00    +0.003 A 
ATOM     37  C   UNL     1       5.481  -5.337 -13.390  0.00  0.00    +0.000 A 
ATOM     38  C   UNL     1       5.465  -6.679 -13.062  0.00  0.00    +0.000 A 
ATOM     39  C   UNL     1       4.417  -7.197 -12.323  0.00  0.00    +0.000 A 
ATOM     40  C   UNL     1       3.386  -6.372 -11.913  0.00  0.00    +0.003 A 
ENDBRANCH  34  35
ENDBRANCH  33  34
ENDBRANCH  27  33
ENDBRANCH  23  24
ENDBRANCH   2  23
TORSDOF 9
