REMARK  Name = ZINC08789530
REMARK  6 active torsions:
REMARK  status: ('A' for Active; 'I' for Inactive)
REMARK    1  A    between atoms: C_1  and  O_2
REMARK    2  A    between atoms: O_2  and  C_3
REMARK    3  A    between atoms: C_6  and  C_9
REMARK    4  A    between atoms: C_9  and  N_10
REMARK    5  A    between atoms: C_15  and  C_32
REMARK    6  A    between atoms: C_32  and  C_33
REMARK                            x       y       z     vdW  Elec       q    Type
REMARK                         _______ _______ _______ _____ _____    ______ ____
ROOT
ATOM      1  N   UNL     1       1.137   2.568  -0.369  0.00  0.00    -0.237 N 
ATOM      2  C   UNL     1       0.104   1.808   0.012  0.00  0.00    +0.224 C 
ATOM      3  O   UNL     1       0.187   0.680   0.448  0.00  0.00    -0.275 OA
ATOM      4  C   UNL     1      -1.184   2.573  -0.193  0.00  0.00    +0.073 C 
ATOM      5  C   UNL     1      -1.992   1.916  -1.332  0.00  0.00    -0.049 C 
ATOM      6  C   UNL     1      -1.265   3.975  -2.199  0.00  0.00    +0.050 C 
ATOM      7  C   UNL     1      -0.705   3.934  -0.772  0.00  0.00    +0.088 C 
ATOM      8  C   UNL     1       0.799   3.780  -0.822  0.00  0.00    +0.225 C 
ATOM      9  O   UNL     1       1.576   4.624  -1.212  0.00  0.00    -0.275 OA
ATOM     10  C   UNL     1      -0.322   4.667  -3.141  0.00  0.00    -0.026 A 
ATOM     11  C   UNL     1       0.980   4.431  -3.523  0.00  0.00    +0.004 A 
ATOM     12  C   UNL     1       1.598   5.270  -4.433  0.00  0.00    +0.002 A 
ATOM     13  C   UNL     1       0.906   6.346  -4.959  0.00  0.00    +0.022 A 
ATOM     14  C   UNL     1      -0.400   6.585  -4.581  0.00  0.00    +0.062 A 
ATOM     15  C   UNL     1      -1.030   5.745  -3.665  0.00  0.00    +0.054 A 
ATOM     16  N   UNL     1      -2.322   5.777  -3.134  0.00  0.00    -0.285 N 
ATOM     17  C   UNL     1      -2.540   4.771  -2.265  0.00  0.00    +0.211 C 
ATOM     18  O   UNL     1      -3.564   4.551  -1.655  0.00  0.00    -0.277 OA
ATOM     19 CL   UNL     1      -1.260   7.938  -5.248  0.00  0.00    -0.082 Cl
ATOM     20  H   UNL     1      -2.985   6.447  -3.365  0.00  0.00    +0.155 HD
ATOM     21  N   UNL     1      -1.484   2.563  -2.544  0.00  0.00    +0.394 N 
ATOM     22  H   UNL     1      -2.172   2.485  -3.302  0.00  0.00    -0.083 HD
ATOM     23  H   UNL     1      -0.602   2.127  -2.836  0.00  0.00    -0.083 HD
ENDROOT
BRANCH   1  24
ATOM     24  C   UNL     1       2.527   2.109  -0.296  0.00  0.00    +0.151 C 
BRANCH  24  28
ATOM     25  C   UNL     1       3.586   0.185  -3.962  0.00  0.00    +0.120 A 
ATOM     26  C   UNL     1       3.784   1.550  -3.811  0.00  0.00    +0.046 A 
ATOM     27  C   UNL     1       3.441   2.170  -2.625  0.00  0.00    +0.009 A 
ATOM     28  C   UNL     1       2.900   1.431  -1.589  0.00  0.00    -0.029 A 
ATOM     29  C   UNL     1       2.707   0.069  -1.735  0.00  0.00    +0.009 A 
ATOM     30  C   UNL     1       3.043  -0.554  -2.921  0.00  0.00    +0.046 A 
BRANCH  25  32
ATOM     31  C   UNL     1       3.690  -1.834  -5.213  0.00  0.00    +0.277 C 
ATOM     32  O   UNL     1       3.922  -0.426  -5.128  0.00  0.00    -0.495 OA
ENDBRANCH  25  32
ENDBRANCH  24  28
ENDBRANCH   1  24
BRANCH   5  33
ATOM     33  C   UNL     1      -3.484   2.209  -1.163  0.00  0.00    +0.080 C 
BRANCH  33  34
ATOM     34  C   UNL     1      -4.128   1.100  -0.372  0.00  0.00    +0.209 C 
ATOM     35  O   UNL     1      -3.459   0.167   0.019  0.00  0.00    -0.276 OA
ATOM     36  N   UNL     1      -5.447   1.145  -0.098  0.00  0.00    -0.329 N 
ATOM     37  H   UNL     1      -5.982   1.891  -0.411  0.00  0.00    +0.145 HD
ATOM     38  H   UNL     1      -5.861   0.431   0.412  0.00  0.00    +0.145 HD
ENDBRANCH  33  34
ENDBRANCH   5  33
TORSDOF 5
