REMARK  Name = ZINC49429054
REMARK  5 active torsions:
REMARK  status: ('A' for Active; 'I' for Inactive)
REMARK    1  A    between atoms: C_1  and  C_2
REMARK    2  A    between atoms: C_5  and  C_26
REMARK    3  A    between atoms: C_6  and  N_8
REMARK    4  A    between atoms: C_9  and  C_11
REMARK    5  A    between atoms: N_20  and  C_21
REMARK                            x       y       z     vdW  Elec       q    Type
REMARK                         _______ _______ _______ _____ _____    ______ ____
ROOT
ATOM      1  C   UNL     1       0.277  -2.902   4.853  0.00  0.00    +0.093 C 
ATOM      2  C   UNL     1       0.371  -1.919   6.022  0.00  0.00    +0.016 C 
ATOM      3  C   UNL     1       0.471  -2.696   7.337  0.00  0.00    +0.020 C 
ATOM      4  C   UNL     1       1.740  -3.554   7.324  0.00  0.00    +0.109 C 
ATOM      5  N   UNL     1       1.726  -4.400   6.123  0.00  0.00    -0.285 N 
ATOM      6  C   UNL     1       1.544  -3.763   4.811  0.00  0.00    +0.122 C 
ATOM      7  C   UNL     1       1.877  -5.735   6.222  0.00  0.00    +0.307 C 
ATOM      8  O   UNL     1       1.956  -6.415   5.217  0.00  0.00    -0.252 OA
ATOM      9  N   UNL     1       1.942  -6.318   7.436  0.00  0.00    -0.264 N 
ATOM     10  H   UNL     1       1.954  -5.771   8.236  0.00  0.00    +0.157 HD
ENDROOT
BRANCH   9  11
ATOM     11  C   UNL     1       1.993  -7.711   7.540  0.00  0.00    +0.073 A 
ATOM     12  C   UNL     1       2.055  -8.486   8.659  0.00  0.00    +0.031 A 
ATOM     13  C   UNL     1       2.096  -9.861   8.516  0.00  0.00    +0.009 A 
ATOM     14  C   UNL     1       2.075 -10.394   7.271  0.00  0.00    +0.047 A 
ATOM     15  S   UNL     1       1.984  -8.938   6.243  0.00  0.00    -0.082 S 
ENDBRANCH   9  11
BRANCH   1  17
ATOM     16  N   UNL     1       0.049  -2.800   2.392  0.00  0.00    -0.285 N 
ATOM     17  C   UNL     1       0.146  -2.136   3.562  0.00  0.00    +0.222 C 
ATOM     18  O   UNL     1       0.129  -0.924   3.575  0.00  0.00    -0.275 OA
ATOM     19  H   UNL     1      -0.017  -3.767   2.387  0.00  0.00    +0.155 HD
BRANCH  16  25
ATOM     20  C   UNL     1       1.258   1.226  -0.158  0.00  0.00    +0.044 C 
ATOM     21  C   UNL     1       0.623  -0.138  -0.079  0.00  0.00    -0.049 A 
ATOM     22  C   UNL     1       0.034  -0.692  -1.202  0.00  0.00    +0.004 A 
ATOM     23  C   UNL     1      -0.549  -1.944  -1.133  0.00  0.00    +0.005 A 
ATOM     24  C   UNL     1      -0.545  -2.645   0.057  0.00  0.00    -0.029 A 
ATOM     25  C   UNL     1       0.045  -2.092   1.185  0.00  0.00    +0.037 A 
ATOM     26  C   UNL     1       0.634  -0.836   1.112  0.00  0.00    +0.027 A 
ATOM     27  C   UNL     1      -1.181  -4.009   0.130  0.00  0.00    +0.045 C 
ENDBRANCH  16  25
ENDBRANCH   1  17
TORSDOF 3
