REMARK  Name = ZINC52541557
REMARK  7 active torsions:
REMARK  status: ('A' for Active; 'I' for Inactive)
REMARK    1  A    between atoms: C_3  and  C_19
REMARK    2  A    between atoms: C_6  and  C_7
REMARK    3  A    between atoms: C_8  and  C_9
REMARK    4  A    between atoms: N_10  and  N_11
REMARK    5  A    between atoms: C_23  and  C_28
REMARK    6  A    between atoms: C_29  and  C_30
REMARK    7  A    between atoms: N_31  and  N_32
REMARK                            x       y       z     vdW  Elec       q    Type
REMARK                         _______ _______ _______ _____ _____    ______ ____
ROOT
ATOM      1  C   UNL     1       3.652   2.175  -0.021  0.00  0.00    +0.090 A 
ATOM      2  C   UNL     1       4.904   1.635  -0.042  0.00  0.00    +0.121 A 
ATOM      3  N   UNL     1       5.790   2.677  -0.043  0.00  0.00    -0.305 N 
ATOM      4  C   UNL     1       7.152   2.720  -0.059  0.00  0.00    +0.100 A 
ATOM      5  C   UNL     1       7.810   3.929  -0.056  0.00  0.00    -0.008 A 
ATOM      6  C   UNL     1       7.065   5.136  -0.035  0.00  0.00    +0.013 A 
ATOM      7  C   UNL     1       5.710   5.086  -0.019  0.00  0.00    +0.047 A 
ATOM      8  C   UNL     1       5.055   3.835  -0.023  0.00  0.00    +0.138 A 
ATOM      9  N   UNL     1       3.770   3.512  -0.015  0.00  0.00    -0.228 NA
ENDROOT
BRANCH   1  12
ATOM     10  C   UNL     1      -0.017   1.395   0.010  0.00  0.00    +0.008 A 
ATOM     11  C   UNL     1       1.162   2.096   0.002  0.00  0.00    +0.010 A 
ATOM     12  C   UNL     1       2.380   1.415  -0.013  0.00  0.00    +0.002 A 
ATOM     13  C   UNL     1       2.401   0.019  -0.021  0.00  0.00    +0.010 A 
ATOM     14  C   UNL     1       1.225  -0.685  -0.014  0.00  0.00    +0.008 A 
ATOM     15  C   UNL     1       0.002  -0.004   0.002  0.00  0.00    -0.025 A 
BRANCH  15  16
ATOM     16  C   UNL     1      -1.261  -0.758   0.010  0.00  0.00    +0.009 C 
ATOM     17  C   UNL     1      -1.241  -2.107   0.003  0.00  0.00    +0.022 C 
BRANCH  17  18
ATOM     18  C   UNL     1      -2.458  -2.834   0.010  0.00  0.00    +0.130 C 
ATOM     19  N   UNL     1      -2.440  -4.136   0.003  0.00  0.00    -0.188 NA
BRANCH  19  20
ATOM     20  N   UNL     1      -3.643  -4.854   0.011  0.00  0.00    -0.211 N 
ATOM     21  C   UNL     1      -3.623  -6.230   0.003  0.00  0.00    +0.174 C 
ATOM     22  N   UNL     1      -2.485  -6.866  -0.011  0.00  0.00    -0.374 N 
ATOM     23  N   UNL     1      -4.804  -6.935   0.011  0.00  0.00    -0.304 N 
ATOM     24  C   UNL     1      -6.152  -6.348   0.020  0.00  0.00    +0.108 C 
ATOM     25  C   UNL     1      -7.160  -7.516   0.053  0.00  0.00    +0.020 C 
ATOM     26  C   UNL     1      -6.319  -8.685   0.630  0.00  0.00    +0.020 C 
ATOM     27  C   UNL     1      -4.928  -8.404   0.004  0.00  0.00    +0.108 C 
ATOM     28  H   UNL     1      -4.489  -4.381   0.021  0.00  0.00    +0.177 HD
ATOM     29  H   UNL     1      -2.471  -7.835  -0.016  0.00  0.00    +0.158 HD
ATOM     30  H   UNL     1      -1.652  -6.369  -0.016  0.00  0.00    +0.158 HD
ENDBRANCH  19  20
ENDBRANCH  17  18
ENDBRANCH  15  16
ENDBRANCH   1  12
BRANCH   5  31
ATOM     31  C   UNL     1       9.281   3.969  -0.073  0.00  0.00    +0.011 C 
ATOM     32  C   UNL     1       9.923   5.155  -0.070  0.00  0.00    +0.022 C 
BRANCH  32  33
ATOM     33  C   UNL     1      11.341   5.194  -0.086  0.00  0.00    +0.130 C 
ATOM     34  N   UNL     1      11.961   6.339  -0.083  0.00  0.00    -0.188 NA
BRANCH  34  35
ATOM     35  N   UNL     1      13.361   6.378  -0.100  0.00  0.00    -0.211 N 
ATOM     36  C   UNL     1      14.016   7.587  -0.096  0.00  0.00    +0.174 C 
ATOM     37  N   UNL     1      13.334   8.698  -0.078  0.00  0.00    -0.374 N 
ATOM     38  N   UNL     1      15.392   7.625  -0.112  0.00  0.00    -0.304 N 
ATOM     39  C   UNL     1      16.280   6.454  -0.140  0.00  0.00    +0.108 C 
ATOM     40  C   UNL     1      17.731   6.980  -0.124  0.00  0.00    +0.020 C 
ATOM     41  C   UNL     1      17.579   8.400   0.483  0.00  0.00    +0.020 C 
ATOM     42  C   UNL     1      16.218   8.846  -0.111  0.00  0.00    +0.108 C 
ATOM     43  H   UNL     1      13.869   5.551  -0.113  0.00  0.00    +0.177 HD
ATOM     44  H   UNL     1      13.796   9.551  -0.076  0.00  0.00    +0.158 HD
ATOM     45  H   UNL     1      12.364   8.672  -0.067  0.00  0.00    +0.158 HD
ENDBRANCH  34  35
ENDBRANCH  32  33
ENDBRANCH   5  31
TORSDOF 7
