REMARK  Name = ZINC67274769
REMARK  4 active torsions:
REMARK  status: ('A' for Active; 'I' for Inactive)
REMARK    1  A    between atoms: C_4  and  C_7
REMARK    2  A    between atoms: C_7  and  C_8
REMARK    3  A    between atoms: N_10  and  N_11
REMARK    4  A    between atoms: C_12  and  C_14
REMARK                            x       y       z     vdW  Elec       q    Type
REMARK                         _______ _______ _______ _____ _____    ______ ____
ROOT
ATOM      1  N   UNL     1       3.785  -4.053   3.327  0.00  0.00    -0.234 N 
ATOM      2  C   UNL     1       4.406  -4.723   4.318  0.00  0.00    +0.232 C 
ATOM      3  O   UNL     1       4.862  -4.119   5.265  0.00  0.00    -0.274 OA
ATOM      4  H   UNL     1       3.421  -4.536   2.569  0.00  0.00    +0.173 HD
ENDROOT
BRANCH   2   5
ATOM      5  C   UNL     1       4.534  -6.223   4.248  0.00  0.00    +0.077 C 
ATOM      6  C   UNL     1       3.140  -6.851   4.193  0.00  0.00    +0.015 C 
ATOM      7  C   UNL     1       3.272  -8.374   4.110  0.00  0.00    +0.036 C 
ATOM      8  C   UNL     1       4.032  -8.889   5.327  0.00  0.00    +0.112 C 
ATOM      9  C   UNL     1       5.414  -8.252   5.410  0.00  0.00    +0.036 C 
ATOM     10  C   UNL     1       5.274  -6.729   5.488  0.00  0.00    +0.015 C 
ATOM     11  C   UNL     1       3.249  -8.618   6.591  0.00  0.00    +0.244 C 
ATOM     12  O   UNL     1       2.919  -7.539   7.033  0.00  0.00    -0.273 OA
ATOM     13  N   UNL     1       2.995  -9.831   7.125  0.00  0.00    -0.238 N 
ATOM     14  C   UNL     1       3.506 -10.816   6.375  0.00  0.00    +0.307 C 
ATOM     15  O   UNL     1       3.406 -11.996   6.650  0.00  0.00    -0.252 OA
ATOM     16  N   UNL     1       4.142 -10.353   5.283  0.00  0.00    -0.285 N 
ATOM     17  H   UNL     1       2.503  -9.972   7.949  0.00  0.00    +0.159 HD
ATOM     18  H   UNL     1       4.586 -10.881   4.601  0.00  0.00    +0.151 HD
ENDBRANCH   2   5
BRANCH   1  21
ATOM     19  C   UNL     1       3.045  -1.988   2.401  0.00  0.00    +0.229 C 
ATOM     20  O   UNL     1       2.590  -2.592   1.453  0.00  0.00    -0.274 OA
ATOM     21  N   UNL     1       3.666  -2.658   3.392  0.00  0.00    -0.234 N 
ATOM     22  H   UNL     1       4.031  -2.175   4.149  0.00  0.00    +0.173 HD
BRANCH  19  23
ATOM     23  C   UNL     1       2.917  -0.488   2.470  0.00  0.00    +0.101 C 
BRANCH  23  27
ATOM     24  C   UNL     1      -0.019   1.526   0.010  0.00  0.00    +0.000 C 
ATOM     25  C   UNL     1       1.417   2.055  -0.000  0.00  0.00    +0.000 C 
ATOM     26  C   UNL     1       2.157   1.548   1.239  0.00  0.00    +0.004 C 
ATOM     27  C   UNL     1       2.178   0.019   1.231  0.00  0.00    -0.002 C 
ATOM     28  C   UNL     1       0.742  -0.511   1.242  0.00  0.00    +0.004 C 
ATOM     29  C   UNL     1       0.002  -0.004   0.002  0.00  0.00    +0.000 C 
ENDBRANCH  23  27
ENDBRANCH  19  23
ENDBRANCH   1  21
TORSDOF 4
