REMARK  Name = ZINC55528327
REMARK  10 active torsions:
REMARK  status: ('A' for Active; 'I' for Inactive)
REMARK    1  A    between atoms: C_1  and  C_2
REMARK    2  A    between atoms: C_4  and  C_13
REMARK    3  A    between atoms: C_6  and  C_12
REMARK    4  A    between atoms: N_8  and  C_11
REMARK    5  A    between atoms: N_15  and  N_16
REMARK    6  A    between atoms: N_16  and  C_17
REMARK    7  A    between atoms: C_17  and  N_19
REMARK    8  A    between atoms: N_19  and  C_20
REMARK    9  A    between atoms: C_25  and  C_30
REMARK   10  A    between atoms: C_27  and  C_29
REMARK                            x       y       z     vdW  Elec       q    Type
REMARK                         _______ _______ _______ _____ _____    ______ ____
ROOT
ATOM      1  C   UNL     1       0.502  -3.045  -2.343  0.00  0.00    +0.261 C 
ATOM      2  O   UNL     1       0.453  -4.258  -2.297  0.00  0.00    -0.269 OA
ATOM      3  N   UNL     1       0.634  -2.420  -3.530  0.00  0.00    -0.231 N 
ATOM      4  H   UNL     1       0.674  -1.452  -3.566  0.00  0.00    +0.173 HD
ENDROOT
BRANCH   1   8
ATOM      5  C   UNL     1       1.905   0.856   0.447  0.00  0.00    +0.065 C 
ATOM      6  C   UNL     1       1.075  -0.388   0.263  0.00  0.00    +0.041 A 
ATOM      7  C   UNL     1       1.183  -1.103  -0.921  0.00  0.00    +0.037 A 
ATOM      8  C   UNL     1       0.418  -2.254  -1.096  0.00  0.00    +0.052 A 
ATOM      9  C   UNL     1      -0.443  -2.640  -0.044  0.00  0.00    +0.054 A 
ATOM     10  C   UNL     1      -1.343  -3.711   0.140  0.00  0.00    +0.070 A 
ATOM     11  N   UNL     1      -1.893  -3.593   1.315  0.00  0.00    -0.174 NA
ATOM     12  N   UNL     1      -1.392  -2.455   1.960  0.00  0.00    -0.249 N 
ATOM     13  C   UNL     1      -0.488  -1.853   1.124  0.00  0.00    +0.159 A 
ATOM     14  N   UNL     1       0.271  -0.771   1.229  0.00  0.00    -0.233 NA
ATOM     15  C   UNL     1      -1.769  -1.990   3.297  0.00  0.00    +0.174 C 
ATOM     16  C   UNL     1      -1.622  -4.807  -0.855  0.00  0.00    +0.068 C 
ENDBRANCH   1   8
BRANCH   3  17
ATOM     17  N   UNL     1       0.715  -3.170  -4.711  0.00  0.00    -0.246 N 
ATOM     18  H   UNL     1       0.675  -4.138  -4.674  0.00  0.00    +0.172 HD
BRANCH  17  19
ATOM     19  C   UNL     1       0.847  -2.545  -5.897  0.00  0.00    +0.147 C 
ATOM     20  S   UNL     1       0.945  -3.460  -7.341  0.00  0.00    -0.017 S 
BRANCH  19  21
ATOM     21  N   UNL     1       0.902  -1.199  -5.948  0.00  0.00    -0.322 N 
ATOM     22  H   UNL     1       0.846  -0.680  -5.130  0.00  0.00    +0.148 HD
BRANCH  21  23
ATOM     23  C   UNL     1       1.045  -0.520  -7.238  0.00  0.00    +0.075 C 
ATOM     24  C   UNL     1       2.526  -0.448  -7.615  0.00  0.00    +0.022 C 
ATOM     25  C   UNL     1       3.288   0.331  -6.541  0.00  0.00    +0.002 C 
ATOM     26  C   UNL     1       2.719   1.747  -6.438  0.00  0.00    +0.003 C 
ATOM     27  C   UNL     1       1.238   1.675  -6.061  0.00  0.00    -0.009 C 
ATOM     28  C   UNL     1       0.476   0.897  -7.135  0.00  0.00    +0.009 C 
ATOM     29  C   UNL     1      -1.005   0.825  -6.759  0.00  0.00    +0.009 C 
ATOM     30  C   UNL     1       0.669   3.092  -5.958  0.00  0.00    +0.008 C 
ENDBRANCH  21  23
ENDBRANCH  19  21
ENDBRANCH  17  19
ENDBRANCH   3  17
TORSDOF 5
