REMARK  Name = ZINC14095613
REMARK  6 active torsions:
REMARK  status: ('A' for Active; 'I' for Inactive)
REMARK    1  A    between atoms: C_1  and  C_2
REMARK    2  A    between atoms: C_9  and  C_11
REMARK    3  A    between atoms: C_14  and  S_16
REMARK    4  A    between atoms: S_16  and  C_17
REMARK    5  A    between atoms: C_17  and  C_18
REMARK    6  A    between atoms: N_24  and  C_25
REMARK                            x       y       z     vdW  Elec       q    Type
REMARK                         _______ _______ _______ _____ _____    ______ ____
ROOT
ATOM      1  C   UNL     1      -7.185  -0.560   0.007  0.00  0.00    +0.155 C 
ENDROOT
BRANCH   1   2
ATOM      2  C   UNL     1      -8.691  -0.497   0.032  0.00  0.00    +0.146 A 
ATOM      3  N   UNL     1      -9.375  -0.629  -1.091  0.00  0.00    -0.199 NA
ATOM      4  C   UNL     1     -10.704  -0.574  -1.073  0.00  0.00    +0.217 A 
ATOM      5  N   UNL     1     -11.344  -0.385   0.076  0.00  0.00    -0.181 NA
ATOM      6  C   UNL     1     -10.653  -0.253   1.203  0.00  0.00    +0.224 A 
ATOM      7  N   UNL     1      -9.324  -0.315   1.178  0.00  0.00    -0.198 NA
ATOM      8  N   UNL     1     -11.314  -0.056   2.400  0.00  0.00    -0.284 N 
ATOM      9  N   UNL     1     -11.418  -0.712  -2.247  0.00  0.00    -0.327 N 
ATOM     10  H   UNL     1     -10.815  -0.040   3.232  0.00  0.00    +0.155 HD
ATOM     11  H   UNL     1     -10.950  -0.849  -3.085  0.00  0.00    +0.145 HD
ATOM     12  H   UNL     1     -12.387  -0.671  -2.233  0.00  0.00    +0.145 HD
BRANCH   8  13
ATOM     13  C   UNL     1     -12.701   0.118   2.413  0.00  0.00    +0.034 A 
ATOM     14  C   UNL     1     -13.331   0.767   1.358  0.00  0.00    +0.023 A 
ATOM     15  C   UNL     1     -14.701   0.934   1.371  0.00  0.00    +0.002 A 
ATOM     16  C   UNL     1     -15.446   0.465   2.438  0.00  0.00    +0.000 A 
ATOM     17  C   UNL     1     -14.822  -0.177   3.492  0.00  0.00    +0.002 A 
ATOM     18  C   UNL     1     -13.452  -0.351   3.482  0.00  0.00    +0.023 A 
ENDBRANCH   8  13
ENDBRANCH   1   2
BRANCH   1  19
ATOM     19  S   UNL     1      -6.516   1.103  -0.242  0.00  0.00    -0.058 S 
BRANCH  19  23
ATOM     20  C   UNL     1      -2.639   0.926  -0.305  0.00  0.00    +0.256 A 
ATOM     21  N   UNL     1      -2.965  -0.332  -0.119  0.00  0.00    -0.106 NA
ATOM     22  N   UNL     1      -4.246  -0.440  -0.075  0.00  0.00    -0.101 NA
ATOM     23  C   UNL     1      -4.791   0.743  -0.230  0.00  0.00    +0.278 A 
ATOM     24  O   UNL     1      -3.790   1.634  -0.373  0.00  0.00    -0.410 OA
BRANCH  20  32
ATOM     25  C   UNL     1       4.920   1.250  -0.856  0.00  0.00    +0.008 C 
ATOM     26  C   UNL     1       3.512   1.813  -1.058  0.00  0.00    -0.009 C 
ATOM     27  C   UNL     1       3.420   3.194  -0.403  0.00  0.00    +0.009 C 
ATOM     28  C   UNL     1       2.104   3.858  -0.836  0.00  0.00    +0.043 C 
ATOM     29  C   UNL     1       0.999   2.866  -0.666  0.00  0.00    -0.006 A 
ATOM     30  C   UNL     1       1.113   1.520  -0.480  0.00  0.00    -0.036 A 
ATOM     31  C   UNL     1      -0.069   0.803  -0.346  0.00  0.00    +0.024 A 
ATOM     32  C   UNL     1      -1.276   1.467  -0.412  0.00  0.00    +0.076 A 
ATOM     33  S   UNL     1      -0.750   3.157  -0.659  0.00  0.00    -0.088 S 
ATOM     34  C   UNL     1       2.491   0.866  -0.426  0.00  0.00    +0.039 C 
ENDBRANCH  20  32
ENDBRANCH  19  23
ENDBRANCH   1  19
TORSDOF 5
