REMARK  Name = ZINC39617852
REMARK  14 active torsions:
REMARK  status: ('A' for Active; 'I' for Inactive)
REMARK    1  A    between atoms: C_1  and  C_2
REMARK    2  A    between atoms: C_2  and  O_3
REMARK    3  A    between atoms: O_3  and  C_4
REMARK    4  A    between atoms: C_4  and  C_6
REMARK    5  A    between atoms: C_7  and  C_14
REMARK    6  A    between atoms: C_8  and  C_13
REMARK    7  A    between atoms: C_10  and  C_12
REMARK    8  A    between atoms: C_14  and  C_16
REMARK    9  A    between atoms: C_16  and  O_17
REMARK   10  A    between atoms: O_17  and  C_18
REMARK   11  A    between atoms: C_18  and  C_20
REMARK   12  A    between atoms: C_23  and  N_26
REMARK   13  A    between atoms: C_30  and  S_32
REMARK   14  A    between atoms: S_32  and  C_33
REMARK                            x       y       z     vdW  Elec       q    Type
REMARK                         _______ _______ _______ _____ _____    ______ ____
ROOT
ATOM      1  O   UNL     1       0.303  -7.241  -1.557  0.00  0.00    -0.453 OA
ENDROOT
BRANCH   1   2
ATOM      2  C   UNL     1      -0.117  -8.387  -2.127  0.00  0.00    +0.340 C 
ATOM      3  O   UNL     1       0.201  -8.649  -3.270  0.00  0.00    -0.245 OA
BRANCH   2   4
ATOM      4  C   UNL     1      -0.963  -9.323  -1.365  0.00  0.00    +0.059 A 
ATOM      5  C   UNL     1      -1.336  -9.021  -0.051  0.00  0.00    +0.017 A 
ATOM      6  C   UNL     1      -2.126  -9.896   0.657  0.00  0.00    +0.028 A 
ATOM      7  C   UNL     1      -2.555 -11.082   0.068  0.00  0.00    +0.067 A 
ATOM      8  C   UNL     1      -2.186 -11.387  -1.239  0.00  0.00    +0.028 A 
ATOM      9  C   UNL     1      -1.400 -10.513  -1.955  0.00  0.00    +0.017 A 
BRANCH   7  10
ATOM     10  N   UNL     1      -3.354 -11.967   0.789  0.00  0.00    -0.217 N 
ATOM     11  C   UNL     1      -3.046 -13.287   0.850  0.00  0.00    +0.150 A 
ATOM     12  S   UNL     1      -1.737 -14.131   0.139  0.00  0.00    -0.023 S 
ATOM     13  S   UNL     1      -4.373 -13.905   1.873  0.00  0.00    -0.034 S 
ATOM     14  C   UNL     1      -5.221 -12.354   2.130  0.00  0.00    +0.157 A 
ATOM     15  N   UNL     1      -4.470 -11.519   1.458  0.00  0.00    -0.151 NA
BRANCH  14  16
ATOM     16  S   UNL     1      -6.687 -12.032   3.054  0.00  0.00    -0.100 S 
ATOM     17  C   UNL     1      -6.943 -10.246   2.861  0.00  0.00    +0.092 C 
ENDBRANCH  14  16
ENDBRANCH   7  10
ENDBRANCH   2   4
ENDBRANCH   1   2
BRANCH   1  18
ATOM     18  C   UNL     1       1.120  -6.381  -2.354  0.00  0.00    +0.312 C 
BRANCH  18  19
ATOM     19  C   UNL     1       1.490  -5.158  -1.555  0.00  0.00    +0.203 C 
ATOM     20  O   UNL     1       1.167  -5.074  -0.394  0.00  0.00    -0.288 OA
BRANCH  19  22
ATOM     21  C   UNL     1       2.577  -2.880  -1.602  0.00  0.00    +0.073 C 
ATOM     22  C   UNL     1       2.247  -4.063  -2.191  0.00  0.00    +0.053 C 
ATOM     23  C   UNL     1       2.769  -4.068  -3.567  0.00  0.00    +0.045 C 
ATOM     24  N   UNL     1       3.386  -2.970  -3.834  0.00  0.00    -0.280 NA
ATOM     25  C   UNL     1       3.337  -2.100  -2.653  0.00  0.00    +0.140 C 
ATOM     26  C   UNL     1       4.754  -1.796  -2.164  0.00  0.00    +0.038 C 
ATOM     27  C   UNL     1       2.604  -5.210  -4.536  0.00  0.00    +0.066 C 
BRANCH  21  28
ATOM     28  C   UNL     1       2.257  -2.447  -0.229  0.00  0.00    +0.338 C 
ATOM     29  O   UNL     1       1.636  -3.183   0.511  0.00  0.00    -0.245 OA
BRANCH  28  30
ATOM     30  O   UNL     1       2.653  -1.234   0.206  0.00  0.00    -0.462 OA
BRANCH  30  32
ATOM     31  C   UNL     1       2.838   0.521   1.857  0.00  0.00    +0.048 C 
ATOM     32  C   UNL     1       2.308  -0.880   1.547  0.00  0.00    +0.229 C 
ENDBRANCH  30  32
ENDBRANCH  28  30
ENDBRANCH  21  28
ENDBRANCH  19  22
ENDBRANCH  18  19
ENDBRANCH   1  18
TORSDOF 10
