REMARK  Name = ZINC05204760
REMARK  5 active torsions:
REMARK  status: ('A' for Active; 'I' for Inactive)
REMARK    1  A    between atoms: C_6  and  C_7
REMARK    2  A    between atoms: C_10  and  C_13
REMARK    3  A    between atoms: C_13  and  N_14
REMARK    4  A    between atoms: N_14  and  C_15
REMARK    5  A    between atoms: C_18  and  C_20
REMARK                            x       y       z     vdW  Elec       q    Type
REMARK                         _______ _______ _______ _____ _____    ______ ____
ROOT
ATOM      1  C   UNL     1       4.860   0.278  -0.043  0.00  0.00    +0.150 C 
ENDROOT
BRANCH   1   5
ATOM      2  C   UNL     1       8.293  -0.682   0.824  0.00  0.00    +0.109 C 
ATOM      3  N   UNL     1       7.556  -1.511   1.482  0.00  0.00    -0.087 NA
ATOM      4  O   UNL     1       6.180  -1.383   1.181  0.00  0.00    -0.388 OA
ATOM      5  C   UNL     1       6.072  -0.655  -0.059  0.00  0.00    +0.227 C 
ATOM      6  C   UNL     1       7.392   0.151  -0.068  0.00  0.00    +0.109 C 
BRANCH   2  12
ATOM      7  C   UNL     1      10.486  -1.394   1.786  0.00  0.00    +0.049 A 
ATOM      8  C   UNL     1      11.861  -1.247   1.842  0.00  0.00    +0.116 A 
ATOM      9  N   UNL     1      12.447  -0.334   1.084  0.00  0.00    -0.223 NA
ATOM     10  C   UNL     1      11.736   0.439   0.275  0.00  0.00    +0.213 A 
ATOM     11  N   UNL     1      10.421   0.329   0.185  0.00  0.00    -0.213 NA
ATOM     12  C   UNL     1       9.763  -0.565   0.922  0.00  0.00    +0.093 A 
ATOM     13  N   UNL     1      12.389   1.381  -0.501  0.00  0.00    -0.327 N 
ATOM     14  H   UNL     1      13.353   1.470  -0.448  0.00  0.00    +0.145 HD
ATOM     15  H   UNL     1      11.881   1.953  -1.098  0.00  0.00    +0.145 HD
ENDBRANCH   2  12
ENDBRANCH   1   5
BRANCH   1  16
ATOM     16  N   UNL     1       3.630  -0.518  -0.035  0.00  0.00    -0.326 N 
ATOM     17  H   UNL     1       3.679  -1.487  -0.041  0.00  0.00    +0.148 HD
BRANCH  16  18
ATOM     18  C   UNL     1       2.392   0.115  -0.020  0.00  0.00    +0.115 A 
ATOM     19  C   UNL     1       1.227  -0.648  -0.013  0.00  0.00    +0.079 A 
ATOM     20  C   UNL     1       0.002  -0.004   0.002  0.00  0.00    +0.037 A 
ATOM     21  C   UNL     1      -0.017   1.385   0.010  0.00  0.00    +0.072 A 
ATOM     22  C   UNL     1       1.177   2.077   0.002  0.00  0.00    +0.096 A 
ATOM     23 CL   UNL     1       1.310  -2.382  -0.024  0.00  0.00    -0.080 Cl
ATOM     24  N   UNL     1       2.398   1.479  -0.013  0.00  0.00    -0.348 N 
ATOM     25  H   UNL     1       3.271   2.020  -0.019  0.00  0.00    +0.167 HD
BRANCH  21  26
ATOM     26  C   UNL     1      -1.328   2.128   0.020  0.00  0.00    +0.419 C 
ATOM     27  F   UNL     1      -1.727   2.351   1.342  0.00  0.00    -0.166 F 
ATOM     28  F   UNL     1      -1.173   3.355  -0.634  0.00  0.00    -0.166 F 
ATOM     29  F   UNL     1      -2.300   1.368  -0.639  0.00  0.00    -0.166 F 
ENDBRANCH  21  26
ENDBRANCH  16  18
ENDBRANCH   1  16
TORSDOF 5
