REMARK  Name = ZINC21263310
REMARK  11 active torsions:
REMARK  status: ('A' for Active; 'I' for Inactive)
REMARK    1  A    between atoms: C_1  and  C_2
REMARK    2  A    between atoms: C_2  and  C_31
REMARK    3  A    between atoms: C_4  and  N_10
REMARK    4  A    between atoms: C_6  and  C_8
REMARK    5  A    between atoms: C_6  and  C_9
REMARK    6  A    between atoms: N_10  and  C_11
REMARK    7  A    between atoms: C_11  and  N_13
REMARK    8  A    between atoms: N_13  and  C_14
REMARK    9  A    between atoms: N_13  and  C_24
REMARK   10  A    between atoms: C_14  and  C_15
REMARK   11  A    between atoms: C_24  and  C_25
REMARK                            x       y       z     vdW  Elec       q    Type
REMARK                         _______ _______ _______ _____ _____    ______ ____
ROOT
ATOM      1  N   UNL     1      -2.880   1.922   3.102  0.00  0.00    -0.306 N 
ENDROOT
BRANCH   1   2
ATOM      2  C   UNL     1      -1.918   2.445   3.889  0.00  0.00    +0.133 C 
ATOM      3  S   UNL     1      -1.792   1.956   5.524  0.00  0.00    -0.019 S 
BRANCH   2   4
ATOM      4  N   UNL     1      -1.057   3.352   3.388  0.00  0.00    -0.324 N 
ATOM      5  H   UNL     1      -1.138   3.667   2.337  0.00  0.00    +0.148 HD
BRANCH   4   9
ATOM      6  C   UNL     1       3.022   3.899   4.960  0.00  0.00    -0.010 C 
ATOM      7  C   UNL     1       2.250   5.010   4.239  0.00  0.00    -0.072 C 
ATOM      8  C   UNL     1       1.154   4.392   3.374  0.00  0.00    +0.009 C 
ATOM      9  C   UNL     1      -0.010   3.922   4.246  0.00  0.00    +0.069 C 
ATOM     10  C   UNL     1      -0.574   5.129   4.995  0.00  0.00    +0.009 C 
ATOM     11  C   UNL     1       0.501   5.754   5.880  0.00  0.00    -0.072 C 
ATOM     12  N   UNL     1       1.745   5.990   5.178  0.00  0.00    +0.386 N 
ATOM     13  C   UNL     1       0.722   4.874   7.117  0.00  0.00    -0.010 C 
ATOM     14  C   UNL     1      -0.038   7.114   6.377  0.00  0.00    -0.010 C 
ATOM     15  C   UNL     1       3.246   5.718   3.292  0.00  0.00    -0.010 C 
ATOM     16  H   UNL     1       2.479   6.137   5.984  0.00  0.00    -0.084 HD
ATOM     17  H   UNL     1       1.576   6.944   4.657  0.00  0.00    -0.084 HD
ENDBRANCH   4   9
ENDBRANCH   2   4
ENDBRANCH   1   2
BRANCH   1  18
ATOM     18  C   UNL     1      -3.816   0.936   3.646  0.00  0.00    +0.142 C 
BRANCH  18  19
ATOM     19  C   UNL     1      -3.256  -0.450   3.451  0.00  0.00    -0.026 A 
ATOM     20  C   UNL     1      -2.455  -1.013   4.427  0.00  0.00    +0.009 A 
ATOM     21  C   UNL     1      -1.938  -2.283   4.253  0.00  0.00    +0.050 A 
ATOM     22  C   UNL     1      -2.222  -2.995   3.099  0.00  0.00    +0.166 A 
ATOM     23  C   UNL     1      -3.029  -2.428   2.116  0.00  0.00    +0.167 A 
ATOM     24  C   UNL     1      -3.548  -1.156   2.300  0.00  0.00    +0.054 A 
ATOM     25  O   UNL     1      -3.158  -3.318   1.089  0.00  0.00    -0.453 OA
ATOM     26  C   UNL     1      -2.760  -4.591   1.632  0.00  0.00    +0.466 C 
ATOM     27  O   UNL     1      -1.845  -4.241   2.688  0.00  0.00    -0.453 OA
ENDBRANCH  18  19
ENDBRANCH   1  18
BRANCH   1  28
ATOM     28  C   UNL     1      -2.988   2.341   1.702  0.00  0.00    +0.138 C 
BRANCH  28  29
ATOM     29  C   UNL     1      -2.131   1.423   0.827  0.00  0.00    +0.136 C 
ATOM     30  C   UNL     1      -2.230   1.847  -0.655  0.00  0.00    +0.035 C 
ATOM     31  C   UNL     1      -0.804   1.620  -1.206  0.00  0.00    +0.031 C 
ATOM     32  C   UNL     1      -0.013   1.086   0.008  0.00  0.00    +0.160 C 
ATOM     33  O   UNL     1      -0.731   1.573   1.163  0.00  0.00    -0.375 OA
ENDBRANCH  28  29
ENDBRANCH   1  28
TORSDOF 7
