REMARK  Name = ZINC01431774
REMARK  9 active torsions:
REMARK  status: ('A' for Active; 'I' for Inactive)
REMARK    1  A    between atoms: C_1  and  C_2
REMARK    2  A    between atoms: C_2  and  O_3
REMARK    3  A    between atoms: O_3  and  C_4
REMARK    4  A    between atoms: C_4  and  C_6
REMARK    5  A    between atoms: C_8  and  C_30
REMARK    6  A    between atoms: C_15  and  C_21
REMARK    7  A    between atoms: C_24  and  O_29
REMARK    8  A    between atoms: C_25  and  O_27
REMARK    9  A    between atoms: O_27  and  C_28
REMARK                            x       y       z     vdW  Elec       q    Type
REMARK                         _______ _______ _______ _____ _____    ______ ____
ROOT
ATOM      1  C   UNL     1      -0.887   1.682  -3.629  0.00  0.00    +0.176 C 
ATOM      2  C   UNL     1      -0.125   1.141  -4.843  0.00  0.00    +0.046 C 
ATOM      3  C   UNL     1      -0.878   1.549  -6.112  0.00  0.00    +0.060 C 
ATOM      4  C   UNL     1      -2.285   1.008  -6.062  0.00  0.00    +0.018 C 
ATOM      5  C   UNL     1      -2.922   0.845  -4.884  0.00  0.00    +0.021 C 
ATOM      6  C   UNL     1      -2.299   1.161  -3.665  0.00  0.00    +0.176 C 
ATOM      7  O   UNL     1      -2.909   1.013  -2.625  0.00  0.00    -0.291 OA
ATOM      8  C   UNL     1      -4.335   0.310  -4.859  0.00  0.00    +0.063 C 
ATOM      9  C   UNL     1      -5.092   0.821  -6.086  0.00  0.00    +0.109 C 
ATOM     10  C   UNL     1      -4.249   0.596  -7.315  0.00  0.00    +0.218 C 
ATOM     11  O   UNL     1      -4.780   0.334  -8.373  0.00  0.00    -0.275 OA
ATOM     12  N   UNL     1      -2.910   0.687  -7.240  0.00  0.00    -0.289 N 
ATOM     13  H   UNL     1      -2.377   0.523  -8.034  0.00  0.00    +0.155 HD
ENDROOT
BRANCH   8  14
ATOM     14  C   UNL     1      -4.303  -1.196  -4.879  0.00  0.00    -0.036 A 
ATOM     15  C   UNL     1      -3.712  -1.860  -5.938  0.00  0.00    +0.008 A 
ATOM     16  C   UNL     1      -3.679  -3.242  -5.960  0.00  0.00    +0.049 A 
ATOM     17  C   UNL     1      -4.239  -3.965  -4.919  0.00  0.00    +0.158 A 
ATOM     18  C   UNL     1      -4.834  -3.297  -3.853  0.00  0.00    +0.162 A 
ATOM     19  C   UNL     1      -4.858  -1.912  -3.834  0.00  0.00    +0.053 A 
BRANCH  18  20
ATOM     20  O   UNL     1      -5.385  -4.002  -2.829  0.00  0.00    -0.491 OA
ATOM     21  C   UNL     1      -5.978  -3.250  -1.768  0.00  0.00    +0.277 C 
ENDBRANCH  18  20
BRANCH  17  22
ATOM     22  O   UNL     1      -4.207  -5.324  -4.939  0.00  0.00    -0.503 OA
ATOM     23  H   UNL     1      -3.424  -5.706  -4.520  0.00  0.00    +0.292 HD
ENDBRANCH  17  22
ENDBRANCH   8  14
BRANCH   2  24
ATOM     24  C   UNL     1       1.264   1.723  -4.870  0.00  0.00    -0.043 A 
ATOM     25  C   UNL     1       1.438   3.092  -4.957  0.00  0.00    +0.004 A 
ATOM     26  C   UNL     1       2.713   3.627  -4.977  0.00  0.00    +0.000 A 
ATOM     27  C   UNL     1       3.814   2.792  -4.920  0.00  0.00    +0.000 A 
ATOM     28  C   UNL     1       3.639   1.423  -4.837  0.00  0.00    +0.000 A 
ATOM     29  C   UNL     1       2.365   0.889  -4.812  0.00  0.00    +0.004 A 
ENDBRANCH   2  24
BRANCH   1  30
ATOM     30  C   UNL     1      -0.211   1.220  -2.363  0.00  0.00    +0.318 C 
ATOM     31  O   UNL     1       0.783   0.536  -2.424  0.00  0.00    -0.250 OA
BRANCH  30  32
ATOM     32  O   UNL     1      -0.715   1.567  -1.168  0.00  0.00    -0.464 OA
BRANCH  32  34
ATOM     33  C   UNL     1      -0.729   1.579   1.267  0.00  0.00    +0.048 C 
ATOM     34  C   UNL     1      -0.013   1.086   0.008  0.00  0.00    +0.229 C 
ENDBRANCH  32  34
ENDBRANCH  30  32
ENDBRANCH   1  30
TORSDOF 7
