REMARK  Name = ZINC20231972
REMARK  10 active torsions:
REMARK  status: ('A' for Active; 'I' for Inactive)
REMARK    1  A    between atoms: C_1  and  C_2
REMARK    2  A    between atoms: C_5  and  N_8
REMARK    3  A    between atoms: N_8  and  C_9
REMARK    4  A    between atoms: N_8  and  S_26
REMARK    5  A    between atoms: C_9  and  C_10
REMARK    6  A    between atoms: N_12  and  N_13
REMARK    7  A    between atoms: C_14  and  C_15
REMARK    8  A    between atoms: C_18  and  O_21
REMARK    9  A    between atoms: O_21  and  C_22
REMARK   10  A    between atoms: S_26  and  C_29
REMARK                            x       y       z     vdW  Elec       q    Type
REMARK                         _______ _______ _______ _____ _____    ______ ____
ROOT
ATOM      1  N   UNL     1       0.395  -5.583   0.809  0.00  0.00    -0.194 N 
ENDROOT
BRANCH   1   6
ATOM      2  C   UNL     1      -0.501  -0.023   0.150  0.00  0.00    +0.044 C 
ATOM      3  C   UNL     1      -0.263  -1.501   0.325  0.00  0.00    -0.050 A 
ATOM      4  C   UNL     1      -1.058  -2.412  -0.345  0.00  0.00    +0.005 A 
ATOM      5  C   UNL     1      -0.843  -3.767  -0.187  0.00  0.00    +0.025 A 
ATOM      6  C   UNL     1       0.175  -4.214   0.647  0.00  0.00    +0.052 A 
ATOM      7  C   UNL     1       0.972  -3.296   1.319  0.00  0.00    +0.025 A 
ATOM      8  C   UNL     1       0.754  -1.942   1.151  0.00  0.00    +0.005 A 
ENDBRANCH   1   6
BRANCH   1   9
ATOM      9  S   UNL     1       0.159  -6.290   2.288  0.00  0.00    +0.075 S 
ATOM     10  O   UNL     1       1.056  -7.390   2.361  0.00  0.00    -0.150 OA
ATOM     11  O   UNL     1       0.163  -5.240   3.245  0.00  0.00    -0.150 OA
BRANCH   9  12
ATOM     12  C   UNL     1      -1.468  -6.967   2.288  0.00  0.00    +0.109 A 
ATOM     13  C   UNL     1      -2.536  -6.196   2.709  0.00  0.00    +0.031 A 
ATOM     14  C   UNL     1      -3.813  -6.725   2.709  0.00  0.00    +0.040 A 
ATOM     15  C   UNL     1      -4.022  -8.028   2.288  0.00  0.00    +0.124 A 
ATOM     16  C   UNL     1      -2.951  -8.799   1.867  0.00  0.00    +0.040 A 
ATOM     17  C   UNL     1      -1.676  -8.265   1.863  0.00  0.00    +0.031 A 
ATOM     18  F   UNL     1      -5.269  -8.546   2.288  0.00  0.00    -0.205 F 
ENDBRANCH   9  12
ENDBRANCH   1   9
BRANCH   1  19
ATOM     19  C   UNL     1       0.836  -6.395  -0.328  0.00  0.00    +0.228 C 
BRANCH  19  20
ATOM     20  C   UNL     1       2.335  -6.315  -0.452  0.00  0.00    +0.251 C 
ATOM     21  O   UNL     1       2.974  -5.646   0.333  0.00  0.00    -0.272 OA
ATOM     22  N   UNL     1       2.967  -6.986  -1.435  0.00  0.00    -0.206 N 
ATOM     23  H   UNL     1       2.457  -7.521  -2.063  0.00  0.00    +0.177 HD
BRANCH  22  24
ATOM     24  N   UNL     1       4.362  -6.912  -1.550  0.00  0.00    -0.188 NA
ATOM     25  C   UNL     1       4.970  -7.559  -2.496  0.00  0.00    +0.138 C 
BRANCH  25  26
ATOM     26  C   UNL     1       6.438  -7.480  -2.617  0.00  0.00    -0.005 A 
ATOM     27  C   UNL     1       7.176  -6.715  -1.710  0.00  0.00    +0.013 A 
ATOM     28  C   UNL     1       8.547  -6.645  -1.827  0.00  0.00    +0.046 A 
ATOM     29  C   UNL     1       9.196  -7.334  -2.844  0.00  0.00    +0.121 A 
ATOM     30  C   UNL     1       8.466  -8.095  -3.748  0.00  0.00    +0.046 A 
ATOM     31  C   UNL     1       7.095  -8.176  -3.635  0.00  0.00    +0.013 A 
BRANCH  29  32
ATOM     32  O   UNL     1      10.548  -7.262  -2.955  0.00  0.00    -0.487 OA
BRANCH  32  33
ATOM     33  C   UNL     1      11.143  -7.923  -4.073  0.00  0.00    +0.193 C 
ATOM     34  C   UNL     1      11.794  -9.258  -3.706  0.00  0.00    +0.114 C 
ATOM     35  S   UNL     1      13.037  -9.004  -5.004  0.00  0.00    -0.153 S 
ATOM     36  C   UNL     1      12.516  -7.359  -4.445  0.00  0.00    +0.114 C 
ENDBRANCH  32  33
ENDBRANCH  29  32
ENDBRANCH  25  26
ENDBRANCH  22  24
ENDBRANCH  19  20
ENDBRANCH   1  19
TORSDOF 9
