REMARK  Name = ZINC00884692
REMARK  9 active torsions:
REMARK  status: ('A' for Active; 'I' for Inactive)
REMARK    1  A    between atoms: C_1  and  C_2
REMARK    2  A    between atoms: C_5  and  C_8
REMARK    3  A    between atoms: C_11  and  C_31
REMARK    4  A    between atoms: C_16  and  C_18
REMARK    5  A    between atoms: N_20  and  C_21
REMARK    6  A    between atoms: C_21  and  C_22
REMARK    7  A    between atoms: C_23  and  C_29
REMARK    8  A    between atoms: N_25  and  C_28
REMARK    9  A    between atoms: C_26  and  C_27
REMARK                            x       y       z     vdW  Elec       q    Type
REMARK                         _______ _______ _______ _____ _____    ______ ____
ROOT
ATOM      1  C   UNL     1       0.059  -4.275  -0.021  0.00  0.00    +0.104 C 
ATOM      2  C   UNL     1      -1.352  -4.810   0.243  0.00  0.00    +0.063 C 
ATOM      3  C   UNL     1      -1.354  -6.341   0.168  0.00  0.00    +0.215 C 
ATOM      4  N   UNL     1      -0.266  -6.858   1.003  0.00  0.00    -0.238 N 
ATOM      5  C   UNL     1       0.803  -6.107   1.405  0.00  0.00    +0.119 A 
ATOM      6  C   UNL     1       1.604  -6.888   2.157  0.00  0.00    +0.078 A 
ATOM      7  C   UNL     1       1.013  -8.169   2.223  0.00  0.00    +0.149 A 
ATOM      8  N   UNL     1      -0.110  -8.141   1.526  0.00  0.00    -0.164 NA
ATOM      9  N   UNL     1       0.959  -4.765   1.042  0.00  0.00    -0.322 N 
ATOM     10  H   UNL     1       1.615  -4.190   1.465  0.00  0.00    +0.148 HD
ENDROOT
BRANCH   1  15
ATOM     11  C   UNL     1      -0.018   1.503   0.010  0.00  0.00    +0.044 C 
ATOM     12  C   UNL     1       0.002  -0.004   0.002  0.00  0.00    -0.050 A 
ATOM     13  C   UNL     1       0.006  -0.689  -1.199  0.00  0.00    +0.004 A 
ATOM     14  C   UNL     1       0.025  -2.071  -1.206  0.00  0.00    +0.006 A 
ATOM     15  C   UNL     1       0.040  -2.768  -0.013  0.00  0.00    -0.027 A 
ATOM     16  C   UNL     1       0.037  -2.084   1.188  0.00  0.00    +0.006 A 
ATOM     17  C   UNL     1       0.023  -0.702   1.195  0.00  0.00    +0.004 A 
ENDBRANCH   1  15
BRANCH   7  18
ATOM     18  C   UNL     1       1.555  -9.338   2.945  0.00  0.00    +0.264 C 
ATOM     19  O   UNL     1       2.602  -9.244   3.555  0.00  0.00    -0.268 OA
ATOM     20  N   UNL     1       0.888 -10.510   2.928  0.00  0.00    -0.306 N 
ATOM     21  H   UNL     1       0.053 -10.585   2.442  0.00  0.00    +0.149 HD
BRANCH  20  22
ATOM     22  C   UNL     1       1.426 -11.669   3.645  0.00  0.00    +0.143 C 
BRANCH  22  23
ATOM     23  C   UNL     1       0.498 -12.843   3.468  0.00  0.00    +0.013 A 
ATOM     24  C   UNL     1      -0.580 -13.171   4.296  0.00  0.00    +0.065 A 
ATOM     25  N   UNL     1      -1.145 -14.252   3.823  0.00  0.00    -0.176 NA
ATOM     26  N   UNL     1      -0.443 -14.647   2.677  0.00  0.00    -0.271 N 
ATOM     27  C   UNL     1       0.557 -13.763   2.478  0.00  0.00    +0.041 A 
ATOM     28  C   UNL     1       1.562 -13.797   1.355  0.00  0.00    +0.065 C 
ATOM     29  C   UNL     1      -0.744 -15.810   1.839  0.00  0.00    +0.172 C 
ATOM     30  C   UNL     1      -1.017 -12.411   5.522  0.00  0.00    +0.068 C 
ENDBRANCH  22  23
ENDBRANCH  20  22
ENDBRANCH   7  18
BRANCH   3  31
ATOM     31  C   UNL     1      -2.693  -6.878   0.677  0.00  0.00    +0.412 C 
ATOM     32  F   UNL     1      -3.729  -6.372  -0.115  0.00  0.00    -0.168 F 
ATOM     33  F   UNL     1      -2.692  -8.275   0.608  0.00  0.00    -0.168 F 
ATOM     34  F   UNL     1      -2.882  -6.477   2.004  0.00  0.00    -0.168 F 
ENDBRANCH   3  31
TORSDOF 5
