REMARK  Name = ZINC36641677
REMARK  17 active torsions:
REMARK  status: ('A' for Active; 'I' for Inactive)
REMARK    1  A    between atoms: C_1  and  C_2
REMARK    2  A    between atoms: C_2  and  N_3
REMARK    3  A    between atoms: N_3  and  C_4
REMARK    4  A    between atoms: N_3  and  C_6
REMARK    5  A    between atoms: C_4  and  C_5
REMARK    6  A    between atoms: C_6  and  C_7
REMARK    7  A    between atoms: C_7  and  N_8
REMARK    8  A    between atoms: C_12  and  O_20
REMARK    9  A    between atoms: C_15  and  O_18
REMARK   10  A    between atoms: O_18  and  C_19
REMARK   11  A    between atoms: O_20  and  C_21
REMARK   12  A    between atoms: C_22  and  C_24
REMARK   13  A    between atoms: C_25  and  C_26
REMARK   14  A    between atoms: C_29  and  O_34
REMARK   15  A    between atoms: C_30  and  O_32
REMARK   16  A    between atoms: O_32  and  C_33
REMARK   17  A    between atoms: O_34  and  C_35
REMARK                            x       y       z     vdW  Elec       q    Type
REMARK                         _______ _______ _______ _____ _____    ______ ____
ROOT
ATOM      1  N   UNL     1       2.336  -3.538  -0.352  0.00  0.00    -0.249 N 
ATOM      2  C   UNL     1       1.496  -4.392  -1.047  0.00  0.00    +0.169 A 
ATOM      3  N   UNL     1       0.374  -4.117  -1.670  0.00  0.00    -0.221 NA
ATOM      4  C   UNL     1      -0.349  -5.060  -2.313  0.00  0.00    +0.125 A 
ATOM      5  C   UNL     1      -1.568  -4.897  -3.020  0.00  0.00    +0.147 A 
ATOM      6  C   UNL     1      -2.180  -5.970  -3.622  0.00  0.00    +0.051 A 
ATOM      7  C   UNL     1      -1.632  -7.244  -3.563  0.00  0.00    +0.050 A 
ATOM      8  C   UNL     1      -0.441  -7.439  -2.880  0.00  0.00    +0.136 A 
ATOM      9  C   UNL     1       0.178  -6.369  -2.274  0.00  0.00    +0.086 A 
ATOM     10  S   UNL     1       1.667  -6.149  -1.329  0.00  0.00    -0.048 S 
ATOM     11  C   UNL     1       3.458  -4.015   0.221  0.00  0.00    +0.245 C 
ATOM     12  O   UNL     1       3.734  -5.197   0.128  0.00  0.00    -0.270 OA
ENDROOT
BRANCH   8  13
ATOM     13  O   UNL     1       0.112  -8.680  -2.810  0.00  0.00    -0.494 OA
ATOM     14  C   UNL     1      -0.588  -9.741  -3.463  0.00  0.00    +0.277 C 
ENDBRANCH   8  13
BRANCH   5  15
ATOM     15  O   UNL     1      -2.139  -3.665  -3.102  0.00  0.00    -0.493 OA
ATOM     16  C   UNL     1      -3.366  -3.565  -3.827  0.00  0.00    +0.277 C 
ENDBRANCH   5  15
BRANCH  11  17
ATOM     17  C   UNL     1       4.345  -3.114   0.955  0.00  0.00    +0.068 C 
ATOM     18  C   UNL     1       5.470  -3.592   1.529  0.00  0.00    +0.013 C 
BRANCH  18  19
ATOM     19  C   UNL     1       6.361  -2.685   2.266  0.00  0.00    -0.021 A 
ATOM     20  C   UNL     1       6.043  -1.327   2.380  0.00  0.00    +0.012 A 
ATOM     21  C   UNL     1       6.880  -0.479   3.071  0.00  0.00    +0.050 A 
ATOM     22  C   UNL     1       8.040  -0.969   3.657  0.00  0.00    +0.162 A 
ATOM     23  C   UNL     1       8.364  -2.321   3.549  0.00  0.00    +0.162 A 
ATOM     24  C   UNL     1       7.527  -3.179   2.862  0.00  0.00    +0.057 A 
BRANCH  23  25
ATOM     25  O   UNL     1       9.501  -2.796   4.124  0.00  0.00    -0.491 OA
ATOM     26  C   UNL     1       9.770  -4.191   3.973  0.00  0.00    +0.277 C 
ENDBRANCH  23  25
BRANCH  22  27
ATOM     27  O   UNL     1       8.862  -0.128   4.338  0.00  0.00    -0.491 OA
ATOM     28  C   UNL     1       8.470   1.244   4.410  0.00  0.00    +0.277 C 
ENDBRANCH  22  27
ENDBRANCH  18  19
ENDBRANCH  11  17
BRANCH   1  29
ATOM     29  C   UNL     1       2.004  -2.115  -0.240  0.00  0.00    +0.097 C 
BRANCH  29  30
ATOM     30  C   UNL     1       1.156  -1.887   1.013  0.00  0.00    -0.059 C 
BRANCH  30  31
ATOM     31  N   UNL     1       0.823  -0.461   1.126  0.00  0.00    +0.380 N 
ATOM     32  H   UNL     1       1.671   0.085   1.109  0.00  0.00    -0.082 HD
BRANCH  31  34
ATOM     33  C   UNL     1      -0.264   1.445   0.037  0.00  0.00    -0.017 C 
ATOM     34  C   UNL     1      -0.034  -0.067  -0.001  0.00  0.00    -0.082 C 
ENDBRANCH  31  34
BRANCH  31  35
ATOM     35  C   UNL     1       0.111  -0.222   2.389  0.00  0.00    -0.082 C 
ATOM     36  C   UNL     1       1.053  -0.495   3.563  0.00  0.00    -0.017 C 
ENDBRANCH  31  35
ENDBRANCH  30  31
ENDBRANCH  29  30
ENDBRANCH   1  29
TORSDOF 11
