REMARK  Name = ZINC00639264
REMARK  14 active torsions:
REMARK  status: ('A' for Active; 'I' for Inactive)
REMARK    1  A    between atoms: C_1  and  C_2
REMARK    2  A    between atoms: C_2  and  O_3
REMARK    3  A    between atoms: O_3  and  C_4
REMARK    4  A    between atoms: C_4  and  C_6
REMARK    5  A    between atoms: C_7  and  C_34
REMARK    6  A    between atoms: C_9  and  N_33
REMARK    7  A    between atoms: C_10  and  C_31
REMARK    8  A    between atoms: C_11  and  C_13
REMARK    9  A    between atoms: C_15  and  O_29
REMARK   10  A    between atoms: C_16  and  O_20
REMARK   11  A    between atoms: O_20  and  C_21
REMARK   12  A    between atoms: C_21  and  C_22
REMARK   13  A    between atoms: C_25  and  C_28
REMARK   14  A    between atoms: O_29  and  C_30
REMARK                            x       y       z     vdW  Elec       q    Type
REMARK                         _______ _______ _______ _____ _____    ______ ____
ROOT
ATOM      1  C   UNL     1      -1.293   4.120   3.484  0.00  0.00    -0.030 A 
ATOM      2  C   UNL     1      -1.608   4.922   2.402  0.00  0.00    +0.054 A 
ATOM      3  C   UNL     1      -1.139   6.224   2.345  0.00  0.00    +0.163 A 
ATOM      4  C   UNL     1      -0.341   6.719   3.372  0.00  0.00    +0.176 A 
ATOM      5  C   UNL     1      -0.024   5.909   4.451  0.00  0.00    +0.063 A 
ATOM      6  C   UNL     1      -0.501   4.611   4.504  0.00  0.00    +0.023 A 
ATOM      7 BR   UNL     1       1.060   6.577   5.849  0.00  0.00    -0.046 Br
ENDROOT
BRANCH   1  13
ATOM      8  C   UNL     1      -0.648   1.751   3.600  0.00  0.00    +0.087 C 
ATOM      9  C   UNL     1      -0.291   1.159   4.747  0.00  0.00    +0.115 C 
ATOM     10  O   UNL     1      -0.942   1.378   5.899  0.00  0.00    -0.445 OA
ATOM     11  C   UNL     1      -2.185   1.889   5.867  0.00  0.00    +0.198 C 
ATOM     12  C   UNL     1      -2.664   2.534   4.776  0.00  0.00    +0.098 C 
ATOM     13  C   UNL     1      -1.810   2.706   3.547  0.00  0.00    +0.105 C 
ATOM     14  C   UNL     1       0.884   0.215   4.743  0.00  0.00    +0.087 C 
BRANCH  11  15
ATOM     15  N   UNL     1      -2.990   1.755   6.970  0.00  0.00    -0.328 N 
ATOM     16  H   UNL     1      -2.660   1.295   7.758  0.00  0.00    +0.145 HD
ATOM     17  H   UNL     1      -3.889   2.119   6.962  0.00  0.00    +0.145 HD
ENDBRANCH  11  15
BRANCH   8  18
ATOM     18  C   UNL     1       0.083   1.478   2.418  0.00  0.00    +0.339 C 
ATOM     19  O   UNL     1      -0.398   0.767   1.556  0.00  0.00    -0.245 OA
BRANCH  18  20
ATOM     20  O   UNL     1       1.313   2.006   2.248  0.00  0.00    -0.462 OA
BRANCH  20  22
ATOM     21  C   UNL     1       3.362   2.373   1.020  0.00  0.00    +0.048 C 
ATOM     22  C   UNL     1       1.993   1.689   1.032  0.00  0.00    +0.229 C 
ENDBRANCH  20  22
ENDBRANCH  18  20
ENDBRANCH   8  18
BRANCH  12  23
ATOM     23  C   UNL     1      -3.995   3.063   4.794  0.00  0.00    +0.101 C 
ATOM     24  N   UNL     1      -5.051   3.482   4.808  0.00  0.00    -0.191 NA
ENDBRANCH  12  23
ENDBRANCH   1  13
BRANCH   3  25
ATOM     25  O   UNL     1      -1.452   7.015   1.284  0.00  0.00    -0.491 OA
ATOM     26  C   UNL     1      -2.275   6.440   0.267  0.00  0.00    +0.277 C 
ENDBRANCH   3  25
BRANCH   4  27
ATOM     27  O   UNL     1       0.127   7.995   3.317  0.00  0.00    -0.483 OA
BRANCH  27  28
ATOM     28  C   UNL     1       1.390   8.196   2.679  0.00  0.00    +0.264 C 
BRANCH  28  29
ATOM     29  C   UNL     1       1.743   9.661   2.714  0.00  0.00    -0.010 A 
ATOM     30  C   UNL     1       1.355  10.490   1.678  0.00  0.00    +0.007 A 
ATOM     31  C   UNL     1       1.675  11.834   1.712  0.00  0.00    +0.004 A 
ATOM     32  C   UNL     1       2.391  12.348   2.776  0.00  0.00    -0.050 A 
ATOM     33  C   UNL     1       2.783  11.518   3.810  0.00  0.00    +0.004 A 
ATOM     34  C   UNL     1       2.459  10.174   3.778  0.00  0.00    +0.007 A 
ATOM     35  C   UNL     1       2.743  13.812   2.811  0.00  0.00    +0.044 C 
ENDBRANCH  28  29
ENDBRANCH  27  28
ENDBRANCH   4  27
TORSDOF 10
