REMARK  Name = ZINC63137233
REMARK  7 active torsions:
REMARK  status: ('A' for Active; 'I' for Inactive)
REMARK    1  A    between atoms: C_1  and  C_2
REMARK    2  A    between atoms: C_2  and  C_3
REMARK    3  A    between atoms: C_3  and  C_4
REMARK    4  A    between atoms: C_4  and  N_5
REMARK    5  A    between atoms: C_25  and  C_27
REMARK    6  A    between atoms: C_31  and  O_33
REMARK    7  A    between atoms: O_33  and  C_34
REMARK                            x       y       z     vdW  Elec       q    Type
REMARK                         _______ _______ _______ _____ _____    ______ ____
ROOT
ATOM      1  N   UNL     1       1.425  -2.500  -2.470  0.00  0.00    -0.291 N 
ATOM      2  C   UNL     1       0.695  -2.755  -3.726  0.00  0.00    +0.203 C 
ATOM      3  C   UNL     1       1.473  -2.136  -4.868  0.00  0.00    +0.234 C 
ATOM      4  O   UNL     1       0.920  -1.501  -5.742  0.00  0.00    -0.274 OA
ATOM      5  N   UNL     1       2.833  -2.326  -4.869  0.00  0.00    -0.279 N 
ATOM      6  C   UNL     1       3.343  -3.171  -3.809  0.00  0.00    +0.167 C 
ATOM      7  C   UNL     1       2.773  -2.720  -2.489  0.00  0.00    +0.237 C 
ATOM      8  O   UNL     1       3.465  -2.567  -1.505  0.00  0.00    -0.274 OA
ATOM      9  C   UNL     1       4.829  -3.411  -3.740  0.00  0.00    +0.065 C 
ATOM     10  C   UNL     1       5.540  -2.503  -4.704  0.00  0.00    -0.034 C 
ATOM     11  C   UNL     1       6.665  -1.807  -4.607  0.00  0.00    -0.001 A 
ATOM     12  C   UNL     1       7.661  -1.699  -3.528  0.00  0.00    +0.010 A 
ATOM     13  C   UNL     1       8.711  -0.869  -3.762  0.00  0.00    +0.001 A 
ATOM     14  C   UNL     1       8.869  -0.143  -4.947  0.00  0.00    +0.002 A 
ATOM     15  C   UNL     1       8.005  -0.185  -5.992  0.00  0.00    +0.026 A 
ATOM     16  C   UNL     1       6.862  -1.027  -5.866  0.00  0.00    +0.043 A 
ATOM     17  N   UNL     1       5.895  -1.261  -6.702  0.00  0.00    -0.375 N 
ATOM     18  C   UNL     1       4.976  -2.235  -6.098  0.00  0.00    +0.131 C 
ATOM     19  C   UNL     1       3.598  -1.626  -5.891  0.00  0.00    +0.134 C 
ATOM     20  H   UNL     1       5.796  -0.859  -7.579  0.00  0.00    +0.160 HD
ENDROOT
BRANCH  19  21
ATOM     21  C   UNL     1       3.795  -0.195  -5.462  0.00  0.00    -0.021 A 
ATOM     22  C   UNL     1       4.078   0.097  -4.140  0.00  0.00    +0.006 A 
ATOM     23  C   UNL     1       4.260   1.409  -3.743  0.00  0.00    +0.004 A 
ATOM     24  C   UNL     1       4.159   2.431  -4.666  0.00  0.00    +0.045 A 
ATOM     25  C   UNL     1       3.876   2.141  -5.993  0.00  0.00    +0.120 A 
ATOM     26  C   UNL     1       3.700   0.823  -6.390  0.00  0.00    +0.051 A 
BRANCH  25  27
ATOM     27  O   UNL     1       3.777   3.145  -6.903  0.00  0.00    -0.495 OA
ATOM     28  C   UNL     1       3.976   4.477  -6.424  0.00  0.00    +0.277 C 
ENDBRANCH  25  27
ENDBRANCH  19  21
BRANCH   1  29
ATOM     29  C   UNL     1       0.739  -2.027  -1.265  0.00  0.00    +0.108 C 
BRANCH  29  30
ATOM     30  C   UNL     1       0.718  -0.497  -1.257  0.00  0.00    +0.019 C 
BRANCH  30  32
ATOM     31  C   UNL     1      -0.019   1.526   0.010  0.00  0.00    +0.004 C 
ATOM     32  C   UNL     1       0.002  -0.004   0.002  0.00  0.00    -0.002 C 
ENDBRANCH  30  32
ENDBRANCH  29  30
ENDBRANCH   1  29
TORSDOF 5
