REMARK  Name = ZINC59352841
REMARK  9 active torsions:
REMARK  status: ('A' for Active; 'I' for Inactive)
REMARK    1  A    between atoms: C_1  and  C_2
REMARK    2  A    between atoms: C_2  and  O_3
REMARK    3  A    between atoms: O_3  and  C_4
REMARK    4  A    between atoms: C_4  and  C_6
REMARK    5  A    between atoms: C_6  and  S_7
REMARK    6  A    between atoms: S_7  and  C_8
REMARK    7  A    between atoms: N_11  and  C_21
REMARK    8  A    between atoms: N_13  and  C_14
REMARK    9  A    between atoms: C_18  and  C_20
REMARK                            x       y       z     vdW  Elec       q    Type
REMARK                         _______ _______ _______ _____ _____    ______ ____
ROOT
ATOM      1  C   UNL     1       2.557  -4.716   3.704  0.00  0.00    +0.137 C 
ATOM      2  N   UNL     1       2.987  -3.787   4.499  0.00  0.00    -0.355 N 
ATOM      3  C   UNL     1       3.500  -4.061   5.837  0.00  0.00    +0.204 C 
ATOM      4  N   UNL     1       3.022  -5.362   6.321  0.00  0.00    -0.266 NA
ATOM      5  C   UNL     1       3.281  -6.409   5.316  0.00  0.00    +0.201 C 
ATOM      6  N   UNL     1       2.541  -6.039   4.097  0.00  0.00    -0.268 N 
ATOM      7  H   UNL     1       2.967  -2.867   4.191  0.00  0.00    +0.163 HD
ENDROOT
BRANCH   6   8
ATOM      8  C   UNL     1       1.845  -7.000   3.358  0.00  0.00    +0.037 A 
ATOM      9  C   UNL     1       2.539  -8.000   2.688  0.00  0.00    +0.023 A 
ATOM     10  C   UNL     1       1.849  -8.948   1.958  0.00  0.00    +0.002 A 
ATOM     11  C   UNL     1       0.468  -8.903   1.895  0.00  0.00    +0.003 A 
ATOM     12  C   UNL     1      -0.226  -7.910   2.561  0.00  0.00    -0.049 A 
ATOM     13  C   UNL     1       0.458  -6.962   3.296  0.00  0.00    +0.027 A 
ATOM     14  C   UNL     1      -1.730  -7.865   2.488  0.00  0.00    +0.044 C 
ENDBRANCH   6   8
BRANCH   4  15
ATOM     15  C   UNL     1       3.640  -5.705   7.609  0.00  0.00    +0.060 C 
ATOM     16  C   UNL     1       3.312  -4.627   8.672  0.00  0.00    +0.019 C 
ATOM     17  C   UNL     1       3.480  -5.399  10.004  0.00  0.00    +0.002 C 
ATOM     18  C   UNL     1       2.921  -6.804   9.701  0.00  0.00    +0.002 C 
ATOM     19  C   UNL     1       3.022  -6.998   8.178  0.00  0.00    +0.019 C 
ENDBRANCH   4  15
BRANCH   1  20
ATOM     20  S   UNL     1       1.977  -4.283   2.097  0.00  0.00    -0.081 S 
BRANCH  20  21
ATOM     21  C   UNL     1       2.183  -2.482   2.027  0.00  0.00    +0.197 C 
BRANCH  21  22
ATOM     22  C   UNL     1       1.718  -1.975   0.686  0.00  0.00    +0.317 C 
ATOM     23  O   UNL     1       1.291  -2.749  -0.138  0.00  0.00    -0.250 OA
BRANCH  22  24
ATOM     24  O   UNL     1       1.778  -0.664   0.407  0.00  0.00    -0.464 OA
BRANCH  24  26
ATOM     25  C   UNL     1       1.465   1.264  -1.017  0.00  0.00    +0.048 C 
ATOM     26  C   UNL     1       1.320  -0.253  -0.883  0.00  0.00    +0.229 C 
ENDBRANCH  24  26
ENDBRANCH  22  24
ENDBRANCH  21  22
ENDBRANCH  20  21
ENDBRANCH   1  20
TORSDOF 7
