REMARK  Name = ZINC07639237
REMARK  7 active torsions:
REMARK  status: ('A' for Active; 'I' for Inactive)
REMARK    1  A    between atoms: C_1  and  C_2
REMARK    2  A    between atoms: C_5  and  C_28
REMARK    3  A    between atoms: C_10  and  C_12
REMARK    4  A    between atoms: C_12  and  C_14
REMARK    5  A    between atoms: C_12  and  N_55
REMARK    6  A    between atoms: N_17  and  S_20
REMARK    7  A    between atoms: S_20  and  C_23
REMARK                            x       y       z     vdW  Elec       q    Type
REMARK                         _______ _______ _______ _____ _____    ______ ____
ROOT
ATOM      1  C   UNL     1      -3.838   6.990   0.554  0.00  0.00    -0.060 C 
ATOM      2  C   UNL     1      -5.139   7.738   0.244  0.00  0.00    +0.091 C 
ATOM      3  N   UNL     1      -5.924   7.843   1.482  0.00  0.00    -0.180 NA
ATOM      4  C   UNL     1      -6.167   6.617   2.258  0.00  0.00    +0.091 C 
ATOM      5  C   UNL     1      -4.826   5.913   2.489  0.00  0.00    -0.060 C 
ATOM      6  N   UNL     1      -4.174   5.693   1.180  0.00  0.00    +0.389 N 
ATOM      7  H   UNL     1      -4.822   5.185   0.567  0.00  0.00    -0.081 HD
ENDROOT
BRANCH   3   8
ATOM      8  S   UNL     1      -6.520   9.302   1.990  0.00  0.00    +0.067 S 
ATOM      9  O   UNL     1      -6.621  10.123   0.835  0.00  0.00    -0.152 OA
ATOM     10  O   UNL     1      -7.636   9.018   2.823  0.00  0.00    -0.152 OA
BRANCH   8  11
ATOM     11  C   UNL     1      -5.295  10.034   3.024  0.00  0.00    +0.143 A 
ATOM     12  C   UNL     1      -4.272  10.856   2.684  0.00  0.00    +0.036 A 
ATOM     13  C   UNL     1      -3.424  11.315   3.674  0.00  0.00    +0.010 A 
ATOM     14  C   UNL     1      -3.640  10.930   4.956  0.00  0.00    +0.047 A 
ATOM     15  S   UNL     1      -5.083   9.891   4.790  0.00  0.00    -0.077 S 
ENDBRANCH   8  11
ENDBRANCH   3   8
BRANCH   6  16
ATOM     16  C   UNL     1      -2.949   4.886   1.357  0.00  0.00    +0.016 C 
ATOM     17  C   UNL     1      -1.925   5.639   2.209  0.00  0.00    -0.004 C 
BRANCH  16  25
ATOM     18  C   UNL     1      -2.356   1.344  -1.590  0.00  0.00    +0.009 C 
ATOM     19  C   UNL     1      -0.897   1.805  -1.593  0.00  0.00    +0.004 C 
ATOM     20  C   UNL     1      -0.153   1.155  -0.424  0.00  0.00    +0.009 C 
ATOM     21  C   UNL     1      -0.835   1.537   0.891  0.00  0.00    +0.004 C 
ATOM     22  C   UNL     1      -0.779   3.058   1.068  0.00  0.00    +0.111 C 
ATOM     23  N   UNL     1      -1.363   3.694  -0.121  0.00  0.00    -0.302 N 
ATOM     24  C   UNL     1      -0.842   3.328  -1.445  0.00  0.00    +0.111 C 
ATOM     25  C   UNL     1      -2.357   4.595   0.002  0.00  0.00    +0.202 C 
ATOM     26  O   UNL     1      -2.776   5.173  -0.979  0.00  0.00    -0.277 OA
ATOM     27  C   UNL     1      -0.111   0.861   2.057  0.00  0.00    +0.009 C 
ENDBRANCH  16  25
ENDBRANCH   6  16
TORSDOF 4
