REMARK  Name = ZINC14932582
REMARK  6 active torsions:
REMARK  status: ('A' for Active; 'I' for Inactive)
REMARK    1  A    between atoms: C_1  and  C_2
REMARK    2  A    between atoms: C_2  and  C_4
REMARK    3  A    between atoms: C_2  and  N_49
REMARK    4  A    between atoms: N_6  and  C_7
REMARK    5  A    between atoms: N_17  and  S_20
REMARK    6  A    between atoms: S_20  and  C_23
REMARK                            x       y       z     vdW  Elec       q    Type
REMARK                         _______ _______ _______ _____ _____    ______ ____
ROOT
ATOM      1  C   UNL     1       1.168   0.845   4.111  0.00  0.00    -0.060 C 
ATOM      2  C   UNL     1       0.389   2.037   4.678  0.00  0.00    +0.091 C 
ATOM      3  N   UNL     1       1.042   2.473   5.921  0.00  0.00    -0.180 NA
ATOM      4  C   UNL     1       2.491   2.726   5.895  0.00  0.00    +0.091 C 
ATOM      5  C   UNL     1       3.187   1.508   5.280  0.00  0.00    -0.060 C 
ATOM      6  N   UNL     1       2.587   1.235   3.956  0.00  0.00    +0.389 N 
ATOM      7  H   UNL     1       2.637   2.088   3.386  0.00  0.00    -0.081 HD
ENDROOT
BRANCH   3   8
ATOM      8  S   UNL     1       0.169   2.679   7.313  0.00  0.00    +0.064 S 
ATOM      9  O   UNL     1       0.899   3.593   8.119  0.00  0.00    -0.153 OA
ATOM     10  O   UNL     1      -1.175   2.919   6.917  0.00  0.00    -0.153 OA
BRANCH   8  11
ATOM     11  C   UNL     1       0.175   1.138   8.166  0.00  0.00    +0.142 A 
ATOM     12  C   UNL     1      -0.823   0.210   7.927  0.00  0.00    +0.069 A 
ATOM     13  C   UNL     1      -0.815  -1.002   8.594  0.00  0.00    +0.022 A 
ATOM     14  C   UNL     1       0.185  -1.282   9.506  0.00  0.00    +0.003 A 
ATOM     15  C   UNL     1       1.180  -0.354   9.749  0.00  0.00    +0.022 A 
ATOM     16  C   UNL     1       1.176   0.857   9.079  0.00  0.00    +0.069 A 
ATOM     17 CL   UNL     1       2.425   2.023   9.385  0.00  0.00    -0.081 Cl
ATOM     18 CL   UNL     1      -2.083   0.565   6.786  0.00  0.00    -0.081 Cl
ENDBRANCH   8  11
ENDBRANCH   3   8
BRANCH   6  20
ATOM     19  C   UNL     1       3.344  -1.112   4.127  0.00  0.00    -0.004 C 
ATOM     20  C   UNL     1       3.334   0.158   3.275  0.00  0.00    +0.017 C 
BRANCH  20  21
ATOM     21  C   UNL     1       4.751   0.620   3.044  0.00  0.00    +0.204 C 
ATOM     22  O   UNL     1       5.101   1.717   3.425  0.00  0.00    -0.277 OA
ATOM     23  N   UNL     1       5.628  -0.187   2.415  0.00  0.00    -0.282 N 
ATOM     24  H   UNL     1       5.371  -1.092   2.177  0.00  0.00    +0.155 HD
BRANCH  23  25
ATOM     25  C   UNL     1       6.912   0.281   2.105  0.00  0.00    +0.105 A 
ATOM     26  C   UNL     1       7.140   0.948   0.907  0.00  0.00    +0.147 A 
ATOM     27  C   UNL     1       8.408   1.413   0.607  0.00  0.00    +0.040 A 
ATOM     28  C   UNL     1       9.450   1.205   1.492  0.00  0.00    +0.006 A 
ATOM     29  C   UNL     1       9.229   0.537   2.682  0.00  0.00    +0.040 A 
ATOM     30  C   UNL     1       7.963   0.074   2.992  0.00  0.00    +0.147 A 
ATOM     31  F   UNL     1       7.747  -0.580   4.154  0.00  0.00    -0.203 F 
ATOM     32  F   UNL     1       6.124   1.146   0.040  0.00  0.00    -0.203 F 
ENDBRANCH  23  25
ENDBRANCH  20  21
ENDBRANCH   6  20
TORSDOF 5
