REMARK  Name = ZINC36073440
REMARK  13 active torsions:
REMARK  status: ('A' for Active; 'I' for Inactive)
REMARK    1  A    between atoms: C_1  and  C_2
REMARK    2  A    between atoms: C_5  and  C_36
REMARK    3  A    between atoms: C_6  and  C_8
REMARK    4  A    between atoms: C_8  and  N_9
REMARK    5  A    between atoms: N_9  and  C_10
REMARK    6  A    between atoms: N_9  and  C_27
REMARK    7  A    between atoms: C_10  and  C_11
REMARK    8  A    between atoms: C_13  and  C_16
REMARK    9  A    between atoms: N_18  and  C_19
REMARK   10  A    between atoms: N_18  and  C_20
REMARK   11  A    between atoms: C_20  and  C_21
REMARK   12  A    between atoms: C_27  and  C_29
REMARK   13  A    between atoms: C_27  and  C_30
REMARK                            x       y       z     vdW  Elec       q    Type
REMARK                         _______ _______ _______ _____ _____    ______ ____
ROOT
ATOM      1  N   UNL     1       1.463  -4.101   3.879  0.00  0.00    +0.393 N 
ATOM      2  H   UNL     1       2.374  -3.680   3.977  0.00  0.00    -0.080 HD
ENDROOT
BRANCH   1   3
ATOM      3  C   UNL     1       1.440  -4.946   2.677  0.00  0.00    -0.040 C 
ATOM      4  C   UNL     1       1.327  -4.060   1.434  0.00  0.00    -0.008 C 
BRANCH   3   5
ATOM      5  C   UNL     1       2.710  -5.753   2.606  0.00  0.00    -0.061 A 
ATOM      6  C   UNL     1       3.918  -5.172   2.948  0.00  0.00    +0.002 A 
ATOM      7  C   UNL     1       5.083  -5.913   2.883  0.00  0.00    +0.000 A 
ATOM      8  C   UNL     1       5.042  -7.233   2.476  0.00  0.00    +0.000 A 
ATOM      9  C   UNL     1       3.834  -7.813   2.135  0.00  0.00    +0.000 A 
ATOM     10  C   UNL     1       2.668  -7.074   2.204  0.00  0.00    +0.002 A 
ENDBRANCH   3   5
ENDBRANCH   1   3
BRANCH   1  11
ATOM     11  C   UNL     1       0.446  -3.047   3.757  0.00  0.00    -0.041 C 
BRANCH  11  17
ATOM     12  C   UNL     1      -1.437  -1.601   8.162  0.00  0.00    +0.044 C 
ATOM     13  C   UNL     1      -0.401  -1.461   7.076  0.00  0.00    -0.050 A 
ATOM     14  C   UNL     1       0.599  -0.514   7.193  0.00  0.00    +0.003 A 
ATOM     15  C   UNL     1       1.550  -0.387   6.197  0.00  0.00    +0.004 A 
ATOM     16  C   UNL     1       1.500  -1.207   5.085  0.00  0.00    -0.049 A 
ATOM     17  C   UNL     1       0.501  -2.154   4.969  0.00  0.00    -0.061 A 
ATOM     18  C   UNL     1      -0.448  -2.285   5.967  0.00  0.00    +0.005 A 
ATOM     19  C   UNL     1       2.536  -1.067   3.999  0.00  0.00    +0.044 C 
ENDBRANCH  11  17
ENDBRANCH   1  11
BRANCH   1  20
ATOM     20  C   UNL     1       1.175  -4.924   5.061  0.00  0.00    +0.020 C 
BRANCH  20  21
ATOM     21  C   UNL     1       2.319  -5.874   5.303  0.00  0.00    +0.179 A 
ATOM     22  N   UNL     1       3.425  -5.579   5.918  0.00  0.00    -0.210 NA
ATOM     23  C   UNL     1       4.214  -6.687   5.943  0.00  0.00    +0.164 A 
ATOM     24  C   UNL     1       3.531  -7.679   5.309  0.00  0.00    +0.230 A 
ATOM     25  O   UNL     1       2.355  -7.159   4.922  0.00  0.00    -0.449 OA
BRANCH  23  26
ATOM     26  C   UNL     1       5.556  -6.794   6.543  0.00  0.00    +0.268 C 
ATOM     27  O   UNL     1       6.188  -7.828   6.441  0.00  0.00    -0.268 OA
ATOM     28  N   UNL     1       6.083  -5.745   7.206  0.00  0.00    -0.295 N 
ATOM     29  C   UNL     1       5.288  -4.531   7.406  0.00  0.00    +0.132 C 
BRANCH  28  30
ATOM     30  C   UNL     1       7.450  -5.819   7.726  0.00  0.00    +0.142 C 
BRANCH  30  31
ATOM     31  C   UNL     1       8.414  -5.319   6.681  0.00  0.00    -0.030 A 
ATOM     32  C   UNL     1       8.956  -6.200   5.763  0.00  0.00    +0.005 A 
ATOM     33  C   UNL     1       9.839  -5.741   4.804  0.00  0.00    +0.000 A 
ATOM     34  C   UNL     1      10.180  -4.402   4.762  0.00  0.00    +0.000 A 
ATOM     35  C   UNL     1       9.637  -3.522   5.679  0.00  0.00    +0.000 A 
ATOM     36  C   UNL     1       8.750  -3.980   6.636  0.00  0.00    +0.005 A 
ENDBRANCH  30  31
ENDBRANCH  28  30
ENDBRANCH  23  26
ENDBRANCH  20  21
ENDBRANCH   1  20
TORSDOF 9
