REMARK  Name = ZINC42196237
REMARK  4 active torsions:
REMARK  status: ('A' for Active; 'I' for Inactive)
REMARK    1  A    between atoms: C_6  and  C_10
REMARK    2  A    between atoms: C_10  and  C_11
REMARK    3  A    between atoms: N_13  and  N_14
REMARK    4  A    between atoms: N_14  and  C_15
REMARK                            x       y       z     vdW  Elec       q    Type
REMARK                         _______ _______ _______ _____ _____    ______ ____
ROOT
ATOM      1  C   UNL     1       4.088  -3.683   1.353  0.00  0.00    +0.236 C 
ATOM      2  O   UNL     1       3.564  -3.088   2.271  0.00  0.00    -0.274 OA
ATOM      3  N   UNL     1       4.827  -4.783   1.597  0.00  0.00    -0.236 N 
ATOM      4  H   UNL     1       5.245  -5.258   0.862  0.00  0.00    +0.173 HD
ENDROOT
BRANCH   3   5
ATOM      5  N   UNL     1       4.990  -5.240   2.911  0.00  0.00    -0.262 N 
ATOM      6  H   UNL     1       4.641  -4.720   3.652  0.00  0.00    +0.170 HD
BRANCH   5   7
ATOM      7  C   UNL     1       5.656  -6.446   3.155  0.00  0.00    +0.081 A 
ATOM      8  C   UNL     1       6.455  -6.584   4.283  0.00  0.00    +0.066 A 
ATOM      9  C   UNL     1       7.112  -7.777   4.521  0.00  0.00    +0.042 A 
ATOM     10  C   UNL     1       6.975  -8.832   3.636  0.00  0.00    +0.044 A 
ATOM     11  C   UNL     1       6.180  -8.698   2.512  0.00  0.00    +0.042 A 
ATOM     12  C   UNL     1       5.515  -7.510   2.272  0.00  0.00    +0.066 A 
ATOM     13 CL   UNL     1       4.512  -7.344   0.865  0.00  0.00    -0.081 Cl
ATOM     14 CL   UNL     1       7.803 -10.328   3.938  0.00  0.00    -0.083 Cl
ATOM     15 CL   UNL     1       6.629  -5.260   5.392  0.00  0.00    -0.081 Cl
ENDBRANCH   5   7
ENDBRANCH   3   5
BRANCH   1  16
ATOM     16  C   UNL     1       3.912  -3.191  -0.061  0.00  0.00    +0.175 C 
BRANCH  16  22
ATOM     17  C   UNL     1       0.062   1.359  -0.110  0.00  0.00    +0.040 A 
ATOM     18  C   UNL     1       1.249   2.090   0.025  0.00  0.00    +0.116 A 
ATOM     19  N   UNL     1       2.406   1.472   0.082  0.00  0.00    -0.219 NA
ATOM     20  C   UNL     1       2.475   0.137   0.013  0.00  0.00    +0.253 A 
ATOM     21  N   UNL     1       3.496  -0.711   0.045  0.00  0.00    -0.193 NA
ATOM     22  C   UNL     1       3.049  -1.955  -0.059  0.00  0.00    +0.162 A 
ATOM     23  N   UNL     1       1.741  -1.946  -0.162  0.00  0.00    -0.148 NA
ATOM     24  N   UNL     1       1.336  -0.606  -0.119  0.00  0.00    -0.204 N 
ATOM     25  C   UNL     1       0.122   0.004  -0.181  0.00  0.00    +0.118 A 
ENDBRANCH  16  22
ENDBRANCH   1  16
TORSDOF 4
