REMARK  Name = ZINC52210919
REMARK  8 active torsions:
REMARK  status: ('A' for Active; 'I' for Inactive)
REMARK    1  A    between atoms: C_1  and  C_2
REMARK    2  A    between atoms: C_2  and  C_3
REMARK    3  A    between atoms: C_8  and  N_9
REMARK    4  A    between atoms: C_10  and  C_12
REMARK    5  A    between atoms: C_12  and  N_13
REMARK    6  A    between atoms: C_14  and  C_16
REMARK    7  A    between atoms: C_16  and  N_17
REMARK    8  A    between atoms: C_21  and  C_23
REMARK                            x       y       z     vdW  Elec       q    Type
REMARK                         _______ _______ _______ _____ _____    ______ ____
ROOT
ATOM      1  N   UNL     1      -2.552  -0.063  -6.003  0.00  0.00    -0.308 N 
ATOM      2  C   UNL     1      -2.094  -0.027  -7.271  0.00  0.00    +0.197 C 
ATOM      3  O   UNL     1      -0.955   0.326  -7.494  0.00  0.00    -0.278 OA
ATOM      4  H   UNL     1      -3.462  -0.344  -5.824  0.00  0.00    +0.149 HD
ENDROOT
BRANCH   1   5
ATOM      5  C   UNL     1      -1.674   0.324  -4.896  0.00  0.00    +0.200 C 
BRANCH   5   7
ATOM      6  N   UNL     1      -1.809   0.501  -2.433  0.00  0.00    -0.284 N 
ATOM      7  C   UNL     1      -2.421   0.197  -3.594  0.00  0.00    +0.234 C 
ATOM      8  O   UNL     1      -3.574  -0.180  -3.591  0.00  0.00    -0.274 OA
ATOM      9  H   UNL     1      -0.909   0.864  -2.439  0.00  0.00    +0.155 HD
BRANCH   6  15
ATOM     10  C   UNL     1      -1.753  -0.072  -0.087  0.00  0.00    -0.026 A 
ATOM     11  C   UNL     1      -2.409  -0.270   1.112  0.00  0.00    +0.005 A 
ATOM     12  C   UNL     1      -3.780  -0.108   1.187  0.00  0.00    +0.000 A 
ATOM     13  C   UNL     1      -4.499   0.252   0.062  0.00  0.00    +0.002 A 
ATOM     14  C   UNL     1      -3.849   0.452  -1.140  0.00  0.00    +0.023 A 
ATOM     15  C   UNL     1      -2.471   0.295  -1.217  0.00  0.00    +0.037 A 
BRANCH  10  17
ATOM     16  C   UNL     1       0.426   1.107   0.017  0.00  0.00    +0.009 C 
ATOM     17  C   UNL     1      -0.258  -0.249  -0.168  0.00  0.00    +0.033 C 
ENDBRANCH  10  17
ENDBRANCH   6  15
ENDBRANCH   5   7
ENDBRANCH   1   5
BRANCH   2  18
ATOM     18  C   UNL     1      -2.997  -0.425  -8.409  0.00  0.00    +0.019 C 
BRANCH  18  19
ATOM     19  N   UNL     1      -2.268  -0.300  -9.679  0.00  0.00    +0.390 N 
ATOM     20  C   UNL     1      -1.977   1.124  -9.948  0.00  0.00    -0.077 C 
ATOM     21  C   UNL     1      -2.112   1.272 -11.484  0.00  0.00    -0.020 C 
ATOM     22  C   UNL     1      -3.303   0.325 -11.786  0.00  0.00    -0.012 C 
ATOM     23  C   UNL     1      -3.096  -0.826 -10.780  0.00  0.00    -0.036 C 
ATOM     24  H   UNL     1      -1.404  -0.818  -9.627  0.00  0.00    -0.080 HD
BRANCH  23  25
ATOM     25  C   UNL     1      -4.428  -1.286 -10.245  0.00  0.00    -0.043 A 
ATOM     26  C   UNL     1      -5.496  -0.409 -10.203  0.00  0.00    +0.003 A 
ATOM     27  C   UNL     1      -6.718  -0.830  -9.713  0.00  0.00    +0.000 A 
ATOM     28  C   UNL     1      -6.873  -2.129  -9.265  0.00  0.00    +0.001 A 
ATOM     29  C   UNL     1      -5.806  -3.006  -9.306  0.00  0.00    +0.020 A 
ATOM     30  C   UNL     1      -4.584  -2.587  -9.802  0.00  0.00    +0.043 A 
ATOM     31 CL   UNL     1      -3.245  -3.690  -9.861  0.00  0.00    -0.083 Cl
ENDBRANCH  23  25
ENDBRANCH  18  19
ENDBRANCH   2  18
TORSDOF 7
