REMARK  Name = ZINC39631160
REMARK  12 active torsions:
REMARK  status: ('A' for Active; 'I' for Inactive)
REMARK    1  A    between atoms: C_1  and  C_2
REMARK    2  A    between atoms: C_7  and  C_8
REMARK    3  A    between atoms: C_12  and  C_21
REMARK    4  A    between atoms: N_23  and  C_24
REMARK    5  A    between atoms: C_24  and  C_26
REMARK    6  A    between atoms: C_24  and  C_27
REMARK    7  A    between atoms: C_27  and  C_28
REMARK    8  A    between atoms: C_28  and  C_29
REMARK    9  A    between atoms: C_29  and  C_30
REMARK   10  A    between atoms: C_30  and  C_31
REMARK   11  A    between atoms: C_30  and  C_32
REMARK   12  A    between atoms: C_30  and  O_33
REMARK                            x       y       z     vdW  Elec       q    Type
REMARK                         _______ _______ _______ _____ _____    ______ ____
ROOT
ATOM      1  C   UNL     1       0.118   0.198   2.409  0.00  0.00    +0.247 C 
ATOM      2  O   UNL     1      -0.024   1.404   2.355  0.00  0.00    -0.270 OA
ATOM      3  N   UNL     1       0.321  -0.404   3.597  0.00  0.00    -0.296 N 
ATOM      4  C   UNL     1       0.602  -1.837   3.854  0.00  0.00    +0.121 C 
ATOM      5  C   UNL     1       1.656  -1.831   4.984  0.00  0.00    +0.100 C 
ATOM      6  C   UNL     1       1.461  -0.482   5.696  0.00  0.00    -0.004 C 
ATOM      7  C   UNL     1       0.321   0.218   4.943  0.00  0.00    +0.115 C 
ATOM      8  C   UNL     1       2.735   0.352   5.606  0.00  0.00    -0.010 C 
ATOM      9  C   UNL     1       2.535   1.664   6.370  0.00  0.00    -0.082 C 
ATOM     10  N   UNL     1       2.216   1.371   7.773  0.00  0.00    +0.379 N 
ATOM     11  C   UNL     1       0.941   0.649   7.856  0.00  0.00    -0.082 C 
ATOM     12  C   UNL     1       1.073  -0.706   7.155  0.00  0.00    -0.010 C 
ATOM     13  H   UNL     1       2.949   0.804   8.172  0.00  0.00    -0.086 HD
ATOM     14  H   UNL     1       2.145   2.236   8.287  0.00  0.00    -0.086 HD
ENDROOT
BRANCH   1  21
ATOM     15  C   UNL     1      -2.144   0.457   0.623  0.00  0.00    +0.044 C 
ATOM     16  C   UNL     1      -1.018  -0.492   0.302  0.00  0.00    -0.038 A 
ATOM     17  C   UNL     1      -1.056  -1.243  -0.855  0.00  0.00    +0.004 A 
ATOM     18  C   UNL     1      -0.024  -2.115  -1.151  0.00  0.00    +0.000 A 
ATOM     19  C   UNL     1       1.053  -2.240  -0.291  0.00  0.00    +0.001 A 
ATOM     20  C   UNL     1       1.103  -1.494   0.868  0.00  0.00    +0.013 A 
ATOM     21  C   UNL     1       0.068  -0.609   1.171  0.00  0.00    +0.040 A 
ENDBRANCH   1  21
BRANCH   5  22
ATOM     22  C   UNL     1       1.408  -2.972   5.938  0.00  0.00    +0.218 C 
ATOM     23  O   UNL     1       0.273  -3.329   6.174  0.00  0.00    -0.275 OA
ATOM     24  N   UNL     1       2.447  -3.595   6.528  0.00  0.00    -0.312 N 
ATOM     25  H   UNL     1       3.355  -3.309   6.338  0.00  0.00    +0.149 HD
BRANCH  24  26
ATOM     26  C   UNL     1       2.207  -4.703   7.455  0.00  0.00    +0.070 C 
ATOM     27  C   UNL     1       2.063  -6.006   6.665  0.00  0.00    +0.028 C 
BRANCH  26  28
ATOM     28  C   UNL     1       3.384  -4.821   8.425  0.00  0.00    +0.022 C 
BRANCH  28  29
ATOM     29  C   UNL     1       3.451  -3.569   9.301  0.00  0.00    +0.005 C 
BRANCH  29  30
ATOM     30  C   UNL     1       4.628  -3.687  10.271  0.00  0.00    +0.034 C 
BRANCH  30  31
ATOM     31  C   UNL     1       4.695  -2.434  11.147  0.00  0.00    +0.061 C 
ATOM     32  C   UNL     1       3.393  -2.295  11.939  0.00  0.00    +0.041 C 
ATOM     33  C   UNL     1       5.872  -2.552  12.117  0.00  0.00    +0.041 C 
BRANCH  31  34
ATOM     34  O   UNL     1       4.874  -1.283  10.319  0.00  0.00    -0.389 OA
ATOM     35  H   UNL     1       5.681  -1.303   9.787  0.00  0.00    +0.210 HD
ENDBRANCH  31  34
ENDBRANCH  30  31
ENDBRANCH  29  30
ENDBRANCH  28  29
ENDBRANCH  26  28
ENDBRANCH  24  26
ENDBRANCH   5  22
TORSDOF 8
