REMARK  Name = ZINC39533933
REMARK  10 active torsions:
REMARK  status: ('A' for Active; 'I' for Inactive)
REMARK    1  A    between atoms: C_4  and  C_7
REMARK    2  A    between atoms: C_7  and  C_8
REMARK    3  A    between atoms: N_11  and  C_15
REMARK    4  A    between atoms: C_15  and  C_17
REMARK    5  A    between atoms: C_15  and  C_26
REMARK    6  A    between atoms: C_17  and  N_18
REMARK    7  A    between atoms: N_18  and  C_19
REMARK    8  A    between atoms: C_19  and  C_20
REMARK    9  A    between atoms: C_29  and  C_32
REMARK   10  A    between atoms: C_37  and  O_38
REMARK                            x       y       z     vdW  Elec       q    Type
REMARK                         _______ _______ _______ _____ _____    ______ ____
ROOT
ATOM      1  C   UNL     1       7.342  -2.453   2.747  0.00  0.00    -0.024 C 
ENDROOT
BRANCH   1   4
ATOM      2  C   UNL     1       4.151  -0.533   2.277  0.00  0.00    -0.085 C 
ATOM      3  C   UNL     1       5.396  -1.337   1.897  0.00  0.00    -0.094 C 
ATOM      4  N   UNL     1       6.146  -1.682   3.112  0.00  0.00    +0.383 N 
ATOM      5  C   UNL     1       5.297  -2.486   4.001  0.00  0.00    -0.097 C 
ATOM      6  C   UNL     1       4.052  -1.682   4.381  0.00  0.00    -0.101 C 
ATOM      7  N   UNL     1       3.301  -1.338   3.166  0.00  0.00    +0.379 N 
ATOM      8  H   UNL     1       2.480  -0.808   3.417  0.00  0.00    -0.086 HD
ATOM      9  H   UNL     1       3.024  -2.184   2.691  0.00  0.00    -0.086 HD
ATOM     10  H   UNL     1       6.424  -0.836   3.587  0.00  0.00    -0.081 HD
BRANCH   2  11
ATOM     11  C   UNL     1       3.369  -0.175   1.012  0.00  0.00    +0.017 C 
BRANCH  11  15
ATOM     12  C   UNL     1       0.086   2.360   2.034  0.00  0.00    +0.000 A 
ATOM     13  C   UNL     1       1.312   2.912   1.714  0.00  0.00    +0.000 A 
ATOM     14  C   UNL     1       2.374   2.092   1.383  0.00  0.00    +0.003 A 
ATOM     15  C   UNL     1       2.211   0.719   1.373  0.00  0.00    -0.049 A 
ATOM     16  C   UNL     1       0.985   0.167   1.695  0.00  0.00    +0.003 A 
ATOM     17  C   UNL     1      -0.078   0.987   2.024  0.00  0.00    +0.000 A 
ENDBRANCH  11  15
ENDBRANCH   2  11
ENDBRANCH   1   4
BRANCH   1  18
ATOM     18  C   UNL     1       8.030  -2.936   3.998  0.00  0.00    -0.060 A 
ATOM     19  C   UNL     1       8.116  -2.105   5.101  0.00  0.00    +0.002 A 
ATOM     20  C   UNL     1       8.746  -2.541   6.249  0.00  0.00    +0.009 A 
ATOM     21  C   UNL     1       9.294  -3.822   6.296  0.00  0.00    -0.014 A 
ATOM     22  C   UNL     1       9.204  -4.654   5.182  0.00  0.00    +0.009 A 
ATOM     23  C   UNL     1       8.568  -4.209   4.041  0.00  0.00    +0.002 A 
BRANCH  21  24
ATOM     24  C   UNL     1       9.972  -4.296   7.527  0.00  0.00    +0.024 A 
ATOM     25  C   UNL     1      10.943  -3.507   8.140  0.00  0.00    +0.012 A 
ATOM     26  C   UNL     1      11.571  -3.953   9.285  0.00  0.00    +0.001 A 
ATOM     27  C   UNL     1      11.240  -5.182   9.828  0.00  0.00    +0.004 A 
ATOM     28  C   UNL     1      10.279  -5.973   9.227  0.00  0.00    +0.046 A 
ATOM     29  C   UNL     1       9.636  -5.535   8.081  0.00  0.00    +0.125 A 
BRANCH  29  30
ATOM     30  O   UNL     1       8.687  -6.309   7.493  0.00  0.00    -0.506 OA
ATOM     31  H   UNL     1       9.034  -6.922   6.831  0.00  0.00    +0.292 HD
ENDBRANCH  29  30
ENDBRANCH  21  24
ENDBRANCH   1  18
BRANCH   1  32
ATOM     32  C   UNL     1       8.298  -1.565   1.949  0.00  0.00    +0.070 C 
BRANCH  32  33
ATOM     33  N   UNL     1       7.692  -1.232   0.653  0.00  0.00    -0.313 NA
ATOM     34  H   UNL     1       7.444  -2.068   0.145  0.00  0.00    +0.122 HD
BRANCH  33  35
ATOM     35  C   UNL     1       8.584  -0.378  -0.142  0.00  0.00    +0.116 C 
BRANCH  35  36
ATOM     36  C   UNL     1       7.930  -0.059  -1.461  0.00  0.00    -0.034 A 
ATOM     37  C   UNL     1       8.126  -0.889  -2.549  0.00  0.00    +0.005 A 
ATOM     38  C   UNL     1       7.526  -0.596  -3.759  0.00  0.00    +0.000 A 
ATOM     39  C   UNL     1       6.729   0.527  -3.882  0.00  0.00    +0.000 A 
ATOM     40  C   UNL     1       6.532   1.357  -2.794  0.00  0.00    +0.000 A 
ATOM     41  C   UNL     1       7.129   1.061  -1.583  0.00  0.00    +0.005 A 
ENDBRANCH  35  36
ENDBRANCH  33  35
ENDBRANCH  32  33
ENDBRANCH   1  32
TORSDOF 10
