REMARK  Name = ZINC59858648
REMARK  9 active torsions:
REMARK  status: ('A' for Active; 'I' for Inactive)
REMARK    1  A    between atoms: C_1  and  C_2
REMARK    2  A    between atoms: C_5  and  N_9
REMARK    3  A    between atoms: C_7  and  C_8
REMARK    4  A    between atoms: C_10  and  C_31
REMARK    5  A    between atoms: C_11  and  N_15
REMARK    6  A    between atoms: C_12  and  C_14
REMARK    7  A    between atoms: N_15  and  C_16
REMARK    8  A    between atoms: C_18  and  C_30
REMARK    9  A    between atoms: N_20  and  C_23
REMARK                            x       y       z     vdW  Elec       q    Type
REMARK                         _______ _______ _______ _____ _____    ______ ____
ROOT
ATOM      1  N   UNL     1      -0.546  -7.306  -1.734  0.00  0.00    -0.317 N 
ATOM      2  H   UNL     1      -1.130  -7.129  -2.488  0.00  0.00    +0.152 HD
ENDROOT
BRANCH   1   3
ATOM      3  C   UNL     1       0.146  -8.461  -1.675  0.00  0.00    +0.087 C 
ATOM      4  C   UNL     1      -0.063  -9.444  -2.629  0.00  0.00    +0.075 C 
ATOM      5  C   UNL     1       0.591 -10.758  -2.719  0.00  0.00    +0.070 C 
ATOM      6  N   UNL     1       0.108 -11.366  -3.759  0.00  0.00    -0.176 NA
ATOM      7  N   UNL     1      -0.840 -10.578  -4.412  0.00  0.00    -0.156 N 
ATOM      8  C   UNL     1      -0.989  -9.403  -3.767  0.00  0.00    +0.273 C 
ATOM      9  O   UNL     1      -1.739  -8.490  -4.069  0.00  0.00    -0.268 OA
ATOM     10  C   UNL     1       1.633 -11.301  -1.774  0.00  0.00    +0.068 C 
BRANCH   7  11
ATOM     11  C   UNL     1      -1.540 -10.954  -5.565  0.00  0.00    +0.062 A 
ATOM     12  C   UNL     1      -2.459 -10.084  -6.136  0.00  0.00    +0.025 A 
ATOM     13  C   UNL     1      -3.148 -10.457  -7.273  0.00  0.00    +0.003 A 
ATOM     14  C   UNL     1      -2.923 -11.697  -7.844  0.00  0.00    +0.020 A 
ATOM     15  C   UNL     1      -2.008 -12.566  -7.278  0.00  0.00    +0.043 A 
ATOM     16  C   UNL     1      -1.311 -12.196  -6.143  0.00  0.00    +0.045 A 
ATOM     17 CL   UNL     1      -1.729 -14.121  -7.998  0.00  0.00    -0.083 Cl
ENDBRANCH   7  11
ENDBRANCH   1   3
BRANCH   1  20
ATOM     18  N   UNL     1      -0.458  -4.475   0.417  0.00  0.00    -0.235 N 
ATOM     19  C   UNL     1      -0.718  -5.036  -0.794  0.00  0.00    +0.063 A 
ATOM     20  C   UNL     1      -0.421  -6.359  -0.705  0.00  0.00    +0.075 A 
ATOM     21  C   UNL     1       0.033  -6.610   0.600  0.00  0.00    +0.082 A 
ATOM     22  N   UNL     1       0.015  -5.484   1.266  0.00  0.00    -0.170 NA
ATOM     23  C   UNL     1       0.470  -7.947   1.139  0.00  0.00    +0.069 C 
ATOM     24  C   UNL     1      -1.240  -4.321  -2.014  0.00  0.00    +0.068 C 
BRANCH  18  29
ATOM     25  C   UNL     1      -1.149   0.990   1.784  0.00  0.00    +0.044 C 
ATOM     26  C   UNL     1      -0.965  -0.462   1.421  0.00  0.00    -0.047 A 
ATOM     27  C   UNL     1      -0.560  -0.808   0.145  0.00  0.00    +0.006 A 
ATOM     28  C   UNL     1      -0.391  -2.137  -0.190  0.00  0.00    +0.028 A 
ATOM     29  C   UNL     1      -0.628  -3.126   0.755  0.00  0.00    +0.066 A 
ATOM     30  C   UNL     1      -1.034  -2.775   2.035  0.00  0.00    +0.031 A 
ATOM     31  C   UNL     1      -1.197  -1.444   2.367  0.00  0.00    -0.046 A 
ATOM     32  C   UNL     1      -1.632  -1.062   3.758  0.00  0.00    +0.044 C 
ENDBRANCH  18  29
ENDBRANCH   1  20
TORSDOF 4
