REMARK  Name = ZINC41394530
REMARK  5 active torsions:
REMARK  status: ('A' for Active; 'I' for Inactive)
REMARK    1  A    between atoms: C_1  and  C_2
REMARK    2  A    between atoms: C_2  and  C_3
REMARK    3  A    between atoms: C_3  and  N_4
REMARK    4  A    between atoms: N_14  and  C_15
REMARK    5  A    between atoms: C_22  and  C_24
REMARK                            x       y       z     vdW  Elec       q    Type
REMARK                         _______ _______ _______ _____ _____    ______ ____
ROOT
ATOM      1  N   UNL     1       0.656  -1.980  -1.131  0.00  0.00    -0.280 N 
ATOM      2  C   UNL     1       1.708  -2.625  -0.593  0.00  0.00    +0.264 A 
ATOM      3  O   UNL     1       2.514  -2.026   0.098  0.00  0.00    -0.267 OA
ATOM      4  C   UNL     1       1.867  -4.025  -0.844  0.00  0.00    +0.076 A 
ATOM      5  C   UNL     1       2.924  -4.918  -0.367  0.00  0.00    -0.023 A 
ATOM      6  C   UNL     1       2.851  -6.210  -0.745  0.00  0.00    -0.004 A 
ATOM      7  S   UNL     1       1.390  -6.316  -1.743  0.00  0.00    -0.073 S 
ATOM      8  C   UNL     1       0.881  -4.618  -1.651  0.00  0.00    +0.117 A 
ATOM      9  N   UNL     1      -0.134  -3.923  -2.151  0.00  0.00    -0.208 NA
ATOM     10  C   UNL     1      -0.259  -2.636  -1.901  0.00  0.00    +0.204 A 
ATOM     11  N   UNL     1      -1.322  -1.943  -2.428  0.00  0.00    -0.285 N 
ATOM     12  C   UNL     1       3.801  -7.314  -0.394  0.00  0.00    +0.043 C 
ATOM     13  C   UNL     1       5.089  -6.687   0.160  0.00  0.00    +0.005 C 
ATOM     14  C   UNL     1       4.711  -5.633   1.205  0.00  0.00    +0.005 C 
ATOM     15  C   UNL     1       4.067  -4.428   0.518  0.00  0.00    +0.037 C 
ATOM     16  H   UNL     1      -1.377  -0.981  -2.317  0.00  0.00    +0.155 HD
ENDROOT
BRANCH  11  17
ATOM     17  C   UNL     1      -2.325  -2.626  -3.125  0.00  0.00    +0.035 A 
ATOM     18  C   UNL     1      -2.911  -2.058  -4.256  0.00  0.00    +0.025 A 
ATOM     19  C   UNL     1      -3.887  -2.699  -4.950  0.00  0.00    +0.031 A 
ATOM     20  C   UNL     1      -4.347  -3.975  -4.549  0.00  0.00    +0.079 A 
ATOM     21  C   UNL     1      -3.736  -4.528  -3.400  0.00  0.00    +0.041 A 
ATOM     22  C   UNL     1      -2.746  -3.880  -2.703  0.00  0.00    +0.040 A 
ATOM     23  S   UNL     1      -4.574  -6.086  -3.242  0.00  0.00    -0.072 S 
ATOM     24  C   UNL     1      -5.644  -5.909  -4.663  0.00  0.00    +0.076 A 
ATOM     25  N   UNL     1      -5.301  -4.738  -5.125  0.00  0.00    -0.244 NA
ATOM     26  C   UNL     1      -6.680  -6.867  -5.191  0.00  0.00    +0.073 C 
ENDBRANCH  11  17
BRANCH   1  27
ATOM     27  C   UNL     1       0.487  -0.547  -0.878  0.00  0.00    +0.128 C 
BRANCH  27  29
ATOM     28  C   UNL     1      -0.526   1.149   0.651  0.00  0.00    +0.005 C 
ATOM     29  C   UNL     1      -0.350  -0.347   0.387  0.00  0.00    +0.018 C 
ENDBRANCH  27  29
ENDBRANCH   1  27
TORSDOF 3
