REMARK  Name = ZINC14474065
REMARK  7 active torsions:
REMARK  status: ('A' for Active; 'I' for Inactive)
REMARK    1  A    between atoms: C_1  and  C_2
REMARK    2  A    between atoms: C_4  and  C_35
REMARK    3  A    between atoms: C_6  and  N_8
REMARK    4  A    between atoms: N_8  and  S_9
REMARK    5  A    between atoms: S_9  and  C_12
REMARK    6  A    between atoms: C_25  and  C_28
REMARK    7  A    between atoms: C_33  and  O_34
REMARK                            x       y       z     vdW  Elec       q    Type
REMARK                         _______ _______ _______ _____ _____    ______ ____
ROOT
ATOM      1  C   UNL     1      -4.746   4.697   2.198  0.00  0.00    +0.109 A 
ATOM      2  C   UNL     1      -5.185   3.701   3.051  0.00  0.00    +0.030 A 
ATOM      3  C   UNL     1      -4.444   2.545   3.191  0.00  0.00    +0.025 A 
ATOM      4  C   UNL     1      -3.262   2.385   2.478  0.00  0.00    +0.031 A 
ATOM      5  C   UNL     1      -2.822   3.364   1.618  0.00  0.00    -0.018 A 
ATOM      6  C   UNL     1      -3.573   4.539   1.489  0.00  0.00    +0.034 A 
ATOM      7  C   UNL     1      -1.555   3.254   0.831  0.00  0.00    +0.049 C 
ATOM      8  C   UNL     1      -1.833   2.963  -0.625  0.00  0.00    -0.023 C 
ATOM      9  C   UNL     1      -0.925   2.148  -1.105  0.00  0.00    -0.030 C 
ATOM     10  C   UNL     1       0.086   1.788  -0.034  0.00  0.00    +0.033 C 
ATOM     11  C   UNL     1      -0.674   2.075   1.295  0.00  0.00    +0.029 C 
ATOM     12  C   UNL     1      -1.552   0.855   1.589  0.00  0.00    +0.108 C 
ATOM     13  N   UNL     1      -2.523   1.208   2.630  0.00  0.00    -0.336 N 
ATOM     14  H   UNL     1      -2.649   0.639   3.406  0.00  0.00    +0.147 HD
ENDROOT
BRANCH  12  15
ATOM     15  C   UNL     1      -2.280   0.443   0.336  0.00  0.00    +0.014 A 
ATOM     16  C   UNL     1      -3.511   0.995   0.038  0.00  0.00    +0.009 A 
ATOM     17  C   UNL     1      -4.179   0.619  -1.112  0.00  0.00    +0.001 A 
ATOM     18  C   UNL     1      -3.618  -0.312  -1.967  0.00  0.00    +0.004 A 
ATOM     19  C   UNL     1      -2.388  -0.868  -1.673  0.00  0.00    +0.046 A 
ATOM     20  C   UNL     1      -1.713  -0.487  -0.523  0.00  0.00    +0.122 A 
BRANCH  20  21
ATOM     21  O   UNL     1      -0.500  -1.028  -0.235  0.00  0.00    -0.506 OA
ATOM     22  H   UNL     1      -0.545  -1.837   0.293  0.00  0.00    +0.292 HD
ENDBRANCH  20  21
ENDBRANCH  12  15
BRANCH   1  23
ATOM     23  S   UNL     1      -5.689   6.175   2.015  0.00  0.00    +0.072 S 
ATOM     24  O   UNL     1      -5.417   6.672   0.712  0.00  0.00    -0.150 OA
ATOM     25  O   UNL     1      -7.006   5.873   2.456  0.00  0.00    -0.150 OA
BRANCH  23  26
ATOM     26  N   UNL     1      -5.075   7.282   3.083  0.00  0.00    -0.216 N 
ATOM     27  H   UNL     1      -5.625   7.610   3.811  0.00  0.00    +0.174 HD
BRANCH  26  33
ATOM     28  C   UNL     1      -0.391   7.269   4.569  0.00  0.00    +0.044 C 
ATOM     29  C   UNL     1      -1.474   7.754   3.640  0.00  0.00    -0.048 A 
ATOM     30  C   UNL     1      -1.171   8.659   2.639  0.00  0.00    +0.006 A 
ATOM     31  C   UNL     1      -2.161   9.107   1.785  0.00  0.00    -0.048 A 
ATOM     32  C   UNL     1      -3.457   8.652   1.929  0.00  0.00    +0.028 A 
ATOM     33  C   UNL     1      -3.765   7.744   2.934  0.00  0.00    +0.049 A 
ATOM     34  C   UNL     1      -2.768   7.300   3.793  0.00  0.00    +0.028 A 
ATOM     35  C   UNL     1      -1.827  10.094   0.696  0.00  0.00    +0.044 C 
ENDBRANCH  26  33
ENDBRANCH  23  26
ENDBRANCH   1  23
TORSDOF 5
