REMARK  Name = ZINC24354208
REMARK  11 active torsions:
REMARK  status: ('A' for Active; 'I' for Inactive)
REMARK    1  A    between atoms: C_1  and  C_2
REMARK    2  A    between atoms: C_3  and  C_16
REMARK    3  A    between atoms: C_4  and  C_15
REMARK    4  A    between atoms: C_9  and  C_11
REMARK    5  A    between atoms: C_16  and  C_17
REMARK    6  A    between atoms: C_17  and  C_18
REMARK    7  A    between atoms: N_20  and  C_21
REMARK    8  A    between atoms: C_21  and  C_22
REMARK    9  A    between atoms: C_22  and  N_29
REMARK   10  A    between atoms: N_29  and  C_30
REMARK   11  A    between atoms: N_29  and  C_31
REMARK                            x       y       z     vdW  Elec       q    Type
REMARK                         _______ _______ _______ _____ _____    ______ ____
ROOT
ATOM      1  C   UNL     1       1.663   1.610  -0.064  0.00  0.00    +0.100 C 
ENDROOT
BRANCH   1   2
ATOM      2  C   UNL     1       0.441   1.568  -0.945  0.00  0.00    +0.213 C 
ATOM      3  O   UNL     1      -0.662   1.693  -0.457  0.00  0.00    -0.276 OA
ATOM      4  N   UNL     1       0.575   1.393  -2.274  0.00  0.00    -0.317 N 
ATOM      5  H   UNL     1       1.575   1.280  -2.717  0.00  0.00    +0.149 HD
BRANCH   4   6
ATOM      6  C   UNL     1      -0.614   1.352  -3.131  0.00  0.00    +0.092 C 
BRANCH   6   7
ATOM      7  C   UNL     1      -0.183   1.274  -4.597  0.00  0.00    -0.050 C 
ATOM      8  C   UNL     1      -1.114   2.100  -5.442  0.00  0.00    -0.010 C 
ATOM      9  C   UNL     1      -2.508   2.256  -4.804  0.00  0.00    -0.001 C 
ATOM     10  C   UNL     1      -3.026   0.948  -4.174  0.00  0.00    -0.000 C 
ATOM     11  C   UNL     1      -2.742  -0.256  -5.031  0.00  0.00    -0.000 C 
ATOM     12  C   UNL     1      -1.418  -0.890  -4.561  0.00  0.00    -0.001 C 
ATOM     13  C   UNL     1      -0.252  -0.190  -5.079  0.00  0.00    -0.010 C 
BRANCH   7  14
ATOM     14  N   UNL     1       1.191   1.774  -4.735  0.00  0.00    +0.381 N 
ATOM     15  C   UNL     1       1.674   1.613  -6.113  0.00  0.00    -0.096 C 
ATOM     16  C   UNL     1       1.286   3.176  -4.304  0.00  0.00    -0.096 C 
ATOM     17  H   UNL     1       1.837   1.174  -4.078  0.00  0.00    -0.082 HD
ENDBRANCH   7  14
ENDBRANCH   6   7
ENDBRANCH   4   6
ENDBRANCH   1   2
BRANCH   1  18
ATOM     18  C   UNL     1       1.237   1.818   1.391  0.00  0.00    +0.048 C 
BRANCH  18  21
ATOM     19  C   UNL     1       2.277  -0.632   2.572  0.00  0.00    +0.066 C 
ATOM     20  C   UNL     1       2.961   0.683   2.841  0.00  0.00    +0.047 A 
ATOM     21  C   UNL     1       2.459   1.859   2.271  0.00  0.00    -0.005 A 
ATOM     22  C   UNL     1       3.082   3.039   2.526  0.00  0.00    +0.048 A 
ATOM     23  N   UNL     1       4.182   3.044   3.325  0.00  0.00    -0.200 N 
ATOM     24  C   UNL     1       4.650   1.878   3.861  0.00  0.00    +0.254 A 
ATOM     25  N   UNL     1       4.030   0.720   3.605  0.00  0.00    -0.216 NA
ATOM     26  N   UNL     1       5.720   2.180   4.588  0.00  0.00    -0.186 NA
ATOM     27  C   UNL     1       5.945   3.486   4.532  0.00  0.00    +0.257 A 
ATOM     28  N   UNL     1       5.038   4.058   3.776  0.00  0.00    -0.139 NA
ATOM     29  C   UNL     1       2.561   4.322   1.933  0.00  0.00    +0.066 C 
BRANCH  27  30
ATOM     30  C   UNL     1       7.071   4.204   5.231  0.00  0.00    +0.454 C 
ATOM     31  F   UNL     1       6.786   4.301   6.597  0.00  0.00    -0.163 F 
ATOM     32  F   UNL     1       8.261   3.490   5.052  0.00  0.00    -0.163 F 
ATOM     33  F   UNL     1       7.211   5.487   4.691  0.00  0.00    -0.163 F 
ENDBRANCH  27  30
ENDBRANCH  18  21
ENDBRANCH   1  18
TORSDOF 7
