REMARK  Name = ZINC15062270
REMARK  7 active torsions:
REMARK  status: ('A' for Active; 'I' for Inactive)
REMARK    1  A    between atoms: C_6  and  C_11
REMARK    2  A    between atoms: N_13  and  C_14
REMARK    3  A    between atoms: N_13  and  C_21
REMARK    4  A    between atoms: C_14  and  C_15
REMARK    5  A    between atoms: C_21  and  C_22
REMARK    6  A    between atoms: N_25  and  C_28
REMARK    7  A    between atoms: C_28  and  C_29
REMARK                            x       y       z     vdW  Elec       q    Type
REMARK                         _______ _______ _______ _____ _____    ______ ____
ROOT
ATOM      1  C   UNL     1      -5.998   0.591   0.061  0.00  0.00    +0.263 C 
ATOM      2  O   UNL     1      -6.631   1.627   0.140  0.00  0.00    -0.268 OA
ATOM      3  N   UNL     1      -6.644  -0.588  -0.038  0.00  0.00    -0.294 N 
ENDROOT
BRANCH   1   9
ATOM      4  C   UNL     1      -0.013   1.349  -0.068  0.00  0.00    +0.001 A 
ATOM      5  C   UNL     1      -0.001   0.014   0.318  0.00  0.00    +0.002 A 
ATOM      6  C   UNL     1      -1.180  -0.674   0.499  0.00  0.00    +0.026 A 
ATOM      7  C   UNL     1      -2.396  -0.030   0.295  0.00  0.00    +0.047 A 
ATOM      8  N   UNL     1      -3.705  -0.438   0.393  0.00  0.00    -0.351 N 
ATOM      9  C   UNL     1      -4.528   0.625   0.074  0.00  0.00    +0.103 A 
ATOM     10  H   UNL     1      -4.003  -1.327   0.645  0.00  0.00    +0.166 HD
ATOM     11  C   UNL     1      -3.763   1.706  -0.227  0.00  0.00    +0.040 A 
ATOM     12  C   UNL     1      -2.406   1.323  -0.096  0.00  0.00    +0.000 A 
ATOM     13  C   UNL     1      -1.193   2.003  -0.269  0.00  0.00    +0.010 A 
ENDBRANCH   1   9
BRANCH   3  14
ATOM     14  C   UNL     1      -5.885  -1.840  -0.052  0.00  0.00    +0.139 C 
BRANCH  14  15
ATOM     15  C   UNL     1      -5.821  -2.414   1.365  0.00  0.00    +0.136 C 
ATOM     16  C   UNL     1      -4.992  -3.723   1.378  0.00  0.00    +0.035 C 
ATOM     17  C   UNL     1      -4.519  -3.757   2.857  0.00  0.00    +0.031 C 
ATOM     18  C   UNL     1      -4.333  -2.259   3.176  0.00  0.00    +0.160 C 
ATOM     19  O   UNL     1      -5.119  -1.514   2.236  0.00  0.00    -0.375 OA
ENDBRANCH  14  15
ENDBRANCH   3  14
BRANCH   3  20
ATOM     20  C   UNL     1      -8.106  -0.616  -0.131  0.00  0.00    +0.111 C 
BRANCH  20  21
ATOM     21  C   UNL     1      -8.525  -0.555  -1.601  0.00  0.00    +0.003 C 
ATOM     22  C   UNL     1      -8.117   0.797  -2.194  0.00  0.00    -0.014 C 
ATOM     23  C   UNL     1      -8.609   0.883  -3.640  0.00  0.00    -0.078 C 
ATOM     24  N   UNL     1     -10.071   0.754  -3.672  0.00  0.00    +0.382 N 
ATOM     25  C   UNL     1     -10.465  -0.568  -3.172  0.00  0.00    -0.078 C 
ATOM     26  C   UNL     1     -10.045  -0.710  -1.707  0.00  0.00    -0.014 C 
ATOM     27  H   UNL     1     -10.483   1.469  -3.092  0.00  0.00    -0.081 HD
BRANCH  24  28
ATOM     28  C   UNL     1     -10.545   0.915  -5.053  0.00  0.00    -0.040 C 
BRANCH  28  29
ATOM     29  C   UNL     1     -12.052   0.906  -5.071  0.00  0.00    -0.029 A 
ATOM     30  C   UNL     1     -12.732  -0.245  -5.420  0.00  0.00    +0.004 A 
ATOM     31  C   UNL     1     -14.114  -0.254  -5.436  0.00  0.00    +0.000 A 
ATOM     32  C   UNL     1     -14.818   0.889  -5.105  0.00  0.00    +0.003 A 
ATOM     33  C   UNL     1     -14.140   2.041  -4.755  0.00  0.00    +0.038 A 
ATOM     34  C   UNL     1     -12.755   2.050  -4.733  0.00  0.00    +0.125 A 
ATOM     35  F   UNL     1     -12.091   3.174  -4.388  0.00  0.00    -0.205 F 
ENDBRANCH  28  29
ENDBRANCH  24  28
ENDBRANCH  20  21
ENDBRANCH   3  20
TORSDOF 7
