REMARK  Name = ZINC01457910
REMARK  5 active torsions:
REMARK  status: ('A' for Active; 'I' for Inactive)
REMARK    1  A    between atoms: C_1  and  N_2
REMARK    2  A    between atoms: N_10  and  N_11
REMARK    3  A    between atoms: C_12  and  C_14
REMARK    4  A    between atoms: C_14  and  N_15
REMARK    5  A    between atoms: C_16  and  C_18
REMARK                            x       y       z     vdW  Elec       q    Type
REMARK                         _______ _______ _______ _____ _____    ______ ____
ROOT
ATOM      1  N   UNL     1       0.964  -4.503   0.077  0.00  0.00    -0.205 N 
ATOM      2  C   UNL     1       1.776  -5.575   0.169  0.00  0.00    +0.249 C 
ATOM      3  O   UNL     1       2.979  -5.426   0.164  0.00  0.00    -0.272 OA
ATOM      4  H   UNL     1       0.002  -4.622   0.081  0.00  0.00    +0.177 HD
ENDROOT
BRANCH   1  14
ATOM      5  C   UNL     1      -0.042   1.448  -0.240  0.00  0.00    +0.138 C 
ATOM      6  N   UNL     1      -0.007  -0.009  -0.089  0.00  0.00    -0.269 N 
ATOM      7  C   UNL     1      -1.119  -0.793   0.199  0.00  0.00    +0.046 A 
ATOM      8  C   UNL     1      -2.453  -0.463   0.409  0.00  0.00    +0.024 A 
ATOM      9  C   UNL     1      -3.376  -1.451   0.685  0.00  0.00    +0.002 A 
ATOM     10  C   UNL     1      -2.989  -2.779   0.757  0.00  0.00    +0.001 A 
ATOM     11  C   UNL     1      -1.668  -3.126   0.551  0.00  0.00    +0.012 A 
ATOM     12  C   UNL     1      -0.731  -2.138   0.272  0.00  0.00    +0.028 A 
ATOM     13  C   UNL     1       0.727  -2.167   0.008  0.00  0.00    +0.153 C 
ATOM     14  N   UNL     1       1.511  -3.217  -0.023  0.00  0.00    -0.174 NA
ATOM     15  C   UNL     1       1.102  -0.757  -0.218  0.00  0.00    +0.271 C 
ATOM     16  O   UNL     1       2.218  -0.344  -0.473  0.00  0.00    -0.268 OA
ENDBRANCH   1  14
BRANCH   2  17
ATOM     17  C   UNL     1       1.188  -6.958   0.277  0.00  0.00    +0.202 C 
BRANCH  17  18
ATOM     18  N   UNL     1       2.269  -7.943   0.362  0.00  0.00    -0.303 N 
ATOM     19  C   UNL     1       1.979  -9.255   0.467  0.00  0.00    +0.246 C 
ATOM     20  O   UNL     1       0.820  -9.621   0.489  0.00  0.00    -0.270 OA
ATOM     21  H   UNL     1       3.194  -7.651   0.344  0.00  0.00    +0.150 HD
BRANCH  19  22
ATOM     22  C   UNL     1       3.070 -10.249   0.553  0.00  0.00    +0.051 A 
ATOM     23  C   UNL     1       4.402  -9.831   0.533  0.00  0.00    +0.014 A 
ATOM     24  C   UNL     1       5.415 -10.763   0.614  0.00  0.00    +0.001 A 
ATOM     25  C   UNL     1       5.114 -12.111   0.716  0.00  0.00    +0.001 A 
ATOM     26  C   UNL     1       3.798 -12.532   0.736  0.00  0.00    +0.016 A 
ATOM     27  C   UNL     1       2.773 -11.609   0.661  0.00  0.00    +0.030 A 
ATOM     28 BR   UNL     1       0.973 -12.186   0.697  0.00  0.00    -0.050 Br
ENDBRANCH  19  22
ENDBRANCH  17  18
ENDBRANCH   2  17
TORSDOF 4
