REMARK  Name = ZINC37444258
REMARK  7 active torsions:
REMARK  status: ('A' for Active; 'I' for Inactive)
REMARK    1  A    between atoms: C_1  and  C_2
REMARK    2  A    between atoms: C_8  and  N_10
REMARK    3  A    between atoms: C_11  and  C_13
REMARK    4  A    between atoms: C_13  and  C_36
REMARK    5  A    between atoms: C_16  and  C_31
REMARK    6  A    between atoms: N_22  and  C_23
REMARK    7  A    between atoms: C_23  and  C_24
REMARK                            x       y       z     vdW  Elec       q    Type
REMARK                         _______ _______ _______ _____ _____    ______ ____
ROOT
ATOM      1  C   UNL     1       0.227   0.707   4.435  0.00  0.00    +0.129 C 
ATOM      2  C   UNL     1       1.234   0.415   5.547  0.00  0.00    +0.157 C 
ATOM      3  N   UNL     1       1.016  -0.945   6.049  0.00  0.00    -0.331 N 
ATOM      4  C   UNL     1       1.892  -1.824   6.596  0.00  0.00    +0.085 A 
ATOM      5  C   UNL     1       1.196  -2.974   6.934  0.00  0.00    +0.032 A 
ATOM      6  C   UNL     1      -0.139  -2.787   6.574  0.00  0.00    +0.033 A 
ATOM      7  C   UNL     1      -0.241  -1.539   6.024  0.00  0.00    +0.105 A 
ATOM      8  C   UNL     1      -1.395  -0.833   5.458  0.00  0.00    +0.264 C 
ATOM      9  O   UNL     1      -2.529  -1.259   5.578  0.00  0.00    -0.268 OA
ATOM     10  N   UNL     1      -1.132   0.317   4.794  0.00  0.00    -0.276 N 
ATOM     11  C   UNL     1       0.247   2.207   4.134  0.00  0.00    +0.043 C 
ENDROOT
BRANCH   4  12
ATOM     12  C   UNL     1       3.330  -1.596   6.795  0.00  0.00    +0.151 A 
ATOM     13  C   UNL     1       4.230  -2.514   7.251  0.00  0.00    +0.051 A 
ATOM     14  C   UNL     1       5.481  -1.870   7.285  0.00  0.00    +0.042 A 
ATOM     15  C   UNL     1       5.289  -0.607   6.853  0.00  0.00    +0.196 A 
ATOM     16  O   UNL     1       3.990  -0.446   6.553  0.00  0.00    -0.461 OA
ENDBRANCH   4  12
BRANCH   1  18
ATOM     17  N   UNL     1       0.245  -1.321   3.019  0.00  0.00    -0.310 N 
ATOM     18  C   UNL     1       0.638  -0.044   3.195  0.00  0.00    +0.238 C 
ATOM     19  O   UNL     1       1.323   0.500   2.355  0.00  0.00    -0.273 OA
ATOM     20  H   UNL     1      -0.364  -1.733   3.653  0.00  0.00    +0.149 HD
BRANCH  17  27
ATOM     21  C   UNL     1      -1.604  -2.768   1.322  0.00  0.00    +0.009 C 
ATOM     22  C   UNL     1      -0.192  -3.277   1.617  0.00  0.00    +0.006 C 
ATOM     23  C   UNL     1       0.322  -4.078   0.419  0.00  0.00    +0.005 C 
ATOM     24  C   UNL     1       1.734  -4.587   0.714  0.00  0.00    +0.000 C 
ATOM     25  C   UNL     1       2.663  -3.398   0.968  0.00  0.00    +0.002 C 
ATOM     26  C   UNL     1       2.149  -2.597   2.167  0.00  0.00    +0.022 C 
ATOM     27  C   UNL     1       0.737  -2.088   1.872  0.00  0.00    +0.076 C 
ENDBRANCH  17  27
ENDBRANCH   1  18
BRANCH  10  28
ATOM     28  C   UNL     1      -2.245   1.195   4.424  0.00  0.00    +0.147 C 
BRANCH  28  29
ATOM     29  C   UNL     1      -2.697   0.871   3.024  0.00  0.00    +0.005 A 
ATOM     30  C   UNL     1      -2.226   1.611   1.956  0.00  0.00    +0.008 A 
ATOM     31  C   UNL     1      -2.641   1.314   0.672  0.00  0.00    +0.000 A 
ATOM     32  C   UNL     1      -3.528   0.276   0.453  0.00  0.00    +0.003 A 
ATOM     33  C   UNL     1      -4.000  -0.466   1.519  0.00  0.00    +0.038 A 
ATOM     34  C   UNL     1      -3.581  -0.172   2.806  0.00  0.00    +0.128 A 
ATOM     35  F   UNL     1      -4.039  -0.899   3.849  0.00  0.00    -0.205 F 
ENDBRANCH  28  29
ENDBRANCH  10  28
TORSDOF 5
