REMARK  Name = ZINC20208163
REMARK  11 active torsions:
REMARK  status: ('A' for Active; 'I' for Inactive)
REMARK    1  A    between atoms: C_1  and  C_2
REMARK    2  A    between atoms: C_2  and  S_3
REMARK    3  A    between atoms: S_3  and  C_6
REMARK    4  A    between atoms: C_12  and  C_13
REMARK    5  A    between atoms: C_16  and  O_19
REMARK    6  A    between atoms: O_19  and  C_20
REMARK    7  A    between atoms: C_20  and  C_21
REMARK    8  A    between atoms: C_21  and  O_22
REMARK    9  A    between atoms: O_22  and  C_23
REMARK   10  A    between atoms: C_26  and  C_30
REMARK   11  A    between atoms: C_27  and  C_29
REMARK                            x       y       z     vdW  Elec       q    Type
REMARK                         _______ _______ _______ _____ _____    ______ ____
ROOT
ATOM      1  C   UNL     1       0.147 -10.713  -5.494  0.00  0.00    +0.235 C 
ATOM      2  N   UNL     1       0.812  -9.689  -5.040  0.00  0.00    -0.145 NA
ATOM      3  N   UNL     1       0.646  -9.246  -3.746  0.00  0.00    -0.150 N 
ATOM      4  C   UNL     1       1.246  -8.099  -3.183  0.00  0.00    +0.153 C 
ATOM      5  N   UNL     1       1.687  -7.096  -3.896  0.00  0.00    -0.283 NA
ATOM      6  C   UNL     1       1.328  -8.144  -1.695  0.00  0.00    +0.081 C 
ATOM      7  C   UNL     1       2.370  -7.564  -1.008  0.00  0.00    +0.024 C 
ATOM      8  C   UNL     1       0.225  -8.848  -0.995  0.00  0.00    +0.273 C 
ATOM      9  O   UNL     1      -0.061  -8.574   0.160  0.00  0.00    -0.268 OA
ATOM     10  N   UNL     1      -0.451  -9.797  -1.670  0.00  0.00    -0.152 NA
ATOM     11  C   UNL     1      -0.204  -9.976  -2.944  0.00  0.00    +0.182 C 
ATOM     12  S   UNL     1      -0.833 -11.187  -4.077  0.00  0.00    -0.015 S 
ATOM     13  H   UNL     1       1.676  -7.148  -4.864  0.00  0.00    +0.188 HD
ENDROOT
BRANCH   7  14
ATOM     14  C   UNL     1       3.527  -7.040  -1.738  0.00  0.00    -0.024 A 
ATOM     15  C   UNL     1       4.184  -5.888  -1.282  0.00  0.00    +0.011 A 
ATOM     16  C   UNL     1       5.262  -5.403  -1.967  0.00  0.00    +0.046 A 
ATOM     17  C   UNL     1       5.708  -6.050  -3.115  0.00  0.00    +0.121 A 
ATOM     18  C   UNL     1       5.061  -7.193  -3.572  0.00  0.00    +0.046 A 
ATOM     19  C   UNL     1       3.985  -7.691  -2.892  0.00  0.00    +0.011 A 
BRANCH  17  20
ATOM     20  O   UNL     1       6.779  -5.564  -3.791  0.00  0.00    -0.489 OA
BRANCH  20  21
ATOM     21  C   UNL     1       7.186  -6.277  -4.961  0.00  0.00    +0.270 C 
BRANCH  21  22
ATOM     22  C   UNL     1       8.400  -5.584  -5.584  0.00  0.00    +0.270 C 
BRANCH  22  23
ATOM     23  O   UNL     1       9.508  -5.669  -4.686  0.00  0.00    -0.489 OA
BRANCH  23  24
ATOM     24  C   UNL     1      10.674  -5.099  -5.091  0.00  0.00    +0.121 A 
ATOM     25  C   UNL     1      10.748  -4.466  -6.323  0.00  0.00    +0.046 A 
ATOM     26  C   UNL     1      11.933  -3.887  -6.732  0.00  0.00    +0.007 A 
ATOM     27  C   UNL     1      13.047  -3.938  -5.913  0.00  0.00    -0.047 A 
ATOM     28  C   UNL     1      12.976  -4.568  -4.684  0.00  0.00    -0.044 A 
ATOM     29  C   UNL     1      11.791  -5.143  -4.269  0.00  0.00    +0.049 A 
ATOM     30  C   UNL     1      14.191  -4.621  -3.795  0.00  0.00    +0.044 C 
ATOM     31  C   UNL     1      14.339  -3.305  -6.361  0.00  0.00    +0.044 C 
ENDBRANCH  23  24
ENDBRANCH  22  23
ENDBRANCH  21  22
ENDBRANCH  20  21
ENDBRANCH  17  20
ENDBRANCH   7  14
BRANCH   1  32
ATOM     32  S   UNL     1       0.195 -11.439  -7.099  0.00  0.00    +0.022 S 
ATOM     33  O   UNL     1       0.719 -10.423  -7.942  0.00  0.00    -0.167 OA
ATOM     34  O   UNL     1      -1.115 -11.948  -7.306  0.00  0.00    -0.167 OA
BRANCH  32  36
ATOM     35  C   UNL     1       1.504 -13.516  -8.306  0.00  0.00    +0.028 C 
ATOM     36  C   UNL     1       1.380 -12.805  -6.956  0.00  0.00    +0.171 C 
ENDBRANCH  32  36
ENDBRANCH   1  32
TORSDOF 8
