REMARK  Name = ZINC35745209
REMARK  11 active torsions:
REMARK  status: ('A' for Active; 'I' for Inactive)
REMARK    1  A    between atoms: C_1  and  C_2
REMARK    2  A    between atoms: C_5  and  C_7
REMARK    3  A    between atoms: C_7  and  N_8
REMARK    4  A    between atoms: N_8  and  C_9
REMARK    5  A    between atoms: N_8  and  C_27
REMARK    6  A    between atoms: C_9  and  C_10
REMARK    7  A    between atoms: C_13  and  C_15
REMARK    8  A    between atoms: C_15  and  C_16
REMARK    9  A    between atoms: C_15  and  C_21
REMARK   10  A    between atoms: C_15  and  O_26
REMARK   11  A    between atoms: C_27  and  C_28
REMARK                            x       y       z     vdW  Elec       q    Type
REMARK                         _______ _______ _______ _____ _____    ______ ____
ROOT
ATOM      1  C   UNL     1       3.246  -4.945  -2.917  0.00  0.00    +0.089 A 
ATOM      2  C   UNL     1       4.294  -4.421  -3.578  0.00  0.00    +0.043 A 
ATOM      3  C   UNL     1       4.269  -4.966  -4.883  0.00  0.00    +0.048 A 
ATOM      4  C   UNL     1       3.208  -5.791  -4.940  0.00  0.00    +0.147 A 
ATOM      5  O   UNL     1       2.595  -5.779  -3.745  0.00  0.00    -0.463 OA
ENDROOT
BRANCH   1   6
ATOM      6  C   UNL     1       2.870  -4.652  -1.487  0.00  0.00    -0.002 C 
BRANCH   6   7
ATOM      7  N   UNL     1       1.948  -3.509  -1.448  0.00  0.00    +0.391 N 
ATOM      8  H   UNL     1       2.366  -2.724  -1.923  0.00  0.00    -0.080 HD
BRANCH   7   9
ATOM      9  C   UNL     1       1.676  -3.148  -0.050  0.00  0.00    -0.002 C 
BRANCH   9  14
ATOM     10  C   UNL     1       5.976  -3.057   2.584  0.00  0.00    +0.086 C 
ATOM     11  C   UNL     1       4.812  -2.606   1.740  0.00  0.00    +0.102 A 
ATOM     12  C   UNL     1       4.613  -1.360   1.276  0.00  0.00    +0.044 A 
ATOM     13  C   UNL     1       3.408  -1.385   0.537  0.00  0.00    +0.043 A 
ATOM     14  C   UNL     1       2.942  -2.646   0.595  0.00  0.00    +0.089 A 
ATOM     15  O   UNL     1       3.800  -3.382   1.320  0.00  0.00    -0.467 OA
ENDBRANCH   9  14
ENDBRANCH   7   9
BRANCH   7  16
ATOM     16  C   UNL     1       0.690  -3.872  -2.114  0.00  0.00    -0.046 C 
BRANCH  16  17
ATOM     17  C   UNL     1      -0.212  -2.640  -2.205  0.00  0.00    +0.102 C 
ATOM     18  C   UNL     1      -1.533  -3.009  -2.913  0.00  0.00    +0.032 C 
ATOM     19  C   UNL     1      -1.799  -1.756  -3.790  0.00  0.00    +0.030 C 
ATOM     20  C   UNL     1      -0.352  -1.342  -4.159  0.00  0.00    +0.160 C 
ATOM     21  O   UNL     1       0.430  -1.624  -2.986  0.00  0.00    -0.378 OA
ENDBRANCH  16  17
ENDBRANCH   7  16
ENDBRANCH   6   7
ENDBRANCH   1   6
BRANCH   4  22
ATOM     22  C   UNL     1       2.782  -6.596  -6.141  0.00  0.00    +0.186 C 
BRANCH  22  23
ATOM     23  C   UNL     1       2.102  -7.860  -5.682  0.00  0.00    +0.034 A 
ATOM     24  C   UNL     1       2.057  -9.073  -6.286  0.00  0.00    +0.015 A 
ATOM     25  C   UNL     1       1.366 -10.102  -5.674  0.00  0.00    +0.008 A 
ATOM     26  C   UNL     1       0.753  -9.867  -4.488  0.00  0.00    +0.045 A 
ATOM     27  S   UNL     1       1.152  -8.151  -4.198  0.00  0.00    -0.098 S 
ENDBRANCH  22  23
BRANCH  22  28
ATOM     28  C   UNL     1       1.825  -5.785  -6.976  0.00  0.00    +0.034 A 
ATOM     29  C   UNL     1       1.614  -5.825  -8.314  0.00  0.00    +0.015 A 
ATOM     30  C   UNL     1       0.673  -4.979  -8.870  0.00  0.00    +0.008 A 
ATOM     31  C   UNL     1      -0.012  -4.135  -8.061  0.00  0.00    +0.045 A 
ATOM     32  S   UNL     1       0.667  -4.529  -6.457  0.00  0.00    -0.098 S 
ENDBRANCH  22  28
BRANCH  22  33
ATOM     33  O   UNL     1       3.931  -6.930  -6.923  0.00  0.00    -0.371 OA
ATOM     34  H   UNL     1       4.419  -6.163  -7.252  0.00  0.00    +0.212 HD
ENDBRANCH  22  33
ENDBRANCH   4  22
TORSDOF 10
