REMARK  Name = ZINC19812797
REMARK  6 active torsions:
REMARK  status: ('A' for Active; 'I' for Inactive)
REMARK    1  A    between atoms: C_4  and  C_7
REMARK    2  A    between atoms: C_7  and  N_8
REMARK    3  A    between atoms: C_19  and  N_23
REMARK    4  A    between atoms: N_23  and  C_24
REMARK    5  A    between atoms: C_24  and  C_25
REMARK    6  A    between atoms: C_30  and  C_31
REMARK                            x       y       z     vdW  Elec       q    Type
REMARK                         _______ _______ _______ _____ _____    ______ ____
ROOT
ATOM      1  N   UNL     1      -0.698   1.558   1.213  0.00  0.00    -0.294 N 
ATOM      2  C   UNL     1      -0.336   2.746   1.763  0.00  0.00    +0.203 A 
ATOM      3  N   UNL     1      -0.927   3.204   2.833  0.00  0.00    -0.230 NA
ATOM      4  C   UNL     1      -1.897   2.514   3.427  0.00  0.00    +0.116 A 
ATOM      5  C   UNL     1      -2.336   1.275   2.936  0.00  0.00    +0.076 A 
ATOM      6  C   UNL     1      -1.671   0.804   1.757  0.00  0.00    +0.263 A 
ATOM      7  O   UNL     1      -1.982  -0.263   1.255  0.00  0.00    -0.267 OA
ATOM      8  C   UNL     1      -3.410   0.631   3.692  0.00  0.00    -0.023 A 
ATOM      9  C   UNL     1      -3.871   1.286   4.779  0.00  0.00    -0.003 A 
ATOM     10  S   UNL     1      -2.915   2.776   4.857  0.00  0.00    -0.073 S 
ATOM     11  C   UNL     1      -4.956   0.843   5.712  0.00  0.00    +0.061 C 
ATOM     12  C   UNL     1      -5.224  -0.649   5.470  0.00  0.00    +0.059 C 
ATOM     13  C   UNL     1      -5.358  -0.887   3.963  0.00  0.00    +0.024 C 
ATOM     14  C   UNL     1      -3.997  -0.718   3.287  0.00  0.00    +0.038 C 
ENDROOT
BRANCH  12  15
ATOM     15  N   UNL     1      -6.469  -1.042   6.144  0.00  0.00    -0.309 NA
ATOM     16  H   UNL     1      -7.187  -0.210   6.102  0.00  0.00    +0.123 HD
BRANCH  15  17
ATOM     17  C   UNL     1      -6.221  -1.381   7.552  0.00  0.00    +0.117 C 
BRANCH  17  18
ATOM     18  C   UNL     1      -7.519  -1.778   8.208  0.00  0.00    -0.022 A 
ATOM     19  C   UNL     1      -8.200  -0.869   8.997  0.00  0.00    +0.005 A 
ATOM     20  C   UNL     1      -9.393  -1.232   9.595  0.00  0.00    +0.000 A 
ATOM     21  C   UNL     1      -9.898  -2.506   9.413  0.00  0.00    +0.001 A 
ATOM     22  C   UNL     1      -9.213  -3.416   8.629  0.00  0.00    +0.013 A 
ATOM     23  C   UNL     1      -8.024  -3.051   8.027  0.00  0.00    +0.059 A 
BRANCH  23  24
ATOM     24  C   UNL     1      -7.277  -4.043   7.172  0.00  0.00    +0.418 C 
ATOM     25  F   UNL     1      -7.980  -5.252   7.140  0.00  0.00    -0.166 F 
ATOM     26  F   UNL     1      -7.154  -3.540   5.873  0.00  0.00    -0.166 F 
ATOM     27  F   UNL     1      -6.004  -4.258   7.711  0.00  0.00    -0.166 F 
ENDBRANCH  23  24
ENDBRANCH  17  18
ENDBRANCH  15  17
ENDBRANCH  12  15
BRANCH   1  28
ATOM     28  C   UNL     1      -0.013   1.086   0.008  0.00  0.00    +0.161 C 
BRANCH  28  32
ATOM     29  C   UNL     1      -2.078   2.501  -3.453  0.00  0.00    +0.000 A 
ATOM     30  C   UNL     1      -1.066   3.259  -2.894  0.00  0.00    +0.000 A 
ATOM     31  C   UNL     1      -0.398   2.801  -1.774  0.00  0.00    +0.005 A 
ATOM     32  C   UNL     1      -0.742   1.585  -1.213  0.00  0.00    -0.028 A 
ATOM     33  C   UNL     1      -1.750   0.825  -1.775  0.00  0.00    +0.005 A 
ATOM     34  C   UNL     1      -2.422   1.285  -2.892  0.00  0.00    +0.000 A 
ENDBRANCH  28  32
ENDBRANCH   1  28
TORSDOF 6
