REMARK  Name = ZINC29910453
REMARK  13 active torsions:
REMARK  status: ('A' for Active; 'I' for Inactive)
REMARK    1  A    between atoms: C_1  and  C_2
REMARK    2  A    between atoms: C_2  and  O_3
REMARK    3  A    between atoms: O_3  and  C_4
REMARK    4  A    between atoms: C_4  and  C_6
REMARK    5  A    between atoms: C_7  and  C_34
REMARK    6  A    between atoms: C_10  and  N_11
REMARK    7  A    between atoms: C_12  and  C_14
REMARK    8  A    between atoms: C_14  and  C_16
REMARK    9  A    between atoms: C_14  and  N_17
REMARK   10  A    between atoms: C_20  and  C_23
REMARK   11  A    between atoms: N_25  and  C_26
REMARK   12  A    between atoms: C_31  and  O_32
REMARK   13  A    between atoms: O_32  and  C_33
REMARK                            x       y       z     vdW  Elec       q    Type
REMARK                         _______ _______ _______ _____ _____    ______ ____
ROOT
ATOM      1  C   UNL     1      -3.112   6.541   0.042  0.00  0.00    +0.016 C 
ATOM      2  C   UNL     1      -2.677   7.305  -1.210  0.00  0.00    -0.004 C 
ENDROOT
BRANCH   1   3
ATOM      3  N   UNL     1      -4.576   6.422   0.059  0.00  0.00    +0.387 N 
ATOM      4  C   UNL     1      -5.061   5.717  -1.133  0.00  0.00    -0.077 C 
ATOM      5  C   UNL     1      -6.569   5.484  -1.012  0.00  0.00    -0.006 C 
ATOM      6  C   UNL     1      -7.279   6.833  -0.870  0.00  0.00    +0.072 C 
ATOM      7  C   UNL     1      -6.721   7.568   0.352  0.00  0.00    -0.006 C 
ATOM      8  C   UNL     1      -5.209   7.741   0.191  0.00  0.00    -0.077 C 
ATOM      9  H   UNL     1      -4.858   5.826   0.940  0.00  0.00    -0.081 HD
BRANCH   6  10
ATOM     10  C   UNL     1      -8.758   6.607  -0.689  0.00  0.00    +0.220 C 
ATOM     11  O   UNL     1      -9.313   6.995   0.317  0.00  0.00    -0.275 OA
ATOM     12  N   UNL     1      -9.465   5.973  -1.646  0.00  0.00    -0.282 N 
ATOM     13  H   UNL     1      -8.978   5.686  -2.590  0.00  0.00    +0.155 HD
BRANCH  12  14
ATOM     14  C   UNL     1     -10.819   5.680  -1.439  0.00  0.00    +0.076 A 
ATOM     15  C   UNL     1     -11.617   6.553  -0.714  0.00  0.00    +0.027 A 
ATOM     16  C   UNL     1     -12.952   6.262  -0.510  0.00  0.00    +0.002 A 
ATOM     17  C   UNL     1     -13.497   5.102  -1.029  0.00  0.00    +0.004 A 
ATOM     18  C   UNL     1     -12.709   4.227  -1.753  0.00  0.00    +0.047 A 
ATOM     19  C   UNL     1     -11.370   4.514  -1.966  0.00  0.00    +0.141 A 
BRANCH  19  20
ATOM     20  O   UNL     1     -10.595   3.658  -2.683  0.00  0.00    -0.493 OA
ATOM     21  C   UNL     1     -11.227   2.482  -3.192  0.00  0.00    +0.277 C 
ENDBRANCH  19  20
ENDBRANCH  12  14
ENDBRANCH   6  10
ENDBRANCH   1   3
BRANCH   1  23
ATOM     22  N   UNL     1      -1.156   5.027   0.013  0.00  0.00    -0.281 N 
ATOM     23  C   UNL     1      -2.497   5.165   0.030  0.00  0.00    +0.204 C 
ATOM     24  O   UNL     1      -3.208   4.183   0.035  0.00  0.00    -0.277 OA
ATOM     25  H   UNL     1      -0.511   5.918   0.008  0.00  0.00    +0.155 HD
BRANCH  22  30
ATOM     26  C   UNL     1       0.757   3.417  -0.016  0.00  0.00    +0.091 A 
ATOM     27  C   UNL     1       1.067   2.007  -0.025  0.00  0.00    -0.021 A 
ATOM     28  C   UNL     1       0.030   1.151  -0.015  0.00  0.00    +0.051 A 
ATOM     29  S   UNL     1      -1.390   2.225  -0.001  0.00  0.00    -0.081 S 
ATOM     30  C   UNL     1      -0.591   3.761   0.002  0.00  0.00    +0.086 A 
BRANCH  27  31
ATOM     31  C   UNL     1       2.491   1.516  -0.044  0.00  0.00    +0.020 C 
ATOM     32  C   UNL     1       2.719   0.018  -0.256  0.00  0.00    +0.009 C 
ATOM     33  C   UNL     1       2.953   0.640   1.122  0.00  0.00    +0.009 C 
ENDBRANCH  27  31
BRANCH  26  34
ATOM     34  C   UNL     1       1.810   4.435  -0.026  0.00  0.00    +0.342 C 
ATOM     35  O   UNL     1       2.234   4.862  -1.083  0.00  0.00    -0.245 OA
BRANCH  34  36
ATOM     36  O   UNL     1       2.309   4.900   1.138  0.00  0.00    -0.461 OA
BRANCH  36  38
ATOM     37  C   UNL     1       3.789   6.310   2.462  0.00  0.00    +0.048 C 
ATOM     38  C   UNL     1       3.351   5.908   1.052  0.00  0.00    +0.229 C 
ENDBRANCH  36  38
ENDBRANCH  34  36
ENDBRANCH  26  34
ENDBRANCH  22  30
ENDBRANCH   1  23
TORSDOF 10
