REMARK  Name = ZINC40011058
REMARK  8 active torsions:
REMARK  status: ('A' for Active; 'I' for Inactive)
REMARK    1  A    between atoms: C_1  and  C_2
REMARK    2  A    between atoms: C_2  and  O_3
REMARK    3  A    between atoms: O_3  and  C_4
REMARK    4  A    between atoms: C_11  and  C_16
REMARK    5  A    between atoms: C_20  and  O_29
REMARK    6  A    between atoms: C_21  and  O_27
REMARK    7  A    between atoms: O_27  and  C_28
REMARK    8  A    between atoms: O_29  and  C_30
REMARK                            x       y       z     vdW  Elec       q    Type
REMARK                         _______ _______ _______ _____ _____    ______ ____
ROOT
ATOM      1  C   UNL     1      -5.394  -6.114   1.513  0.00  0.00    -0.025 C 
ATOM      2  C   UNL     1      -4.452  -5.947   2.677  0.00  0.00    -0.054 A 
ATOM      3  C   UNL     1      -3.600  -4.853   2.686  0.00  0.00    +0.051 A 
ATOM      4  C   UNL     1      -2.721  -4.659   3.736  0.00  0.00    +0.162 A 
ATOM      5  C   UNL     1      -2.692  -5.569   4.789  0.00  0.00    +0.162 A 
ATOM      6  C   UNL     1      -3.543  -6.660   4.775  0.00  0.00    +0.053 A 
ATOM      7  C   UNL     1      -4.422  -6.849   3.719  0.00  0.00    -0.044 A 
ATOM      8  C   UNL     1      -5.326  -8.056   3.741  0.00  0.00    +0.016 C 
ATOM      9  C   UNL     1      -6.461  -7.870   2.734  0.00  0.00    -0.077 C 
ATOM     10  N   UNL     1      -5.879  -7.495   1.436  0.00  0.00    +0.385 N 
ATOM     11  H   UNL     1      -6.584  -7.566   0.718  0.00  0.00    -0.085 HD
ATOM     12  H   UNL     1      -5.110  -8.111   1.220  0.00  0.00    -0.085 HD
ENDROOT
BRANCH   1  20
ATOM     13  C   UNL     1      -2.225  -9.147  -2.338  0.00  0.00    +0.121 A 
ATOM     14  C   UNL     1      -3.235  -9.066  -3.304  0.00  0.00    +0.047 A 
ATOM     15  C   UNL     1      -4.301  -8.235  -3.179  0.00  0.00    +0.027 A 
ATOM     16  C   UNL     1      -4.433  -7.405  -2.050  0.00  0.00    +0.041 A 
ATOM     17  N   UNL     1      -5.485  -6.593  -1.940  0.00  0.00    -0.285 N 
ATOM     18  C   UNL     1      -5.671  -5.788  -0.908  0.00  0.00    +0.223 C 
ATOM     19  O   UNL     1      -6.652  -5.069  -0.864  0.00  0.00    -0.275 OA
ATOM     20  C   UNL     1      -4.661  -5.764   0.217  0.00  0.00    +0.089 C 
ATOM     21  C   UNL     1      -3.463  -6.685   0.097  0.00  0.00    -0.006 C 
ATOM     22  C   UNL     1      -3.385  -7.468  -1.016  0.00  0.00    -0.004 A 
ATOM     23  C   UNL     1      -2.265  -8.389  -1.207  0.00  0.00    +0.055 A 
ATOM     24  H   UNL     1      -6.144  -6.593  -2.652  0.00  0.00    +0.155 HD
BRANCH  13  25
ATOM     25  O   UNL     1      -1.186 -10.003  -2.530  0.00  0.00    -0.492 OA
BRANCH  25  27
ATOM     26  C   UNL     1       0.043 -11.672  -3.773  0.00  0.00    +0.048 C 
ATOM     27  C   UNL     1      -1.195 -10.774  -3.733  0.00  0.00    +0.225 C 
ENDBRANCH  25  27
ENDBRANCH  13  25
ENDBRANCH   1  20
BRANCH   5  28
ATOM     28  O   UNL     1      -1.833  -5.386   5.827  0.00  0.00    -0.491 OA
ATOM     29  C   UNL     1      -1.860  -6.361   6.872  0.00  0.00    +0.277 C 
ENDBRANCH   5  28
BRANCH   4  30
ATOM     30  O   UNL     1      -1.888  -3.584   3.740  0.00  0.00    -0.491 OA
ATOM     31  C   UNL     1      -2.057  -2.629   2.691  0.00  0.00    +0.277 C 
ENDBRANCH   4  30
TORSDOF 5
