REMARK  Name = ZINC20208647
REMARK  9 active torsions:
REMARK  status: ('A' for Active; 'I' for Inactive)
REMARK    1  A    between atoms: C_1  and  C_2
REMARK    2  A    between atoms: C_5  and  N_9
REMARK    3  A    between atoms: C_7  and  C_8
REMARK    4  A    between atoms: N_9  and  C_10
REMARK    5  A    between atoms: N_9  and  S_21
REMARK    6  A    between atoms: C_10  and  C_11
REMARK    7  A    between atoms: N_13  and  N_14
REMARK    8  A    between atoms: C_15  and  C_16
REMARK    9  A    between atoms: S_21  and  C_24
REMARK                            x       y       z     vdW  Elec       q    Type
REMARK                         _______ _______ _______ _____ _____    ______ ____
ROOT
ATOM      1  N   UNL     1       0.058  -4.167  -0.021  0.00  0.00    -0.199 N 
ENDROOT
BRANCH   1   6
ATOM      2  C   UNL     1      -0.018   1.503   0.010  0.00  0.00    +0.044 C 
ATOM      3  C   UNL     1       0.002  -0.004   0.002  0.00  0.00    -0.047 A 
ATOM      4  C   UNL     1       0.006  -0.687  -1.200  0.00  0.00    +0.005 A 
ATOM      5  C   UNL     1       0.024  -2.068  -1.212  0.00  0.00    +0.025 A 
ATOM      6  C   UNL     1       0.040  -2.771  -0.013  0.00  0.00    +0.052 A 
ATOM      7  C   UNL     1       0.036  -2.081   1.192  0.00  0.00    +0.028 A 
ATOM      8  C   UNL     1       0.023  -0.700   1.196  0.00  0.00    -0.046 A 
ATOM      9  C   UNL     1       0.025   0.049   2.504  0.00  0.00    +0.044 C 
ENDBRANCH   1   6
BRANCH   1  10
ATOM     10  S   UNL     1      -0.543  -4.996  -1.322  0.00  0.00    +0.043 S 
ATOM     11  O   UNL     1      -1.029  -6.218  -0.781  0.00  0.00    -0.155 OA
ATOM     12  O   UNL     1      -1.428  -4.083  -1.956  0.00  0.00    -0.155 OA
ATOM     13  C   UNL     1       0.896  -5.310  -2.381  0.00  0.00    +0.218 C 
ENDBRANCH   1  10
BRANCH   1  14
ATOM     14  C   UNL     1       0.610  -4.899   1.122  0.00  0.00    +0.228 C 
BRANCH  14  15
ATOM     15  C   UNL     1      -0.456  -5.063   2.175  0.00  0.00    +0.251 C 
ATOM     16  O   UNL     1      -1.567  -4.613   1.989  0.00  0.00    -0.272 OA
ATOM     17  N   UNL     1      -0.174  -5.709   3.324  0.00  0.00    -0.206 N 
ATOM     18  H   UNL     1       0.714  -6.069   3.473  0.00  0.00    +0.177 HD
BRANCH  17  19
ATOM     19  N   UNL     1      -1.165  -5.862   4.303  0.00  0.00    -0.187 NA
ATOM     20  C   UNL     1      -0.894  -6.486   5.411  0.00  0.00    +0.145 C 
BRANCH  20  21
ATOM     21  C   UNL     1      -1.931  -6.645   6.436  0.00  0.00    +0.032 A 
ATOM     22  C   UNL     1      -1.848  -7.263   7.672  0.00  0.00    +0.017 A 
ATOM     23  C   UNL     1      -2.970  -7.285   8.467  0.00  0.00    +0.008 A 
ATOM     24  C   UNL     1      -4.115  -6.706   8.019  0.00  0.00    +0.046 A 
ATOM     25  S   UNL     1      -3.626  -6.086   6.418  0.00  0.00    -0.096 S 
ENDBRANCH  20  21
ENDBRANCH  17  19
ENDBRANCH  14  15
ENDBRANCH   1  14
TORSDOF 6
