REMARK  Name = ZINC12243030
REMARK  6 active torsions:
REMARK  status: ('A' for Active; 'I' for Inactive)
REMARK    1  A    between atoms: C_5  and  N_7
REMARK    2  A    between atoms: C_12  and  C_13
REMARK    3  A    between atoms: C_12  and  N_63
REMARK    4  A    between atoms: N_22  and  C_25
REMARK    5  A    between atoms: C_25  and  C_26
REMARK    6  A    between atoms: C_29  and  C_32
REMARK                            x       y       z     vdW  Elec       q    Type
REMARK                         _______ _______ _______ _____ _____    ______ ____
ROOT
ATOM      1  C   UNL     1      -3.867   2.999   0.379  0.00  0.00    +0.003 A 
ATOM      2  C   UNL     1      -3.032   1.911   0.599  0.00  0.00    +0.014 A 
ATOM      3  C   UNL     1      -1.672   2.105   0.761  0.00  0.00    +0.051 A 
ATOM      4  C   UNL     1      -1.137   3.411   0.706  0.00  0.00    +0.070 A 
ATOM      5  C   UNL     1      -1.984   4.496   0.490  0.00  0.00    +0.043 A 
ATOM      6  C   UNL     1      -3.354   4.276   0.320  0.00  0.00    +0.024 A 
ATOM      7  C   UNL     1       0.314   3.262   0.906  0.00  0.00    +0.256 C 
ATOM      8  O   UNL     1       1.124   4.168   0.921  0.00  0.00    -0.269 OA
ATOM      9  N   UNL     1       0.595   1.957   1.071  0.00  0.00    -0.230 N 
ATOM     10  C   UNL     1      -0.522   1.209   1.003  0.00  0.00    +0.254 C 
ATOM     11  O   UNL     1      -0.575   0.001   1.115  0.00  0.00    -0.270 OA
ENDROOT
BRANCH   5  12
ATOM     12  N   UNL     1      -1.470   5.782   0.428  0.00  0.00    -0.333 N 
ATOM     13  C   UNL     1      -1.988   6.610   1.527  0.00  0.00    +0.086 C 
ATOM     14  C   UNL     1      -1.338   7.994   1.470  0.00  0.00    -0.060 C 
ATOM     15  C   UNL     1      -1.106   7.786  -0.931  0.00  0.00    -0.060 C 
ATOM     16  C   UNL     1      -1.756   6.402  -0.874  0.00  0.00    +0.086 C 
ATOM     17  N   UNL     1      -1.651   8.614   0.165  0.00  0.00    +0.382 N 
ATOM     18  H   UNL     1      -2.671   8.676   0.061  0.00  0.00    -0.082 HD
BRANCH  17  19
ATOM     19  C   UNL     1      -1.079   9.976   0.103  0.00  0.00    -0.075 C 
BRANCH  19  20
ATOM     20  C   UNL     1      -1.783  10.754  -1.011  0.00  0.00    -0.024 C 
ATOM     21  C   UNL     1      -1.130  12.133  -1.170  0.00  0.00    +0.006 C 
ATOM     22  C   UNL     1      -1.732  12.815  -2.400  0.00  0.00    +0.027 C 
ATOM     23  C   UNL     1      -3.230  12.745  -2.349  0.00  0.00    -0.031 C 
ATOM     24  C   UNL     1      -3.893  11.933  -1.589  0.00  0.00    -0.031 C 
ATOM     25  C   UNL     1      -3.257  10.950  -0.649  0.00  0.00    +0.028 C 
ENDBRANCH  19  20
ENDBRANCH  17  19
ENDBRANCH   5  12
BRANCH   9  26
ATOM     26  C   UNL     1       1.939   1.420   1.298  0.00  0.00    +0.152 C 
BRANCH  26  27
ATOM     27  C   UNL     1       2.580   1.097  -0.027  0.00  0.00    -0.030 A 
ATOM     28  C   UNL     1       2.428  -0.161  -0.580  0.00  0.00    +0.006 A 
ATOM     29  C   UNL     1       3.012  -0.456  -1.798  0.00  0.00    +0.013 A 
ATOM     30  C   UNL     1       3.756   0.503  -2.458  0.00  0.00    +0.055 A 
ATOM     31  C   UNL     1       3.913   1.759  -1.902  0.00  0.00    +0.013 A 
ATOM     32  C   UNL     1       3.325   2.056  -0.687  0.00  0.00    +0.006 A 
BRANCH  30  33
ATOM     33  C   UNL     1       4.397   0.180  -3.783  0.00  0.00    +0.417 C 
ATOM     34  F   UNL     1       5.681  -0.332  -3.568  0.00  0.00    -0.166 F 
ATOM     35  F   UNL     1       3.622  -0.771  -4.456  0.00  0.00    -0.166 F 
ATOM     36  F   UNL     1       4.482   1.343  -4.556  0.00  0.00    -0.166 F 
ENDBRANCH  30  33
ENDBRANCH  26  27
ENDBRANCH   9  26
TORSDOF 6
