REMARK  Name = ZINC64109050
REMARK  4 active torsions:
REMARK  status: ('A' for Active; 'I' for Inactive)
REMARK    1  A    between atoms: C_8  and  C_13
REMARK    2  A    between atoms: C_13  and  C_14
REMARK    3  A    between atoms: N_16  and  N_17
REMARK    4  A    between atoms: N_17  and  C_18
REMARK                            x       y       z     vdW  Elec       q    Type
REMARK                         _______ _______ _______ _____ _____    ______ ____
ROOT
ATOM      1  C   UNL     1       4.013  -4.538   1.017  0.00  0.00    +0.230 C 
ATOM      2  O   UNL     1       4.770  -4.359   0.087  0.00  0.00    -0.274 OA
ATOM      3  N   UNL     1       4.322  -5.433   1.976  0.00  0.00    -0.236 N 
ATOM      4  H   UNL     1       3.716  -5.576   2.720  0.00  0.00    +0.173 HD
ENDROOT
BRANCH   3   5
ATOM      5  N   UNL     1       5.519  -6.157   1.899  0.00  0.00    -0.262 N 
ATOM      6  H   UNL     1       6.085  -6.076   1.116  0.00  0.00    +0.170 HD
BRANCH   5   7
ATOM      7  C   UNL     1       5.897  -6.998   2.951  0.00  0.00    +0.081 A 
ATOM      8  C   UNL     1       6.559  -8.190   2.686  0.00  0.00    +0.066 A 
ATOM      9  C   UNL     1       6.931  -9.019   3.728  0.00  0.00    +0.042 A 
ATOM     10  C   UNL     1       6.645  -8.662   5.034  0.00  0.00    +0.044 A 
ATOM     11  C   UNL     1       5.986  -7.475   5.301  0.00  0.00    +0.042 A 
ATOM     12  C   UNL     1       5.616  -6.639   4.264  0.00  0.00    +0.066 A 
ATOM     13 CL   UNL     1       4.796  -5.147   4.601  0.00  0.00    -0.081 Cl
ATOM     14 CL   UNL     1       7.113  -9.705   6.340  0.00  0.00    -0.083 Cl
ATOM     15 CL   UNL     1       6.918  -8.639   1.048  0.00  0.00    -0.081 Cl
ENDBRANCH   5   7
ENDBRANCH   3   5
BRANCH   1  16
ATOM     16  C   UNL     1       2.725  -3.759   1.101  0.00  0.00    +0.114 C 
BRANCH  16  24
ATOM     17  C   UNL     1      -0.431   0.999  -0.102  0.00  0.00    +0.001 A 
ATOM     18  C   UNL     1       0.688   1.826  -0.005  0.00  0.00    +0.002 A 
ATOM     19  C   UNL     1       1.956   1.339   0.044  0.00  0.00    +0.024 A 
ATOM     20  C   UNL     1       2.192  -0.047  -0.004  0.00  0.00    +0.040 A 
ATOM     21  N   UNL     1       3.440  -0.513   0.045  0.00  0.00    -0.284 N 
ATOM     22  C   UNL     1       3.732  -1.802   0.004  0.00  0.00    +0.225 C 
ATOM     23  O   UNL     1       4.891  -2.167   0.052  0.00  0.00    -0.275 OA
ATOM     24  C   UNL     1       2.619  -2.820  -0.102  0.00  0.00    +0.107 C 
ATOM     25  C   UNL     1       1.197  -2.295  -0.158  0.00  0.00    -0.004 C 
ATOM     26  C   UNL     1       1.027  -0.944  -0.107  0.00  0.00    -0.007 A 
ATOM     27  C   UNL     1      -0.310  -0.352  -0.155  0.00  0.00    +0.009 A 
ATOM     28  H   UNL     1       4.168   0.124   0.113  0.00  0.00    +0.155 HD
ENDBRANCH  16  24
ENDBRANCH   1  16
TORSDOF 4
