REMARK  Name = ZINC15003683
REMARK  14 active torsions:
REMARK  status: ('A' for Active; 'I' for Inactive)
REMARK    1  A    between atoms: C_1  and  C_2
REMARK    2  A    between atoms: C_3  and  C_8
REMARK    3  A    between atoms: N_5  and  C_7
REMARK    4  A    between atoms: C_8  and  N_9
REMARK    5  A    between atoms: N_9  and  C_10
REMARK    6  A    between atoms: N_9  and  C_11
REMARK    7  A    between atoms: C_11  and  C_13
REMARK    8  A    between atoms: C_11  and  C_21
REMARK    9  A    between atoms: C_13  and  C_14
REMARK   10  A    between atoms: N_24  and  C_27
REMARK   11  A    between atoms: C_27  and  C_28
REMARK   12  A    between atoms: C_29  and  O_36
REMARK   13  A    between atoms: C_33  and  O_34
REMARK   14  A    between atoms: O_34  and  C_35
REMARK                            x       y       z     vdW  Elec       q    Type
REMARK                         _______ _______ _______ _____ _____    ______ ____
ROOT
ATOM      1  C   UNL     1      -0.673   0.217  -0.800  0.00  0.00    +0.064 C 
ENDROOT
BRANCH   1   2
ATOM      2  C   UNL     1      -1.423   1.524  -0.531  0.00  0.00    +0.003 C 
ATOM      3  C   UNL     1      -2.426   1.313   0.606  0.00  0.00    -0.014 C 
ATOM      4  C   UNL     1      -3.216   2.605   0.829  0.00  0.00    -0.078 C 
ATOM      5  N   UNL     1      -3.918   2.971  -0.408  0.00  0.00    +0.383 N 
ATOM      6  C   UNL     1      -2.972   3.224  -1.502  0.00  0.00    -0.078 C 
ATOM      7  C   UNL     1      -2.176   1.950  -1.794  0.00  0.00    -0.014 C 
ATOM      8  H   UNL     1      -4.548   2.118  -0.700  0.00  0.00    -0.081 HD
BRANCH   5   9
ATOM      9  C   UNL     1      -4.796   4.129  -0.192  0.00  0.00    -0.036 C 
BRANCH   9  10
ATOM     10  C   UNL     1      -5.903   3.751   0.758  0.00  0.00    +0.019 A 
ATOM     11  C   UNL     1      -5.734   3.918   2.124  0.00  0.00    +0.122 A 
ATOM     12  C   UNL     1      -6.755   3.568   2.996  0.00  0.00    +0.046 A 
ATOM     13  C   UNL     1      -7.939   3.054   2.504  0.00  0.00    +0.007 A 
ATOM     14  C   UNL     1      -8.111   2.887   1.143  0.00  0.00    +0.046 A 
ATOM     15  C   UNL     1      -7.094   3.240   0.267  0.00  0.00    +0.125 A 
BRANCH  15  16
ATOM     16  O   UNL     1      -7.266   3.081  -1.072  0.00  0.00    -0.495 OA
ATOM     17  C   UNL     1      -8.519   2.550  -1.507  0.00  0.00    +0.277 C 
ENDBRANCH  15  16
BRANCH  11  18
ATOM     18  O   UNL     1      -4.569   4.423   2.608  0.00  0.00    -0.506 OA
ATOM     19  H   UNL     1      -4.435   4.555   3.692  0.00  0.00    +0.292 HD
ENDBRANCH  11  18
ENDBRANCH   9  10
ENDBRANCH   5   9
ENDBRANCH   1   2
BRANCH   1  20
ATOM     20  N   UNL     1       0.146  -0.127   0.370  0.00  0.00    -0.298 NA
ATOM     21  C   UNL     1      -0.582  -1.023   1.278  0.00  0.00    +0.105 C 
BRANCH  20  22
ATOM     22  C   UNL     1       0.595   1.083   1.072  0.00  0.00    +0.123 C 
BRANCH  22  25
ATOM     23  C   UNL     1       3.685   0.492   0.688  0.00  0.00    +0.068 C 
ATOM     24  C   UNL     1       2.929   0.440   1.992  0.00  0.00    +0.064 A 
ATOM     25  C   UNL     1       1.566   0.701   2.160  0.00  0.00    +0.007 A 
ATOM     26  C   UNL     1       1.271   0.544   3.471  0.00  0.00    +0.113 A 
ATOM     27  N   UNL     1       2.409   0.203   4.111  0.00  0.00    -0.274 N 
ATOM     28  N   UNL     1       3.437   0.147   3.161  0.00  0.00    -0.176 NA
ATOM     29  C   UNL     1       2.545  -0.063   5.545  0.00  0.00    +0.172 C 
ENDBRANCH  22  25
ENDBRANCH  20  22
ENDBRANCH   1  20
BRANCH   1  30
ATOM     30  C   UNL     1       0.230   0.390  -2.023  0.00  0.00    +0.057 C 
BRANCH  30  31
ATOM     31  C   UNL     1       0.823  -0.943  -2.401  0.00  0.00    -0.011 A 
ATOM     32  C   UNL     1       2.148  -1.216  -2.119  0.00  0.00    +0.006 A 
ATOM     33  C   UNL     1       2.690  -2.441  -2.461  0.00  0.00    +0.000 A 
ATOM     34  C   UNL     1       1.911  -3.390  -3.096  0.00  0.00    +0.003 A 
ATOM     35  C   UNL     1       0.588  -3.117  -3.385  0.00  0.00    +0.038 A 
ATOM     36  C   UNL     1       0.042  -1.893  -3.038  0.00  0.00    +0.127 A 
ATOM     37  F   UNL     1      -1.252  -1.625  -3.320  0.00  0.00    -0.205 F 
ENDBRANCH  30  31
ENDBRANCH   1  30
TORSDOF 10
