REMARK  Name = ZINC16888806
REMARK  11 active torsions:
REMARK  status: ('A' for Active; 'I' for Inactive)
REMARK    1  A    between atoms: C_1  and  C_2
REMARK    2  A    between atoms: C_2  and  C_3
REMARK    3  A    between atoms: C_3  and  C_4
REMARK    4  A    between atoms: C_4  and  C_5
REMARK    5  A    between atoms: C_5  and  C_6
REMARK    6  A    between atoms: C_6  and  N_7
REMARK    7  A    between atoms: C_9  and  C_17
REMARK    8  A    between atoms: C_17  and  C_18
REMARK    9  A    between atoms: C_18  and  C_20
REMARK   10  A    between atoms: C_18  and  N_21
REMARK   11  A    between atoms: C_22  and  C_24
REMARK                            x       y       z     vdW  Elec       q    Type
REMARK                         _______ _______ _______ _____ _____    ______ ____
ROOT
ATOM      1  C   UNL     1      -1.304   6.080   3.916  0.00  0.00    +0.059 C 
ENDROOT
BRANCH   1   4
ATOM      2  N   UNL     1      -3.499   7.589   1.374  0.00  0.00    -0.346 N 
ATOM      3  C   UNL     1      -2.412   7.604   2.204  0.00  0.00    +0.090 A 
ATOM      4  C   UNL     1      -2.350   6.457   2.898  0.00  0.00    -0.020 A 
ATOM      5  C   UNL     1      -3.487   5.638   2.474  0.00  0.00    +0.004 A 
ATOM      6  C   UNL     1      -4.182   6.401   1.518  0.00  0.00    +0.049 A 
ATOM      7  C   UNL     1      -5.328   5.880   0.927  0.00  0.00    +0.027 A 
ATOM      8  C   UNL     1      -5.769   4.622   1.275  0.00  0.00    +0.017 A 
ATOM      9  C   UNL     1      -5.086   3.869   2.221  0.00  0.00    +0.019 A 
ATOM     10  C   UNL     1      -3.951   4.367   2.821  0.00  0.00    +0.025 A 
ATOM     11 BR   UNL     1      -5.719   2.149   2.689  0.00  0.00    -0.050 Br
BRANCH   2  12
ATOM     12  C   UNL     1      -3.881   8.675   0.468  0.00  0.00    +0.122 C 
BRANCH  12  13
ATOM     13  C   UNL     1      -4.914   9.572   1.154  0.00  0.00    +0.022 C 
BRANCH  13  14
ATOM     14  C   UNL     1      -5.313  10.706   0.208  0.00  0.00    +0.002 C 
BRANCH  14  15
ATOM     15  C   UNL     1      -6.346  11.603   0.894  0.00  0.00    -0.000 C 
BRANCH  15  17
ATOM     16  C   UNL     1      -7.778  13.634   0.633  0.00  0.00    +0.004 C 
ATOM     17  C   UNL     1      -6.745  12.737  -0.053  0.00  0.00    -0.003 C 
ENDBRANCH  15  17
ENDBRANCH  14  15
ENDBRANCH  13  14
ENDBRANCH  12  13
ENDBRANCH   2  12
ENDBRANCH   1   4
BRANCH   1  18
ATOM     18  C   UNL     1      -0.206   5.257   3.239  0.00  0.00    +0.074 C 
ATOM     19  C   UNL     1       0.916   4.981   4.242  0.00  0.00    +0.028 C 
BRANCH  18  20
ATOM     20  N   UNL     1      -0.766   3.987   2.771  0.00  0.00    -0.312 N 
ATOM     21  C   UNL     1      -0.187   3.333   1.745  0.00  0.00    +0.221 C 
ATOM     22  O   UNL     1       0.799   3.795   1.210  0.00  0.00    -0.275 OA
ATOM     23  H   UNL     1      -1.554   3.618   3.198  0.00  0.00    +0.149 HD
BRANCH  21  24
ATOM     24  C   UNL     1      -0.763   2.026   1.263  0.00  0.00    +0.129 C 
ATOM     25  C   UNL     1      -0.445   1.798  -0.234  0.00  0.00    +0.137 C 
ATOM     26  C   UNL     1       0.825   0.975  -0.216  0.00  0.00    +0.308 C 
ATOM     27  O   UNL     1       1.558   0.812  -1.163  0.00  0.00    -0.251 OA
ATOM     28  O   UNL     1       1.018   0.454   1.002  0.00  0.00    -0.457 OA
ATOM     29  C   UNL     1      -0.043   0.830   1.917  0.00  0.00    +0.125 C 
ATOM     30  C   UNL     1       0.538   1.252   3.264  0.00  0.00    +0.049 C 
ATOM     31  C   UNL     1       1.256   0.061   3.906  0.00  0.00    +0.004 C 
ATOM     32  C   UNL     1       0.263  -1.086   4.102  0.00  0.00    +0.000 C 
ATOM     33  C   UNL     1      -0.303  -1.511   2.745  0.00  0.00    +0.004 C 
ATOM     34  C   UNL     1      -1.024  -0.325   2.100  0.00  0.00    +0.049 C 
ENDBRANCH  21  24
ENDBRANCH  18  20
ENDBRANCH   1  18
TORSDOF 9
