REMARK  Name = ZINC09503039
REMARK  8 active torsions:
REMARK  status: ('A' for Active; 'I' for Inactive)
REMARK    1  A    between atoms: C_1  and  C_2
REMARK    2  A    between atoms: C_5  and  N_13
REMARK    3  A    between atoms: C_7  and  S_8
REMARK    4  A    between atoms: S_8  and  N_11
REMARK    5  A    between atoms: N_11  and  C_12
REMARK    6  A    between atoms: C_14  and  C_16
REMARK    7  A    between atoms: C_16  and  N_53
REMARK    8  A    between atoms: C_24  and  C_26
REMARK                            x       y       z     vdW  Elec       q    Type
REMARK                         _______ _______ _______ _____ _____    ______ ____
ROOT
ATOM      1  N   UNL     1      -0.806   1.552  -0.616  0.00  0.00    -0.287 N 
ATOM      2  C   UNL     1      -1.881   0.823  -0.974  0.00  0.00    +0.201 C 
ATOM      3  O   UNL     1      -1.842  -0.388  -0.906  0.00  0.00    -0.278 OA
ATOM      4  H   UNL     1      -0.860   2.521  -0.598  0.00  0.00    +0.155 HD
ENDROOT
BRANCH   1   9
ATOM      5  C   UNL     1       4.048  -1.031   0.781  0.00  0.00    +0.046 C 
ATOM      6  C   UNL     1       2.758  -0.346   0.411  0.00  0.00    -0.024 A 
ATOM      7  C   UNL     1       1.930  -0.903  -0.546  0.00  0.00    +0.007 A 
ATOM      8  C   UNL     1       0.748  -0.278  -0.887  0.00  0.00    +0.023 A 
ATOM      9  C   UNL     1       0.390   0.913  -0.268  0.00  0.00    +0.035 A 
ATOM     10  C   UNL     1       1.223   1.470   0.693  0.00  0.00    +0.052 A 
ATOM     11  C   UNL     1       2.405   0.839   1.030  0.00  0.00    +0.110 A 
BRANCH  11  12
ATOM     12  S   UNL     1       3.463   1.546   2.248  0.00  0.00    +0.058 S 
ATOM     13  O   UNL     1       2.868   2.776   2.639  0.00  0.00    -0.153 OA
ATOM     14  O   UNL     1       3.757   0.513   3.179  0.00  0.00    -0.153 OA
BRANCH  12  15
ATOM     15  N   UNL     1       4.889   1.927   1.497  0.00  0.00    -0.193 NA
ATOM     16  C   UNL     1       4.909   2.933   0.433  0.00  0.00    +0.127 C 
ATOM     17  H   UNL     1       5.710   1.484   1.762  0.00  0.00    +0.148 HD
ENDBRANCH  12  15
ENDBRANCH  11  12
ENDBRANCH   1   9
BRANCH   2  18
ATOM     18  C   UNL     1      -3.130   1.511  -1.460  0.00  0.00    +0.020 C 
BRANCH  18  27
ATOM     19  C   UNL     1      -3.699  -0.416  -2.813  0.00  0.00    -0.072 C 
ATOM     20  C   UNL     1      -4.916  -1.167  -3.380  0.00  0.00    +0.024 C 
ATOM     21  C   UNL     1      -5.732  -1.648  -2.224  0.00  0.00    -0.010 A 
ATOM     22  C   UNL     1      -5.618  -1.250  -0.926  0.00  0.00    -0.046 A 
ATOM     23  C   UNL     1      -6.490  -1.842  -0.015  0.00  0.00    +0.010 A 
ATOM     24  C   UNL     1      -7.390  -2.760  -0.438  0.00  0.00    +0.045 A 
ATOM     25  S   UNL     1      -7.043  -2.837  -2.189  0.00  0.00    -0.101 S 
ATOM     26  C   UNL     1      -4.571  -0.206  -0.547  0.00  0.00    +0.002 C 
ATOM     27  N   UNL     1      -4.183   0.526  -1.776  0.00  0.00    +0.393 N 
ATOM     28  H   UNL     1      -5.005   1.023  -2.138  0.00  0.00    -0.080 HD
BRANCH  26  29
ATOM     29  C   UNL     1      -5.164   0.772   0.434  0.00  0.00    -0.019 A 
ATOM     30  C   UNL     1      -5.016   0.827   1.780  0.00  0.00    +0.010 A 
ATOM     31  C   UNL     1      -5.661   1.824   2.486  0.00  0.00    +0.008 A 
ATOM     32  C   UNL     1      -6.424   2.719   1.811  0.00  0.00    +0.045 A 
ATOM     33  S   UNL     1      -6.238   2.164   0.124  0.00  0.00    -0.103 S 
ENDBRANCH  26  29
ENDBRANCH  18  27
ENDBRANCH   2  18
TORSDOF 6
