REMARK  Name = ZINC27437990
REMARK  7 active torsions:
REMARK  status: ('A' for Active; 'I' for Inactive)
REMARK    1  A    between atoms: C_1  and  C_2
REMARK    2  A    between atoms: C_2  and  N_3
REMARK    3  A    between atoms: C_6  and  N_9
REMARK    4  A    between atoms: C_10  and  C_12
REMARK    5  A    between atoms: C_12  and  S_13
REMARK    6  A    between atoms: S_13  and  C_14
REMARK    7  A    between atoms: C_17  and  C_20
REMARK                            x       y       z     vdW  Elec       q    Type
REMARK                         _______ _______ _______ _____ _____    ______ ____
ROOT
ATOM      1  C   UNL     1       2.463  -4.155   6.431  0.00  0.00    +0.173 C 
ENDROOT
BRANCH   1   3
ATOM      2  N   UNL     1       1.738  -2.477   4.765  0.00  0.00    -0.312 N 
ATOM      3  C   UNL     1       1.632  -3.730   5.248  0.00  0.00    +0.224 C 
ATOM      4  O   UNL     1       0.867  -4.517   4.731  0.00  0.00    -0.275 OA
ATOM      5  H   UNL     1       2.350  -1.848   5.179  0.00  0.00    +0.149 HD
BRANCH   2   9
ATOM      6  N   UNL     1       0.713  -0.491   1.192  0.00  0.00    +0.380 N 
ATOM      7  C   UNL     1      -0.036  -0.111   2.396  0.00  0.00    -0.077 C 
ATOM      8  C   UNL     1       0.741  -0.544   3.642  0.00  0.00    +0.003 C 
ATOM      9  C   UNL     1       0.930  -2.063   3.615  0.00  0.00    +0.069 C 
ATOM     10  C   UNL     1       1.646  -2.456   2.319  0.00  0.00    +0.003 C 
ATOM     11  C   UNL     1       0.836  -1.952   1.123  0.00  0.00    -0.077 C 
ATOM     12  H   UNL     1       1.632  -0.077   1.226  0.00  0.00    -0.082 HD
BRANCH   6  14
ATOM     13  C   UNL     1      -0.019   1.526   0.010  0.00  0.00    -0.017 C 
ATOM     14  C   UNL     1       0.002  -0.004   0.002  0.00  0.00    -0.082 C 
ENDBRANCH   6  14
ENDBRANCH   2   9
ENDBRANCH   1   3
BRANCH   1  15
ATOM     15  S   UNL     1       2.096  -5.884   6.838  0.00  0.00    -0.077 S 
BRANCH  15  16
ATOM     16  C   UNL     1       3.132  -6.226   8.222  0.00  0.00    +0.185 A 
ATOM     17  N   UNL     1       3.963  -5.381   8.792  0.00  0.00    -0.201 NA
ATOM     18  H   UNL     1       2.705  -8.208   8.697  0.00  0.00    +0.191 HD
ATOM     19  C   UNL     1       4.586  -5.983   9.816  0.00  0.00    +0.182 A 
ATOM     20  N   UNL     1       4.155  -7.220   9.908  0.00  0.00    -0.152 NA
ATOM     21  N   UNL     1       3.206  -7.400   8.888  0.00  0.00    -0.253 N 
BRANCH  19  22
ATOM     22  C   UNL     1       5.598  -5.354  10.700  0.00  0.00    +0.021 A 
ATOM     23  C   UNL     1       5.970  -4.025  10.503  0.00  0.00    +0.013 A 
ATOM     24  C   UNL     1       6.911  -3.445  11.328  0.00  0.00    +0.021 A 
ATOM     25  C   UNL     1       7.486  -4.179  12.351  0.00  0.00    +0.041 A 
ATOM     26  C   UNL     1       7.120  -5.500  12.550  0.00  0.00    +0.021 A 
ATOM     27  C   UNL     1       6.175  -6.087  11.735  0.00  0.00    +0.013 A 
ATOM     28 CL   UNL     1       8.669  -3.443  13.385  0.00  0.00    -0.084 Cl
ENDBRANCH  19  22
ENDBRANCH  15  16
ENDBRANCH   1  15
TORSDOF 6
