REMARK  Name = ZINC39774819
REMARK  7 active torsions:
REMARK  status: ('A' for Active; 'I' for Inactive)
REMARK    1  A    between atoms: C_1  and  C_2
REMARK    2  A    between atoms: C_2  and  C_3
REMARK    3  A    between atoms: C_3  and  C_4
REMARK    4  A    between atoms: C_4  and  S_5
REMARK    5  A    between atoms: S_5  and  C_6
REMARK    6  A    between atoms: C_12  and  C_24
REMARK    7  A    between atoms: C_27  and  C_29
REMARK                            x       y       z     vdW  Elec       q    Type
REMARK                         _______ _______ _______ _____ _____    ______ ____
ROOT
ATOM      1  C   UNL     1       1.529  -4.368  -2.621  0.00  0.00    +0.182 C 
ATOM      2  N   UNL     1       0.932  -4.908  -1.565  0.00  0.00    -0.154 NA
ATOM      3  C   UNL     1       0.775  -6.218  -1.451  0.00  0.00    +0.250 C 
ATOM      4  O   UNL     1       0.266  -6.674  -0.445  0.00  0.00    -0.273 OA
ATOM      5  C   UNL     1       1.214  -7.146  -2.539  0.00  0.00    +0.159 C 
ATOM      6  C   UNL     1       2.023  -8.320  -1.997  0.00  0.00    +0.109 C 
ATOM      7  C   UNL     1       2.581  -9.095  -3.173  0.00  0.00    +0.028 C 
ATOM      8  C   UNL     1       2.932  -8.413  -4.342  0.00  0.00    +0.051 C 
ATOM      9  C   UNL     1       3.522  -9.164  -5.512  0.00  0.00    +0.056 C 
ATOM     10  C   UNL     1       4.264 -10.401  -5.000  0.00  0.00    +0.014 C 
ATOM     11  C   UNL     1       3.285 -11.258  -4.190  0.00  0.00    +0.080 C 
ATOM     12  C   UNL     1       2.726 -10.435  -3.062  0.00  0.00    +0.162 C 
ATOM     13  O   UNL     1       2.364 -11.044  -1.918  0.00  0.00    -0.292 OA
ATOM     14  N   UNL     1       2.733  -7.113  -4.459  0.00  0.00    -0.236 NA
ATOM     15  C   UNL     1       2.028  -6.422  -3.575  0.00  0.00    +0.145 C 
ATOM     16  N   UNL     1       2.081  -5.106  -3.584  0.00  0.00    -0.208 NA
ENDROOT
BRANCH   6  17
ATOM     17  C   UNL     1       1.133  -9.214  -1.173  0.00  0.00    +0.114 A 
ATOM     18  C   UNL     1       1.299  -9.505   0.130  0.00  0.00    +0.045 A 
ATOM     19  C   UNL     1       0.244 -10.373   0.493  0.00  0.00    +0.044 A 
ATOM     20  C   UNL     1      -0.503 -10.561  -0.609  0.00  0.00    +0.102 A 
ATOM     21  O   UNL     1       0.037  -9.852  -1.614  0.00  0.00    -0.464 OA
ATOM     22  C   UNL     1      -1.740 -11.418  -0.700  0.00  0.00    +0.086 C 
ENDBRANCH   6  17
BRANCH   1  23
ATOM     23  S   UNL     1       1.588  -2.612  -2.758  0.00  0.00    -0.088 S 
BRANCH  23  24
ATOM     24  C   UNL     1       0.739  -2.027  -1.265  0.00  0.00    +0.077 C 
BRANCH  24  25
ATOM     25  C   UNL     1       0.718  -0.497  -1.257  0.00  0.00    +0.011 C 
BRANCH  25  27
ATOM     26  C   UNL     1      -0.019   1.526   0.010  0.00  0.00    +0.004 C 
ATOM     27  C   UNL     1       0.002  -0.004   0.002  0.00  0.00    -0.003 C 
ENDBRANCH  25  27
ENDBRANCH  24  25
ENDBRANCH  23  24
ENDBRANCH   1  23
TORSDOF 5
