REMARK  Name = ZINC39711145
REMARK  10 active torsions:
REMARK  status: ('A' for Active; 'I' for Inactive)
REMARK    1  A    between atoms: C_1  and  C_2
REMARK    2  A    between atoms: C_4  and  C_43
REMARK    3  A    between atoms: C_7  and  C_14
REMARK    4  A    between atoms: C_14  and  C_16
REMARK    5  A    between atoms: C_14  and  N_28
REMARK    6  A    between atoms: N_21  and  C_22
REMARK    7  A    between atoms: N_28  and  C_29
REMARK    8  A    between atoms: N_28  and  C_36
REMARK    9  A    between atoms: C_29  and  C_30
REMARK   10  A    between atoms: C_36  and  C_37
REMARK                            x       y       z     vdW  Elec       q    Type
REMARK                         _______ _______ _______ _____ _____    ______ ____
ROOT
ATOM      1  C   UNL     1      -1.941  -7.349  -0.287  0.00  0.00    -0.010 C 
ENDROOT
BRANCH   1   8
ATOM      2  C   UNL     1       5.001  -6.141  -2.848  0.00  0.00    +0.044 C 
ATOM      3  C   UNL     1       3.773  -6.370  -2.006  0.00  0.00    -0.048 A 
ATOM      4  C   UNL     1       3.860  -7.239  -0.918  0.00  0.00    +0.007 A 
ATOM      5  C   UNL     1       2.787  -7.485  -0.122  0.00  0.00    -0.042 A 
ATOM      6  C   UNL     1       1.519  -6.819  -0.421  0.00  0.00    -0.004 A 
ATOM      7  C   UNL     1       0.416  -7.035   0.351  0.00  0.00    -0.006 C 
ATOM      8  C   UNL     1      -0.854  -6.302  -0.032  0.00  0.00    +0.088 C 
ATOM      9  C   UNL     1      -0.795  -5.392  -1.238  0.00  0.00    +0.223 C 
ATOM     10  O   UNL     1      -1.786  -4.779  -1.589  0.00  0.00    -0.275 OA
ATOM     11  N   UNL     1       0.337  -5.264  -1.908  0.00  0.00    -0.285 N 
ATOM     12  C   UNL     1       1.457  -5.906  -1.575  0.00  0.00    +0.041 A 
ATOM     13  C   UNL     1       2.627  -5.717  -2.333  0.00  0.00    +0.027 A 
ATOM     14  C   UNL     1       2.901  -8.428   1.048  0.00  0.00    +0.044 C 
ATOM     15  H   UNL     1       0.354  -4.675  -2.679  0.00  0.00    +0.155 HD
ENDBRANCH   1   8
BRANCH   1  16
ATOM     16  C   UNL     1      -1.513  -8.256  -1.443  0.00  0.00    +0.183 C 
ATOM     17  N   UNL     1      -0.138  -8.748  -1.239  0.00  0.00    -0.229 N 
ATOM     18  N   UNL     1       0.608  -8.259  -2.318  0.00  0.00    -0.064 NA
ATOM     19  N   UNL     1      -0.066  -7.588  -3.094  0.00  0.00    -0.061 NA
ATOM     20  N   UNL     1      -1.409  -7.488  -2.698  0.00  0.00    -0.213 N 
ATOM     21  H   UNL     1       0.184  -9.298  -0.507  0.00  0.00    +0.172 HD
BRANCH  20  22
ATOM     22  C   UNL     1      -2.486  -6.771  -3.386  0.00  0.00    +0.096 C 
ATOM     23  C   UNL     1      -1.883  -5.719  -4.320  0.00  0.00    +0.024 C 
ATOM     24  C   UNL     1      -3.007  -4.970  -5.038  0.00  0.00    +0.002 C 
ATOM     25  C   UNL     1      -3.839  -5.961  -5.856  0.00  0.00    +0.000 C 
ATOM     26  C   UNL     1      -4.442  -7.013  -4.922  0.00  0.00    +0.002 C 
ATOM     27  C   UNL     1      -3.317  -7.761  -4.204  0.00  0.00    +0.024 C 
ENDBRANCH  20  22
ENDBRANCH   1  16
BRANCH   1  28
ATOM     28  N   UNL     1      -2.136  -8.158   0.923  0.00  0.00    +0.390 N 
ATOM     29  H   UNL     1      -1.271  -8.617   1.164  0.00  0.00    -0.080 HD
BRANCH  28  30
ATOM     30  C   UNL     1      -2.553  -7.287   2.031  0.00  0.00    -0.042 C 
BRANCH  30  31
ATOM     31  C   UNL     1      -3.785  -6.519   1.630  0.00  0.00    -0.064 A 
ATOM     32  C   UNL     1      -3.662  -5.327   0.939  0.00  0.00    +0.002 A 
ATOM     33  C   UNL     1      -4.793  -4.622   0.571  0.00  0.00    +0.000 A 
ATOM     34  C   UNL     1      -6.046  -5.108   0.893  0.00  0.00    +0.000 A 
ATOM     35  C   UNL     1      -6.169  -6.300   1.583  0.00  0.00    +0.000 A 
ATOM     36  C   UNL     1      -5.039  -7.007   1.948  0.00  0.00    +0.002 A 
ENDBRANCH  30  31
ENDBRANCH  28  30
BRANCH  28  37
ATOM     37  C   UNL     1      -3.175  -9.167   0.676  0.00  0.00    -0.040 C 
BRANCH  37  38
ATOM     38  C   UNL     1      -3.239 -10.118   1.843  0.00  0.00    -0.046 A 
ATOM     39  C   UNL     1      -2.162 -10.942   2.136  0.00  0.00    +0.005 A 
ATOM     40  C   UNL     1      -2.266 -11.802   3.219  0.00  0.00    +0.020 A 
ATOM     41  C   UNL     1      -3.430 -11.809   3.965  0.00  0.00    +0.111 A 
ATOM     42  N   UNL     1      -4.434 -11.012   3.655  0.00  0.00    -0.263 NA
ATOM     43  C   UNL     1      -4.368 -10.177   2.636  0.00  0.00    +0.112 A 
ENDBRANCH  37  38
ENDBRANCH  28  37
ENDBRANCH   1  28
TORSDOF 8
