REMARK  Name = ZINC66247046
REMARK  4 active torsions:
REMARK  status: ('A' for Active; 'I' for Inactive)
REMARK    1  A    between atoms: C_4  and  C_7
REMARK    2  A    between atoms: C_7  and  N_8
REMARK    3  A    between atoms: N_16  and  S_17
REMARK    4  A    between atoms: S_17  and  C_20
REMARK                            x       y       z     vdW  Elec       q    Type
REMARK                         _______ _______ _______ _____ _____    ______ ____
ROOT
ATOM      1  N   UNL     1       4.153  -0.953   1.342  0.00  0.00    +0.386 N 
ATOM      2  C   UNL     1       5.487  -1.568   1.327  0.00  0.00    -0.072 C 
ATOM      3  C   UNL     1       6.089  -1.555   2.734  0.00  0.00    +0.035 C 
ATOM      4  C   UNL     1       5.078  -2.188   3.690  0.00  0.00    +0.024 A 
ATOM      5  C   UNL     1       3.799  -2.301   3.307  0.00  0.00    -0.004 A 
ATOM      6  S   UNL     1       3.003  -3.075   4.689  0.00  0.00    -0.055 S 
ATOM      7  C   UNL     1       4.442  -3.213   5.739  0.00  0.00    +0.192 A 
ATOM      8  N   UNL     1       5.413  -2.655   4.941  0.00  0.00    -0.336 N 
ATOM      9  N   UNL     1       4.546  -3.713   6.946  0.00  0.00    -0.103 NA
ATOM     10  C   UNL     1       3.205  -1.865   2.007  0.00  0.00    -0.033 C 
ATOM     11  H   UNL     1       6.328  -2.591   5.257  0.00  0.00    +0.168 HD
ATOM     12  H   UNL     1       4.189  -0.079   1.845  0.00  0.00    -0.081 HD
ENDROOT
BRANCH   9  13
ATOM     13  S   UNL     1       6.012  -3.723   7.715  0.00  0.00    +0.104 S 
ATOM     14  O   UNL     1       6.850  -4.605   6.981  0.00  0.00    -0.146 OA
ATOM     15  O   UNL     1       6.356  -2.365   7.951  0.00  0.00    -0.146 OA
BRANCH  13  16
ATOM     16  C   UNL     1       5.766  -4.462   9.296  0.00  0.00    +0.150 A 
ATOM     17  C   UNL     1       5.432  -3.812  10.435  0.00  0.00    +0.134 A 
ATOM     18  N   UNL     1       5.339  -4.730  11.420  0.00  0.00    -0.283 N 
ATOM     19  H   UNL     1       5.114  -4.552  12.347  0.00  0.00    +0.188 HD
ATOM     20  N   UNL     1       5.625  -5.985  10.868  0.00  0.00    -0.180 NA
ATOM     21  C   UNL     1       5.874  -5.824   9.594  0.00  0.00    +0.163 A 
ENDBRANCH  13  16
ENDBRANCH   9  13
BRANCH   1  22
ATOM     22  C   UNL     1       3.711  -0.707  -0.038  0.00  0.00    -0.043 C 
BRANCH  22  26
ATOM     23  C   UNL     1      -0.017   1.378   0.010  0.00  0.00    +0.000 A 
ATOM     24  C   UNL     1       1.171   2.086   0.002  0.00  0.00    +0.000 A 
ATOM     25  C   UNL     1       2.377   1.411  -0.013  0.00  0.00    +0.002 A 
ATOM     26  C   UNL     1       2.396   0.029  -0.020  0.00  0.00    -0.064 A 
ATOM     27  C   UNL     1       1.208  -0.679  -0.012  0.00  0.00    +0.002 A 
ATOM     28  C   UNL     1       0.002  -0.004   0.002  0.00  0.00    +0.000 A 
ENDBRANCH  22  26
ENDBRANCH   1  22
TORSDOF 4
