REMARK  Name = ZINC38770683
REMARK  6 active torsions:
REMARK  status: ('A' for Active; 'I' for Inactive)
REMARK    1  A    between atoms: C_1  and  C_2
REMARK    2  A    between atoms: C_4  and  C_5
REMARK    3  A    between atoms: C_4  and  S_8
REMARK    4  A    between atoms: C_5  and  C_7
REMARK    5  A    between atoms: S_8  and  C_9
REMARK    6  A    between atoms: C_15  and  C_18
REMARK                            x       y       z     vdW  Elec       q    Type
REMARK                         _______ _______ _______ _____ _____    ______ ____
ROOT
ATOM      1  C   UNL     1      -1.874   0.166   1.075  0.00  0.00    +0.217 A 
ATOM      2  N   UNL     1      -0.665   0.682   1.127  0.00  0.00    -0.120 NA
ATOM      3  N   UNL     1      -0.125   0.440   2.270  0.00  0.00    -0.127 NA
ATOM      4  C   UNL     1      -0.966  -0.249   3.020  0.00  0.00    +0.179 A 
ATOM      5  N   UNL     1      -2.110  -0.437   2.271  0.00  0.00    -0.186 N 
ATOM      6  N   UNL     1      -3.191  -1.137   2.808  0.00  0.00    -0.160 NA
ATOM      7  C   UNL     1      -3.131  -1.621   4.030  0.00  0.00    +0.127 A 
ATOM      8  C   UNL     1      -1.973  -1.443   4.824  0.00  0.00    +0.037 A 
ATOM      9  C   UNL     1      -0.902  -0.773   4.327  0.00  0.00    +0.052 A 
ENDROOT
BRANCH   7  10
ATOM     10  C   UNL     1      -4.286  -2.359   4.581  0.00  0.00    +0.155 A 
ATOM     11  C   UNL     1      -5.456  -2.609   3.933  0.00  0.00    +0.051 A 
ATOM     12  C   UNL     1      -6.267  -3.336   4.826  0.00  0.00    +0.042 A 
ATOM     13  C   UNL     1      -5.560  -3.493   5.963  0.00  0.00    +0.196 A 
ATOM     14  O   UNL     1      -4.363  -2.906   5.809  0.00  0.00    -0.461 OA
ENDBRANCH   7  10
BRANCH   1  15
ATOM     15  S   UNL     1      -2.986   0.248  -0.289  0.00  0.00    -0.041 S 
BRANCH  15  19
ATOM     16  C   UNL     1      -2.091  -0.662  -3.038  0.00  0.00    +0.092 C 
ATOM     17  C   UNL     1      -1.730   0.752  -2.662  0.00  0.00    +0.170 C 
ATOM     18  O   UNL     1      -1.059   1.435  -3.424  0.00  0.00    -0.292 OA
ATOM     19  C   UNL     1      -2.156   1.277  -1.454  0.00  0.00    +0.100 C 
BRANCH  19  20
ATOM     20  C   UNL     1      -1.931   2.612  -1.162  0.00  0.00    +0.170 C 
ATOM     21  O   UNL     1      -2.308   3.076  -0.094  0.00  0.00    -0.292 OA
ATOM     22  C   UNL     1      -1.222   3.492  -2.158  0.00  0.00    +0.092 C 
ENDBRANCH  19  20
ENDBRANCH  15  19
ENDBRANCH   1  15
TORSDOF 4
