REMARK  Name = ZINC15320476
REMARK  4 active torsions:
REMARK  status: ('A' for Active; 'I' for Inactive)
REMARK    1  A    between atoms: C_1  and  C_2
REMARK    2  A    between atoms: N_10  and  C_13
REMARK    3  A    between atoms: N_28  and  C_31
REMARK    4  A    between atoms: C_31  and  C_32
REMARK                            x       y       z     vdW  Elec       q    Type
REMARK                         _______ _______ _______ _____ _____    ______ ____
ROOT
ATOM      1  C   UNL     1      -0.019   1.526   0.010  0.00  0.00    +0.025 C 
ATOM      2  C   UNL     1       0.002  -0.004   0.002  0.00  0.00    +0.064 C 
ATOM      3  C   UNL     1      -1.397  -0.572   0.218  0.00  0.00    +0.107 C 
ATOM      4  C   UNL     1      -1.544  -0.187   1.736  0.00  0.00    +0.123 C 
ATOM      5  C   UNL     1      -2.963  -0.331   1.949  0.00  0.00    +0.233 C 
ATOM      6  O   UNL     1      -3.527  -0.682   2.963  0.00  0.00    -0.274 OA
ATOM      7  N   UNL     1      -3.537   0.019   0.750  0.00  0.00    -0.210 N 
ATOM      8  C   UNL     1      -2.615   0.146  -0.273  0.00  0.00    +0.232 C 
ATOM      9  O   UNL     1      -2.753   0.716  -1.333  0.00  0.00    -0.274 OA
ATOM     10  C   UNL     1      -0.249  -0.474   2.345  0.00  0.00    +0.136 C 
ATOM     11  N   UNL     1       0.730  -0.542   1.206  0.00  0.00    -0.296 NA
ATOM     12  C   UNL     1       0.232   0.568   3.324  0.00  0.00    +0.004 A 
ATOM     13  C   UNL     1       0.414   1.930   3.234  0.00  0.00    +0.008 A 
ATOM     14  C   UNL     1       0.882   2.638   4.327  0.00  0.00    +0.000 A 
ATOM     15  C   UNL     1       1.165   1.975   5.507  0.00  0.00    +0.002 A 
ATOM     16  C   UNL     1       0.981   0.611   5.601  0.00  0.00    +0.024 A 
ATOM     17  C   UNL     1       0.510  -0.110   4.505  0.00  0.00    +0.042 A 
ATOM     18  N   UNL     1       0.247  -1.472   4.354  0.00  0.00    -0.265 N 
ATOM     19  C   UNL     1      -0.200  -1.770   3.122  0.00  0.00    +0.246 C 
ATOM     20  O   UNL     1      -0.506  -2.869   2.711  0.00  0.00    -0.273 OA
ATOM     21  H   UNL     1       1.031  -1.492   1.052  0.00  0.00    +0.123 HD
ENDROOT
BRANCH   7  22
ATOM     22  C   UNL     1      -4.915   0.216   0.575  0.00  0.00    +0.044 A 
ATOM     23  C   UNL     1      -5.781   0.063   1.649  0.00  0.00    +0.025 A 
ATOM     24  C   UNL     1      -7.137   0.257   1.474  0.00  0.00    +0.022 A 
ATOM     25  C   UNL     1      -7.633   0.603   0.230  0.00  0.00    +0.041 A 
ATOM     26  C   UNL     1      -6.772   0.756  -0.843  0.00  0.00    +0.022 A 
ATOM     27  C   UNL     1      -5.414   0.569  -0.671  0.00  0.00    +0.025 A 
ATOM     28 CL   UNL     1      -9.338   0.846   0.013  0.00  0.00    -0.084 Cl
ENDBRANCH   7  22
BRANCH  18  29
ATOM     29  C   UNL     1       0.437  -2.463   5.416  0.00  0.00    +0.148 C 
BRANCH  29  30
ATOM     30  C   UNL     1      -0.834  -2.594   6.215  0.00  0.00    -0.030 A 
ATOM     31  C   UNL     1      -1.044  -1.786   7.317  0.00  0.00    +0.008 A 
ATOM     32  C   UNL     1      -2.209  -1.905   8.050  0.00  0.00    +0.038 A 
ATOM     33  C   UNL     1      -3.167  -2.833   7.680  0.00  0.00    +0.123 A 
ATOM     34  C   UNL     1      -2.957  -3.642   6.576  0.00  0.00    +0.038 A 
ATOM     35  C   UNL     1      -1.792  -3.518   5.841  0.00  0.00    +0.008 A 
ATOM     36  F   UNL     1      -4.307  -2.950   8.396  0.00  0.00    -0.205 F 
ENDBRANCH  29  30
ENDBRANCH  18  29
TORSDOF 3
