REMARK  Name = ZINC32669139
REMARK  8 active torsions:
REMARK  status: ('A' for Active; 'I' for Inactive)
REMARK    1  A    between atoms: C_1  and  C_2
REMARK    2  A    between atoms: C_2  and  C_4
REMARK    3  A    between atoms: C_7  and  N_10
REMARK    4  A    between atoms: C_11  and  C_13
REMARK    5  A    between atoms: C_13  and  N_24
REMARK    6  A    between atoms: C_14  and  C_15
REMARK    7  A    between atoms: C_18  and  N_21
REMARK    8  A    between atoms: C_25  and  C_27
REMARK                            x       y       z     vdW  Elec       q    Type
REMARK                         _______ _______ _______ _____ _____    ______ ____
ROOT
ATOM      1  C   UNL     1      -3.479   1.651   0.220  0.00  0.00    +0.097 C 
ATOM      2  C   UNL     1      -2.367   0.884   0.145  0.00  0.00    +0.036 C 
ENDROOT
BRANCH   2   3
ATOM      3  C   UNL     1      -1.037   1.509   0.214  0.00  0.00    -0.023 A 
ATOM      4  C   UNL     1       0.072   0.867  -0.346  0.00  0.00    +0.010 A 
ATOM      5  C   UNL     1       1.315   1.462  -0.282  0.00  0.00    +0.033 A 
ATOM      6  C   UNL     1       1.467   2.688   0.341  0.00  0.00    +0.126 A 
ATOM      7  C   UNL     1       0.376   3.328   0.902  0.00  0.00    +0.033 A 
ATOM      8  C   UNL     1      -0.873   2.746   0.847  0.00  0.00    +0.010 A 
BRANCH   6   9
ATOM      9  N   UNL     1       2.804   3.320   0.405  0.00  0.00    +0.056 N 
ATOM     10  O   UNL     1       3.767   2.760  -0.088  0.00  0.00    -0.126 OA
ATOM     11  O   UNL     1       2.942   4.400   0.952  0.00  0.00    -0.126 OA
ENDBRANCH   6   9
ENDBRANCH   2   3
BRANCH   1  13
ATOM     12  N   UNL     1      -5.912   1.783   0.360  0.00  0.00    -0.280 N 
ATOM     13  C   UNL     1      -4.804   1.019   0.286  0.00  0.00    +0.262 C 
ATOM     14  O   UNL     1      -4.901  -0.194   0.273  0.00  0.00    -0.268 OA
ATOM     15  H   UNL     1      -5.833   2.877   0.275  0.00  0.00    +0.155 HD
BRANCH  12  19
ATOM     16  C   UNL     1      -9.627   0.005   0.911  0.00  0.00    +0.017 A 
ATOM     17  C   UNL     1      -8.488  -0.545   1.514  0.00  0.00    +0.013 A 
ATOM     18  C   UNL     1      -7.269   0.043   1.330  0.00  0.00    +0.024 A 
ATOM     19  C   UNL     1      -7.157   1.188   0.545  0.00  0.00    +0.034 A 
ATOM     20  C   UNL     1      -8.287   1.741  -0.052  0.00  0.00    +0.024 A 
ATOM     21  C   UNL     1      -9.509   1.157   0.122  0.00  0.00    +0.013 A 
BRANCH  16  23
ATOM     22  C   UNL     1     -12.142  -0.102   0.361  0.00  0.00    +0.091 C 
ATOM     23  C   UNL     1     -10.939  -0.623   1.105  0.00  0.00    +0.160 C 
ATOM     24  O   UNL     1     -11.056  -1.562   1.863  0.00  0.00    -0.292 OA
ENDBRANCH  16  23
ENDBRANCH  12  19
ENDBRANCH   1  13
BRANCH   1  25
ATOM     25  N   UNL     1      -3.368   3.044   0.234  0.00  0.00    -0.275 N 
ATOM     26  C   UNL     1      -3.854   3.749   1.275  0.00  0.00    +0.284 C 
ATOM     27  O   UNL     1      -4.463   3.180   2.163  0.00  0.00    -0.266 OA
ATOM     28  H   UNL     1      -2.884   3.566  -0.605  0.00  0.00    +0.155 HD
BRANCH  26  29
ATOM     29  C   UNL     1      -3.648   5.198   1.339  0.00  0.00    +0.191 A 
ATOM     30  C   UNL     1      -4.005   6.014   2.375  0.00  0.00    +0.056 A 
ATOM     31  C   UNL     1      -3.620   7.314   2.016  0.00  0.00    +0.058 A 
ATOM     32  C   UNL     1      -3.059   7.238   0.787  0.00  0.00    +0.171 A 
ATOM     33  O   UNL     1      -3.078   5.961   0.383  0.00  0.00    -0.444 OA
ATOM     34 BR   UNL     1      -2.362   8.694  -0.198  0.00  0.00    -0.008 Br
ENDBRANCH  26  29
ENDBRANCH   1  25
TORSDOF 7
