REMARK  Name = ZINC35191020
REMARK  18 active torsions:
REMARK  status: ('A' for Active; 'I' for Inactive)
REMARK    1  A    between atoms: C_1  and  C_2
REMARK    2  A    between atoms: C_2  and  C_3
REMARK    3  A    between atoms: C_3  and  C_4
REMARK    4  A    between atoms: C_4  and  O_5
REMARK    5  A    between atoms: O_5  and  C_6
REMARK    6  A    between atoms: C_9  and  C_12
REMARK    7  A    between atoms: C_12  and  O_14
REMARK    8  A    between atoms: O_14  and  C_15
REMARK    9  A    between atoms: C_20  and  C_21
REMARK   10  A    between atoms: C_22  and  N_30
REMARK   11  A    between atoms: N_30  and  C_31
REMARK   12  A    between atoms: C_31  and  C_32
REMARK   13  A    between atoms: C_31  and  C_33
REMARK   14  A    between atoms: C_31  and  C_34
REMARK   15  A    between atoms: C_34  and  C_35
REMARK   16  A    between atoms: C_35  and  C_36
REMARK   17  A    between atoms: C_35  and  C_37
REMARK   18  A    between atoms: C_35  and  C_38
REMARK                            x       y       z     vdW  Elec       q    Type
REMARK                         _______ _______ _______ _____ _____    ______ ____
ROOT
ATOM      1  C   UNL     1      -8.111 -10.596  -0.519  0.00  0.00    +0.141 A 
ATOM      2  C   UNL     1      -7.452 -11.203   0.537  0.00  0.00    +0.047 A 
ATOM      3  C   UNL     1      -7.180 -12.558   0.497  0.00  0.00    +0.004 A 
ATOM      4  C   UNL     1      -7.566 -13.316  -0.595  0.00  0.00    +0.001 A 
ATOM      5  C   UNL     1      -8.224 -12.725  -1.653  0.00  0.00    +0.014 A 
ATOM      6  C   UNL     1      -8.507 -11.360  -1.622  0.00  0.00    +0.044 A 
ENDROOT
BRANCH   6   7
ATOM      7  C   UNL     1      -9.218 -10.721  -2.753  0.00  0.00    +0.090 A 
ATOM      8  C   UNL     1      -8.697  -9.769  -3.604  0.00  0.00    +0.129 A 
ATOM      9  N   UNL     1      -9.684  -9.454  -4.497  0.00  0.00    -0.289 N 
ATOM     10  C   UNL     1      -9.728  -8.583  -5.553  0.00  0.00    +0.094 A 
ATOM     11  C   UNL     1     -10.848  -8.458  -6.293  0.00  0.00    +0.018 A 
ATOM     12  C   UNL     1     -11.989  -9.223  -5.990  0.00  0.00    +0.005 A 
ATOM     13  C   UNL     1     -11.961 -10.093  -4.946  0.00  0.00    +0.045 A 
ATOM     14  C   UNL     1     -10.784 -10.216  -4.178  0.00  0.00    +0.117 A 
ATOM     15  N   UNL     1     -10.484 -10.972  -3.134  0.00  0.00    -0.338 N 
ATOM     16  H   UNL     1     -11.083 -11.606  -2.709  0.00  0.00    +0.167 HD
BRANCH   8  17
ATOM     17  N   UNL     1      -7.411  -9.230  -3.562  0.00  0.00    -0.323 N 
ATOM     18  H   UNL     1      -6.893  -9.274  -2.742  0.00  0.00    +0.148 HD
BRANCH  17  19
ATOM     19  C   UNL     1      -6.841  -8.598  -4.754  0.00  0.00    +0.028 C 
ATOM     20  C   UNL     1      -7.250  -9.393  -5.997  0.00  0.00    +0.031 C 
ATOM     21  C   UNL     1      -7.364  -7.165  -4.871  0.00  0.00    +0.031 C 
BRANCH  19  22
ATOM     22  C   UNL     1      -5.316  -8.578  -4.641  0.00  0.00    +0.031 C 
BRANCH  22  23
ATOM     23  C   UNL     1      -4.913  -8.025  -3.273  0.00  0.00    -0.036 C 
ATOM     24  C   UNL     1      -5.285  -9.035  -2.185  0.00  0.00    +0.010 C 
ATOM     25  C   UNL     1      -3.403  -7.779  -3.246  0.00  0.00    +0.010 C 
ATOM     26  C   UNL     1      -5.648  -6.707  -3.018  0.00  0.00    +0.010 C 
ENDBRANCH  22  23
ENDBRANCH  19  22
ENDBRANCH  17  19
ENDBRANCH   8  17
ENDBRANCH   6   7
BRANCH   1  27
ATOM     27  O   UNL     1      -8.378  -9.264  -0.481  0.00  0.00    -0.422 OA
BRANCH  27  28
ATOM     28  C   UNL     1      -9.621  -8.878  -0.129  0.00  0.00    +0.344 C 
ATOM     29  O   UNL     1     -10.545  -9.663  -0.205  0.00  0.00    -0.245 OA
BRANCH  28  33
ATOM     30  C   UNL     1     -10.303  -4.920   1.245  0.00  0.00    +0.121 A 
ATOM     31  C   UNL     1     -11.363  -5.816   1.158  0.00  0.00    +0.046 A 
ATOM     32  C   UNL     1     -11.146  -7.100   0.713  0.00  0.00    +0.018 A 
ATOM     33  C   UNL     1      -9.858  -7.503   0.348  0.00  0.00    +0.060 A 
ATOM     34  C   UNL     1      -8.795  -6.599   0.437  0.00  0.00    +0.018 A 
ATOM     35  C   UNL     1      -9.022  -5.314   0.878  0.00  0.00    +0.046 A 
BRANCH  30  36
ATOM     36  O   UNL     1     -10.522  -3.654   1.684  0.00  0.00    -0.492 OA
BRANCH  36  37
ATOM     37  C   UNL     1     -11.862  -3.315   2.045  0.00  0.00    +0.229 C 
BRANCH  37  38
ATOM     38  C   UNL     1     -11.912  -1.859   2.513  0.00  0.00    +0.041 C 
BRANCH  38  40
ATOM     39  C   UNL     1     -13.396  -0.040   3.366  0.00  0.00    +0.004 C 
ATOM     40  C   UNL     1     -13.347  -1.496   2.899  0.00  0.00    -0.000 C 
ENDBRANCH  38  40
ENDBRANCH  37  38
ENDBRANCH  36  37
ENDBRANCH  30  36
ENDBRANCH  28  33
ENDBRANCH  27  28
ENDBRANCH   1  27
TORSDOF 12
