REMARK  Name = ZINC17964151
REMARK  7 active torsions:
REMARK  status: ('A' for Active; 'I' for Inactive)
REMARK    1  A    between atoms: C_1  and  C_2
REMARK    2  A    between atoms: C_2  and  N_3
REMARK    3  A    between atoms: C_9  and  C_15
REMARK    4  A    between atoms: N_17  and  C_18
REMARK    5  A    between atoms: C_18  and  C_20
REMARK    6  A    between atoms: C_18  and  C_21
REMARK    7  A    between atoms: C_26  and  C_27
REMARK                            x       y       z     vdW  Elec       q    Type
REMARK                         _______ _______ _______ _____ _____    ______ ____
ROOT
ATOM      1  N   UNL     1       0.353   2.453  -3.058  0.00  0.00    -0.287 N 
ATOM      2  C   UNL     1       0.055   1.158  -3.298  0.00  0.00    +0.262 A 
ATOM      3  O   UNL     1      -0.793   0.486  -2.499  0.00  0.00    -0.267 OA
ATOM      4  C   UNL     1       0.656   0.528  -4.409  0.00  0.00    +0.065 A 
ATOM      5  C   UNL     1       0.395  -0.813  -4.722  0.00  0.00    +0.016 A 
ATOM      6  C   UNL     1       0.993  -1.386  -5.803  0.00  0.00    +0.014 A 
ATOM      7  C   UNL     1       1.872  -0.650  -6.612  0.00  0.00    +0.039 A 
ATOM      8  C   UNL     1       2.149   0.677  -6.327  0.00  0.00    +0.041 A 
ATOM      9  C   UNL     1       1.543   1.285  -5.218  0.00  0.00    +0.080 A 
ATOM     10  N   UNL     1       1.781   2.567  -4.905  0.00  0.00    -0.222 NA
ATOM     11  C   UNL     1       1.196   3.128  -3.858  0.00  0.00    +0.183 A 
ATOM     12  S   UNL     1       1.530   4.770  -3.507  0.00  0.00    -0.011 S 
ENDROOT
BRANCH   7  13
ATOM     13  C   UNL     1       2.510  -1.298  -7.781  0.00  0.00    +0.245 C 
ATOM     14  O   UNL     1       3.272  -0.665  -8.486  0.00  0.00    -0.270 OA
ATOM     15  N   UNL     1       2.245  -2.588  -8.064  0.00  0.00    -0.305 N 
ATOM     16  H   UNL     1       1.637  -3.093  -7.502  0.00  0.00    +0.150 HD
BRANCH  15  17
ATOM     17  C   UNL     1       2.876  -3.229  -9.220  0.00  0.00    +0.101 C 
ATOM     18  C   UNL     1       2.952  -4.740  -8.988  0.00  0.00    +0.033 C 
BRANCH  17  19
ATOM     19  C   UNL     1       2.060  -2.951 -10.456  0.00  0.00    -0.025 A 
ATOM     20  C   UNL     1       0.720  -2.630 -10.342  0.00  0.00    +0.006 A 
ATOM     21  C   UNL     1      -0.029  -2.375 -11.475  0.00  0.00    +0.000 A 
ATOM     22  C   UNL     1       0.563  -2.441 -12.724  0.00  0.00    +0.000 A 
ATOM     23  C   UNL     1       1.902  -2.761 -12.838  0.00  0.00    +0.004 A 
ATOM     24  C   UNL     1       2.652  -3.012 -11.704  0.00  0.00    -0.046 A 
ATOM     25  C   UNL     1       4.114  -3.356 -11.828  0.00  0.00    +0.044 C 
ENDBRANCH  17  19
ENDBRANCH  15  17
ENDBRANCH   7  13
BRANCH   1  27
ATOM     26  C   UNL     1      -1.577   3.774  -2.341  0.00  0.00    +0.027 C 
ATOM     27  C   UNL     1      -0.255   3.134  -1.912  0.00  0.00    +0.124 C 
ENDBRANCH   1  27
TORSDOF 4
