REMARK  Name = ZINC20111704
REMARK  8 active torsions:
REMARK  status: ('A' for Active; 'I' for Inactive)
REMARK    1  A    between atoms: C_1  and  N_2
REMARK    2  A    between atoms: C_9  and  O_26
REMARK    3  A    between atoms: C_11  and  C_13
REMARK    4  A    between atoms: C_14  and  C_15
REMARK    5  A    between atoms: C_15  and  O_16
REMARK    6  A    between atoms: O_16  and  C_17
REMARK    7  A    between atoms: C_22  and  C_23
REMARK    8  A    between atoms: O_26  and  C_27
REMARK                            x       y       z     vdW  Elec       q    Type
REMARK                         _______ _______ _______ _____ _____    ______ ____
ROOT
ATOM      1  C   UNL     1      -4.479   5.489  -1.095  0.00  0.00    +0.106 C 
ATOM      2  N   UNL     1      -5.646   4.597  -1.132  0.00  0.00    -0.288 NA
ATOM      3  C   UNL     1      -6.895   5.367  -1.237  0.00  0.00    +0.090 C 
ATOM      4  C   UNL     1      -8.021   4.413  -1.638  0.00  0.00    +0.051 C 
ATOM      5  C   UNL     1      -8.024   3.210  -0.730  0.00  0.00    -0.033 A 
ATOM      6  C   UNL     1      -9.159   2.414  -0.694  0.00  0.00    +0.053 A 
ATOM      7  C   UNL     1      -9.207   1.294   0.119  0.00  0.00    +0.170 A 
ATOM      8  C   UNL     1      -8.107   0.966   0.906  0.00  0.00    +0.208 A 
ATOM      9  C   UNL     1      -6.974   1.766   0.869  0.00  0.00    +0.171 A 
ATOM     10  C   UNL     1      -6.933   2.891   0.051  0.00  0.00    +0.030 A 
ATOM     11  C   UNL     1      -5.682   3.729   0.049  0.00  0.00    +0.167 C 
ATOM     12  O   UNL     1      -8.397  -0.168   1.610  0.00  0.00    -0.449 OA
ATOM     13  C   UNL     1      -9.829  -0.299   1.555  0.00  0.00    +0.467 C 
ATOM     14  O   UNL     1     -10.186   0.367   0.329  0.00  0.00    -0.452 OA
ENDROOT
BRANCH  11  15
ATOM     15  C   UNL     1      -4.505   2.845   0.039  0.00  0.00    -0.075 C 
ATOM     16  C   UNL     1      -3.566   2.141   0.031  0.00  0.00    -0.060 C 
BRANCH  16  17
ATOM     17  C   UNL     1      -2.389   1.257   0.020  0.00  0.00    +0.317 C 
BRANCH  17  18
ATOM     18  O   UNL     1      -1.199   2.048   0.019  0.00  0.00    -0.479 OA
BRANCH  18  19
ATOM     19  C   UNL     1      -0.017   1.383   0.010  0.00  0.00    +0.134 A 
ATOM     20  C   UNL     1       0.002  -0.004   0.002  0.00  0.00    +0.046 A 
ATOM     21  C   UNL     1       1.206  -0.680  -0.014  0.00  0.00    +0.004 A 
ATOM     22  C   UNL     1       2.402   0.019  -0.022  0.00  0.00    +0.001 A 
ATOM     23  C   UNL     1       2.402   1.397  -0.014  0.00  0.00    +0.017 A 
ATOM     24  C   UNL     1       1.191   2.094   0.002  0.00  0.00    +0.078 A 
BRANCH  24  25
ATOM     25  C   UNL     1       1.184   3.569   0.009  0.00  0.00    +0.245 C 
ATOM     26  O   UNL     1       0.128   4.172   0.022  0.00  0.00    -0.270 OA
ATOM     27  N   UNL     1       2.347   4.249   0.002  0.00  0.00    -0.325 N 
ATOM     28  H   UNL     1       2.342   5.349   0.008  0.00  0.00    +0.145 HD
ATOM     29  H   UNL     1       3.303   3.704  -0.010  0.00  0.00    +0.145 HD
ENDBRANCH  24  25
ENDBRANCH  18  19
ENDBRANCH  17  18
ENDBRANCH  16  17
ENDBRANCH  11  15
BRANCH   9  30
ATOM     30  O   UNL     1      -5.897   1.448   1.637  0.00  0.00    -0.491 OA
ATOM     31  C   UNL     1      -5.852   2.004   2.952  0.00  0.00    +0.277 C 
ENDBRANCH   9  30
TORSDOF 6
