REMARK  Name = ZINC36595968
REMARK  14 active torsions:
REMARK  status: ('A' for Active; 'I' for Inactive)
REMARK    1  A    between atoms: C_1  and  C_2
REMARK    2  A    between atoms: C_5  and  C_7
REMARK    3  A    between atoms: C_7  and  N_8
REMARK    4  A    between atoms: N_8  and  C_9
REMARK    5  A    between atoms: C_9  and  C_11
REMARK    6  A    between atoms: C_9  and  C_20
REMARK    7  A    between atoms: C_14  and  O_19
REMARK    8  A    between atoms: C_15  and  O_17
REMARK    9  A    between atoms: O_17  and  C_18
REMARK   10  A    between atoms: N_22  and  C_23
REMARK   11  A    between atoms: C_23  and  C_24
REMARK   12  A    between atoms: C_23  and  C_25
REMARK   13  A    between atoms: C_23  and  C_26
REMARK   14  A    between atoms: C_27  and  C_29
REMARK                            x       y       z     vdW  Elec       q    Type
REMARK                         _______ _______ _______ _____ _____    ______ ____
ROOT
ATOM      1  C   UNL     1       3.062  -2.986  -2.234  0.00  0.00    +0.193 C 
ENDROOT
BRANCH   1   2
ATOM      2  C   UNL     1       2.351  -2.260  -3.347  0.00  0.00    -0.015 A 
ATOM      3  C   UNL     1       1.951  -0.949  -3.171  0.00  0.00    +0.010 A 
ATOM      4  C   UNL     1       1.299  -0.279  -4.189  0.00  0.00    +0.049 A 
ATOM      5  C   UNL     1       1.045  -0.921  -5.390  0.00  0.00    +0.158 A 
ATOM      6  C   UNL     1       1.448  -2.241  -5.568  0.00  0.00    +0.162 A 
ATOM      7  C   UNL     1       2.106  -2.906  -4.545  0.00  0.00    +0.055 A 
BRANCH   6   8
ATOM      8  O   UNL     1       1.201  -2.877  -6.745  0.00  0.00    -0.491 OA
ATOM      9  C   UNL     1       1.643  -4.231  -6.856  0.00  0.00    +0.277 C 
ENDBRANCH   6   8
BRANCH   5  10
ATOM     10  O   UNL     1       0.403  -0.264  -6.392  0.00  0.00    -0.503 OA
ATOM     11  H   UNL     1       0.994   0.206  -6.996  0.00  0.00    +0.292 HD
ENDBRANCH   5  10
ENDBRANCH   1   2
BRANCH   1  12
ATOM     12  C   UNL     1       3.917  -4.083  -2.815  0.00  0.00    +0.239 C 
ATOM     13  O   UNL     1       3.721  -5.237  -2.498  0.00  0.00    -0.273 OA
ATOM     14  N   UNL     1       4.900  -3.781  -3.686  0.00  0.00    -0.309 N 
ATOM     15  H   UNL     1       5.057  -2.858  -3.940  0.00  0.00    +0.149 HD
BRANCH  14  16
ATOM     16  C   UNL     1       5.731  -4.848  -4.251  0.00  0.00    +0.026 C 
ATOM     17  C   UNL     1       4.846  -5.832  -5.018  0.00  0.00    +0.031 C 
ATOM     18  C   UNL     1       6.762  -4.240  -5.204  0.00  0.00    +0.031 C 
ATOM     19  C   UNL     1       6.452  -5.584  -3.121  0.00  0.00    +0.031 C 
ENDBRANCH  14  16
ENDBRANCH   1  12
BRANCH   1  20
ATOM     20  N   UNL     1       2.075  -3.568  -1.322  0.00  0.00    -0.272 N 
ATOM     21  C   UNL     1       1.143  -4.420  -1.792  0.00  0.00    +0.283 C 
ATOM     22  O   UNL     1       1.178  -4.779  -2.954  0.00  0.00    -0.267 OA
BRANCH  21  23
ATOM     23  C   UNL     1       0.087  -4.916  -0.903  0.00  0.00    +0.189 A 
ATOM     24  C   UNL     1      -0.848  -5.861  -1.216  0.00  0.00    +0.054 A 
ATOM     25  C   UNL     1      -1.651  -6.027  -0.077  0.00  0.00    +0.042 A 
ATOM     26  C   UNL     1      -1.178  -5.186   0.869  0.00  0.00    +0.196 A 
ATOM     27  O   UNL     1      -0.128  -4.522   0.369  0.00  0.00    -0.458 OA
ENDBRANCH  21  23
BRANCH  20  28
ATOM     28  C   UNL     1       2.100  -3.223   0.102  0.00  0.00    +0.183 C 
BRANCH  28  33
ATOM     29  C   UNL     1       1.133   1.706   0.563  0.00  0.00    +0.086 C 
ATOM     30  C   UNL     1       0.935   0.213   0.520  0.00  0.00    +0.102 A 
ATOM     31  C   UNL     1      -0.229  -0.432   0.713  0.00  0.00    +0.045 A 
ATOM     32  C   UNL     1       0.042  -1.814   0.584  0.00  0.00    +0.046 A 
ATOM     33  C   UNL     1       1.356  -1.930   0.319  0.00  0.00    +0.122 A 
ATOM     34  O   UNL     1       1.891  -0.699   0.276  0.00  0.00    -0.463 OA
ENDBRANCH  28  33
ENDBRANCH  20  28
ENDBRANCH   1  20
TORSDOF 9
