REMARK  Name = ZINC22999813
REMARK  10 active torsions:
REMARK  status: ('A' for Active; 'I' for Inactive)
REMARK    1  A    between atoms: C_1  and  C_2
REMARK    2  A    between atoms: C_2  and  C_3
REMARK    3  A    between atoms: C_2  and  C_4
REMARK    4  A    between atoms: C_7  and  S_10
REMARK    5  A    between atoms: S_10  and  N_13
REMARK    6  A    between atoms: N_13  and  C_14
REMARK    7  A    between atoms: C_14  and  C_15
REMARK    8  A    between atoms: N_18  and  C_21
REMARK    9  A    between atoms: C_21  and  C_22
REMARK   10  A    between atoms: C_21  and  C_23
REMARK                            x       y       z     vdW  Elec       q    Type
REMARK                         _______ _______ _______ _____ _____    ______ ____
ROOT
ATOM      1  N   UNL     1       1.224  -2.922  -1.607  0.00  0.00    -0.190 NA
ATOM      2  H   UNL     1       0.298  -3.330  -2.039  0.00  0.00    +0.148 HD
ENDROOT
BRANCH   1   3
ATOM      3  S   UNL     1       1.232  -2.441  -0.022  0.00  0.00    +0.058 S 
ATOM      4  O   UNL     1       2.488  -2.833   0.514  0.00  0.00    -0.153 OA
ATOM      5  O   UNL     1      -0.002  -2.866   0.538  0.00  0.00    -0.153 OA
BRANCH   3   9
ATOM      6  C   UNL     1       1.171   2.086   0.002  0.00  0.00    -0.045 A 
ATOM      7  C   UNL     1      -0.017   1.378   0.010  0.00  0.00    +0.006 A 
ATOM      8  C   UNL     1       0.002  -0.004   0.002  0.00  0.00    +0.029 A 
ATOM      9  C   UNL     1       1.208  -0.679  -0.013  0.00  0.00    +0.105 A 
ATOM     10  C   UNL     1       2.396   0.029  -0.022  0.00  0.00    +0.029 A 
ATOM     11  C   UNL     1       2.377   1.411  -0.015  0.00  0.00    +0.006 A 
BRANCH   6  13
ATOM     12  C   UNL     1       1.876   4.106   1.255  0.00  0.00    +0.012 C 
ATOM     13  C   UNL     1       1.151   3.592   0.010  0.00  0.00    +0.013 C 
ATOM     14  C   UNL     1       1.853   4.119  -1.243  0.00  0.00    +0.012 C 
ENDBRANCH   6  13
ENDBRANCH   3   9
ENDBRANCH   1   3
BRANCH   1  15
ATOM     15  C   UNL     1       2.361  -2.607  -2.474  0.00  0.00    +0.109 C 
BRANCH  15  16
ATOM     16  C   UNL     1       2.287  -3.460  -3.743  0.00  0.00    +0.001 C 
ATOM     17  C   UNL     1       2.463  -4.936  -3.377  0.00  0.00    -0.014 C 
ATOM     18  C   UNL     1       2.449  -5.778  -4.655  0.00  0.00    -0.078 C 
ATOM     19  N   UNL     1       3.535  -5.342  -5.542  0.00  0.00    +0.381 N 
ATOM     20  C   UNL     1       3.361  -3.940  -5.944  0.00  0.00    -0.078 C 
ATOM     21  C   UNL     1       3.402  -3.043  -4.705  0.00  0.00    -0.014 C 
ATOM     22  H   UNL     1       4.477  -5.415  -4.979  0.00  0.00    -0.081 HD
BRANCH  19  23
ATOM     23  C   UNL     1       3.639  -6.218  -6.717  0.00  0.00    -0.075 C 
ATOM     24  C   UNL     1       3.819  -7.666  -6.258  0.00  0.00    -0.014 C 
ATOM     25  C   UNL     1       2.364  -6.102  -7.554  0.00  0.00    -0.014 C 
ENDBRANCH  19  23
ENDBRANCH  15  16
ENDBRANCH   1  15
TORSDOF 6
