REMARK  Name = ZINC55690429
REMARK  9 active torsions:
REMARK  status: ('A' for Active; 'I' for Inactive)
REMARK    1  A    between atoms: C_1  and  C_2
REMARK    2  A    between atoms: C_2  and  C_3
REMARK    3  A    between atoms: C_2  and  C_4
REMARK    4  A    between atoms: C_4  and  C_6
REMARK    5  A    between atoms: C_6  and  C_26
REMARK    6  A    between atoms: N_8  and  C_23
REMARK    7  A    between atoms: C_12  and  C_13
REMARK    8  A    between atoms: C_18  and  N_19
REMARK    9  A    between atoms: C_23  and  C_24
REMARK                            x       y       z     vdW  Elec       q    Type
REMARK                         _______ _______ _______ _____ _____    ______ ____
ROOT
ATOM      1  C   UNL     1      -2.027  -1.702  -0.120  0.00  0.00    +0.125 C 
ATOM      2  C   UNL     1      -3.281  -2.331  -0.082  0.00  0.00    +0.105 A 
ATOM      3  N   UNL     1      -4.440  -1.839   0.441  0.00  0.00    -0.297 N 
ATOM      4  C   UNL     1      -5.555  -2.554   0.405  0.00  0.00    +0.266 A 
ATOM      5  O   UNL     1      -6.611  -2.155   0.859  0.00  0.00    -0.266 OA
ATOM      6  C   UNL     1      -5.407  -3.878  -0.234  0.00  0.00    +0.079 A 
ATOM      7  C   UNL     1      -6.334  -4.848  -0.436  0.00  0.00    +0.030 C 
ATOM      8  S   UNL     1      -3.678  -3.851  -0.677  0.00  0.00    -0.065 S 
ENDROOT
BRANCH   7   9
ATOM      9  C   UNL     1      -5.964  -6.084  -1.140  0.00  0.00    +0.006 A 
ATOM     10  C   UNL     1      -4.671  -6.606  -1.013  0.00  0.00    +0.010 A 
ATOM     11  C   UNL     1      -4.332  -7.765  -1.676  0.00  0.00    +0.001 A 
ATOM     12  C   UNL     1      -5.266  -8.413  -2.467  0.00  0.00    +0.002 A 
ATOM     13  C   UNL     1      -6.546  -7.904  -2.598  0.00  0.00    +0.033 A 
ATOM     14  C   UNL     1      -6.903  -6.749  -1.936  0.00  0.00    +0.133 A 
BRANCH  14  15
ATOM     15  N   UNL     1      -8.275  -6.209  -2.072  0.00  0.00    +0.057 N 
ATOM     16  O   UNL     1      -9.121  -6.848  -2.654  0.00  0.00    -0.126 OA
ATOM     17  O   UNL     1      -8.550  -5.130  -1.601  0.00  0.00    -0.126 OA
ENDBRANCH  14  15
ENDBRANCH   7   9
BRANCH   1  18
ATOM     18  C   UNL     1      -1.872  -0.411   0.420  0.00  0.00    +0.178 C 
ATOM     19  O   UNL     1      -2.411   0.539  -0.111  0.00  0.00    -0.291 OA
BRANCH  18  21
ATOM     20  C   UNL     1      -0.511   1.228   1.689  0.00  0.00    +0.015 C 
ATOM     21  C   UNL     1      -1.036  -0.209   1.658  0.00  0.00    +0.055 C 
ATOM     22  C   UNL     1      -1.892  -0.466   2.900  0.00  0.00    +0.015 C 
ENDBRANCH  18  21
ENDBRANCH   1  18
BRANCH   1  23
ATOM     23  C   UNL     1      -0.907  -2.372  -0.708  0.00  0.00    +0.105 C 
ATOM     24  N   UNL     1      -0.018  -2.903  -1.175  0.00  0.00    -0.191 NA
ENDBRANCH   1  23
BRANCH   3  25
ATOM     25  C   UNL     1      -4.452  -0.506   1.050  0.00  0.00    +0.152 C 
BRANCH  25  26
ATOM     26  C   UNL     1      -4.865   0.513   0.019  0.00  0.00    -0.013 C 
ATOM     27  C   UNL     1      -5.877   1.310   0.255  0.00  0.00    +0.005 C 
ENDBRANCH  25  26
ENDBRANCH   3  25
TORSDOF 7
