REMARK  Name = ZINC39461340
REMARK  9 active torsions:
REMARK  status: ('A' for Active; 'I' for Inactive)
REMARK    1  A    between atoms: C_1  and  C_2
REMARK    2  A    between atoms: C_2  and  N_3
REMARK    3  A    between atoms: N_3  and  C_4
REMARK    4  A    between atoms: N_3  and  C_6
REMARK    5  A    between atoms: C_4  and  C_5
REMARK    6  A    between atoms: C_6  and  C_7
REMARK    7  A    between atoms: C_15  and  C_19
REMARK    8  A    between atoms: C_19  and  C_20
REMARK    9  A    between atoms: C_19  and  C_26
REMARK                            x       y       z     vdW  Elec       q    Type
REMARK                         _______ _______ _______ _____ _____    ______ ____
ROOT
ATOM      1  C   UNL     1      -4.163  -2.213   2.059  0.00  0.00    +0.199 C 
ATOM      2  O   UNL     1      -4.960  -1.434   1.582  0.00  0.00    -0.278 OA
ATOM      3  N   UNL     1      -4.436  -3.533   2.073  0.00  0.00    -0.302 N 
ATOM      4  C   UNL     1      -3.467  -4.464   2.658  0.00  0.00    +0.113 C 
ATOM      5  C   UNL     1      -4.143  -5.278   3.778  0.00  0.00    +0.072 C 
ATOM      6  C   UNL     1      -5.477  -5.723   3.235  0.00  0.00    +0.053 C 
ATOM      7  N   UNL     1      -6.019  -6.874   3.158  0.00  0.00    -0.158 NA
ATOM      8  N   UNL     1      -7.223  -6.842   2.454  0.00  0.00    -0.157 NA
ATOM      9  C   UNL     1      -7.545  -5.645   2.078  0.00  0.00    +0.063 C 
ATOM     10  C   UNL     1      -6.466  -4.740   2.615  0.00  0.00    +0.100 C 
ATOM     11  C   UNL     1      -5.705  -4.017   1.506  0.00  0.00    +0.123 C 
ENDROOT
BRANCH   1  12
ATOM     12  C   UNL     1      -2.867  -1.705   2.636  0.00  0.00    +0.019 C 
BRANCH  12  13
ATOM     13  N   UNL     1      -2.879  -0.236   2.651  0.00  0.00    +0.385 N 
ATOM     14  H   UNL     1      -3.096   0.107   1.728  0.00  0.00    -0.081 HD
BRANCH  13  16
ATOM     15  C   UNL     1      -3.996   1.760   3.525  0.00  0.00    -0.017 C 
ATOM     16  C   UNL     1      -3.896   0.235   3.601  0.00  0.00    -0.082 C 
ENDBRANCH  13  16
BRANCH  13  17
ATOM     17  C   UNL     1      -1.558   0.261   3.060  0.00  0.00    -0.082 C 
ATOM     18  C   UNL     1      -0.524  -0.103   1.994  0.00  0.00    -0.017 C 
ENDBRANCH  13  17
ENDBRANCH  12  13
ENDBRANCH   1  12
BRANCH   9  19
ATOM     19  C   UNL     1      -8.749  -5.239   1.268  0.00  0.00    +0.096 C 
BRANCH  19  20
ATOM     20  C   UNL     1      -9.501  -6.471   0.835  0.00  0.00    -0.034 A 
ATOM     21  C   UNL     1      -9.755  -6.691  -0.506  0.00  0.00    +0.004 A 
ATOM     22  C   UNL     1     -10.445  -7.821  -0.903  0.00  0.00    +0.000 A 
ATOM     23  C   UNL     1     -10.880  -8.732   0.041  0.00  0.00    +0.000 A 
ATOM     24  C   UNL     1     -10.625  -8.514   1.382  0.00  0.00    +0.000 A 
ATOM     25  C   UNL     1      -9.932  -7.386   1.778  0.00  0.00    +0.004 A 
ENDBRANCH  19  20
BRANCH  19  26
ATOM     26  C   UNL     1      -9.650  -4.370   2.108  0.00  0.00    -0.034 A 
ATOM     27  C   UNL     1     -10.041  -4.792   3.365  0.00  0.00    +0.004 A 
ATOM     28  C   UNL     1     -10.867  -3.995   4.135  0.00  0.00    +0.000 A 
ATOM     29  C   UNL     1     -11.301  -2.776   3.648  0.00  0.00    +0.000 A 
ATOM     30  C   UNL     1     -10.909  -2.354   2.392  0.00  0.00    +0.000 A 
ATOM     31  C   UNL     1     -10.080  -3.149   1.623  0.00  0.00    +0.004 A 
ENDBRANCH  19  26
ENDBRANCH   9  19
TORSDOF 7
