REMARK  Name = ZINC05003944
REMARK  4 active torsions:
REMARK  status: ('A' for Active; 'I' for Inactive)
REMARK    1  A    between atoms: C_1  and  C_2
REMARK    2  A    between atoms: C_2  and  C_8
REMARK    3  A    between atoms: N_3  and  N_4
REMARK    4  A    between atoms: C_13  and  O_19
REMARK                            x       y       z     vdW  Elec       q    Type
REMARK                         _______ _______ _______ _____ _____    ______ ____
ROOT
ATOM      1  C   UNL     1       1.246   2.256   0.002  0.00  0.00    +0.082 A 
ATOM      2  C   UNL     1       2.460   1.593  -0.007  0.00  0.00    +0.028 A 
ATOM      3  C   UNL     1       3.654   2.357  -0.020  0.00  0.00    +0.018 A 
ATOM      4  C   UNL     1       4.901   1.714  -0.035  0.00  0.00    +0.015 A 
ATOM      5  C   UNL     1       6.048   2.452  -0.042  0.00  0.00    +0.046 A 
ATOM      6  C   UNL     1       5.990   3.845  -0.035  0.00  0.00    +0.120 A 
ATOM      7  C   UNL     1       4.768   4.497  -0.020  0.00  0.00    +0.092 A 
ATOM      8  C   UNL     1       3.590   3.763  -0.013  0.00  0.00    +0.143 A 
ATOM      9  O   UNL     1       2.400   4.402   0.002  0.00  0.00    -0.422 OA
ATOM     10  C   UNL     1       1.241   3.723   0.010  0.00  0.00    +0.346 A 
ATOM     11  O   UNL     1       0.184   4.327   0.024  0.00  0.00    -0.244 OA
ENDROOT
BRANCH   1  13
ATOM     12  C   UNL     1       0.002  -0.004   0.002  0.00  0.00    +0.068 C 
ATOM     13  C   UNL     1      -0.018   1.503   0.010  0.00  0.00    +0.070 C 
ATOM     14  N   UNL     1      -1.152   2.137   0.019  0.00  0.00    -0.183 NA
BRANCH  14  15
ATOM     15  N   UNL     1      -2.356   1.420   0.021  0.00  0.00    -0.191 N 
ATOM     16  C   UNL     1      -3.532   2.078   0.030  0.00  0.00    +0.317 C 
ATOM     17  O   UNL     1      -4.577   1.456   0.032  0.00  0.00    -0.251 OA
ATOM     18  N   UNL     1      -3.550   3.425   0.037  0.00  0.00    -0.312 N 
ATOM     19  H   UNL     1      -2.342   0.450   0.016  0.00  0.00    +0.179 HD
ATOM     20  H   UNL     1      -2.717   3.922   0.036  0.00  0.00    +0.147 HD
ATOM     21  H   UNL     1      -4.397   3.899   0.044  0.00  0.00    +0.147 HD
ENDBRANCH  14  15
ENDBRANCH   1  13
BRANCH   6  22
ATOM     22  O   UNL     1       7.139   4.567  -0.042  0.00  0.00    -0.507 OA
ATOM     23  H   UNL     1       7.480   4.772   0.839  0.00  0.00    +0.292 HD
ENDBRANCH   6  22
TORSDOF 3
