REMARK  Name = ZINC06399221
REMARK  2 active torsions:
REMARK  status: ('A' for Active; 'I' for Inactive)
REMARK    1  A    between atoms: C_4  and  C_7
REMARK    2  A    between atoms: C_9  and  C_24
REMARK                            x       y       z     vdW  Elec       q    Type
REMARK                         _______ _______ _______ _____ _____    ______ ____
ROOT
ATOM      1  C   UNL     1      -0.113   3.585  -2.008  0.00  0.00    +0.047 C 
ATOM      2  C   UNL     1       1.160   3.763  -1.582  0.00  0.00    +0.039 C 
ATOM      3  C   UNL     1       1.446   3.007  -0.303  0.00  0.00    +0.142 C 
ATOM      4  N   UNL     1       2.806   3.132   0.249  0.00  0.00    -0.288 N 
ATOM      5  C   UNL     1       3.709   3.894  -0.392  0.00  0.00    +0.306 C 
ATOM      6  O   UNL     1       4.826   3.983   0.081  0.00  0.00    -0.252 OA
ATOM      7  N   UNL     1       3.446   4.558  -1.523  0.00  0.00    -0.254 N 
ATOM      8  C   UNL     1       2.213   4.528  -2.148  0.00  0.00    +0.134 C 
ATOM      9  N   UNL     1       2.204   5.260  -3.242  0.00  0.00    -0.230 NA
ATOM     10  C   UNL     1       1.179   5.482  -4.127  0.00  0.00    +0.087 A 
ATOM     11  C   UNL     1       1.571   6.322  -5.165  0.00  0.00    +0.030 A 
ATOM     12  C   UNL     1       0.666   6.660  -6.157  0.00  0.00    +0.002 A 
ATOM     13  C   UNL     1      -0.623   6.166  -6.121  0.00  0.00    +0.002 A 
ATOM     14  C   UNL     1      -1.023   5.327  -5.090  0.00  0.00    +0.025 A 
ATOM     15  C   UNL     1      -0.130   4.983  -4.096  0.00  0.00    +0.057 A 
ATOM     16  N   UNL     1      -0.718   4.126  -3.141  0.00  0.00    -0.312 N 
ATOM     17  H   UNL     1       3.047   2.670   1.067  0.00  0.00    +0.151 HD
ATOM     18  H   UNL     1       4.154   5.086  -1.924  0.00  0.00    +0.158 HD
ATOM     19  H   UNL     1      -1.646   3.888  -3.289  0.00  0.00    +0.152 HD
ENDROOT
BRANCH   3  20
ATOM     20  C   UNL     1       1.178   1.546  -0.555  0.00  0.00    -0.004 A 
ATOM     21  C   UNL     1       1.216   1.049  -1.844  0.00  0.00    +0.007 A 
ATOM     22  C   UNL     1       0.970  -0.291  -2.076  0.00  0.00    +0.000 A 
ATOM     23  C   UNL     1       0.685  -1.135  -1.018  0.00  0.00    +0.001 A 
ATOM     24  C   UNL     1       0.647  -0.640   0.271  0.00  0.00    +0.020 A 
ATOM     25  C   UNL     1       0.894   0.702   0.503  0.00  0.00    +0.046 A 
ATOM     26 CL   UNL     1       0.840   1.327   2.122  0.00  0.00    -0.083 Cl
ENDBRANCH   3  20
BRANCH   1  30
ATOM     27  C   UNL     1      -2.554   1.079   0.397  0.00  0.00    +0.000 A 
ATOM     28  C   UNL     1      -2.047   2.256   0.921  0.00  0.00    +0.001 A 
ATOM     29  C   UNL     1      -1.254   3.075   0.146  0.00  0.00    +0.010 A 
ATOM     30  C   UNL     1      -0.961   2.714  -1.172  0.00  0.00    -0.003 A 
ATOM     31  C   UNL     1      -1.480   1.528  -1.696  0.00  0.00    +0.010 A 
ATOM     32  C   UNL     1      -2.268   0.716  -0.907  0.00  0.00    +0.001 A 
ENDBRANCH   1  30
TORSDOF 2
