REMARK  Name = ZINC20573353
REMARK  10 active torsions:
REMARK  status: ('A' for Active; 'I' for Inactive)
REMARK    1  A    between atoms: C_1  and  C_2
REMARK    2  A    between atoms: C_2  and  C_3
REMARK    3  A    between atoms: C_3  and  C_5
REMARK    4  A    between atoms: C_3  and  N_30
REMARK    5  A    between atoms: C_7  and  C_21
REMARK    6  A    between atoms: C_21  and  S_22
REMARK    7  A    between atoms: S_22  and  C_23
REMARK    8  A    between atoms: N_30  and  C_31
REMARK    9  A    between atoms: C_31  and  C_32
REMARK   10  A    between atoms: C_32  and  C_33
REMARK                            x       y       z     vdW  Elec       q    Type
REMARK                         _______ _______ _______ _____ _____    ______ ____
ROOT
ATOM      1  C   UNL     1       0.950  -1.959  -1.245  0.00  0.00    +0.110 C 
ATOM      2  C   UNL     1      -0.341  -2.638  -1.652  0.00  0.00    +0.058 C 
ATOM      3  N   UNL     1      -0.116  -3.249  -2.748  0.00  0.00    -0.178 NA
ATOM      4  N   UNL     1       1.193  -3.101  -3.199  0.00  0.00    -0.135 N 
ATOM      5  C   UNL     1       1.917  -2.336  -2.351  0.00  0.00    +0.248 C 
ATOM      6  O   UNL     1       3.083  -2.018  -2.451  0.00  0.00    -0.273 OA
ATOM      7  C   UNL     1       1.690  -3.667  -4.364  0.00  0.00    +0.189 A 
ATOM      8  N   UNL     1       2.901  -3.590  -4.864  0.00  0.00    -0.223 NA
ATOM      9  C   UNL     1       3.248  -4.197  -6.019  0.00  0.00    +0.080 A 
ATOM     10  C   UNL     1       4.508  -4.193  -6.663  0.00  0.00    +0.029 A 
ATOM     11  C   UNL     1       4.694  -4.866  -7.842  0.00  0.00    +0.002 A 
ATOM     12  C   UNL     1       3.662  -5.572  -8.444  0.00  0.00    +0.001 A 
ATOM     13  C   UNL     1       2.417  -5.597  -7.843  0.00  0.00    +0.017 A 
ATOM     14  C   UNL     1       2.222  -4.926  -6.662  0.00  0.00    +0.041 A 
ATOM     15  S   UNL     1       0.847  -4.691  -5.561  0.00  0.00    -0.050 S 
ENDROOT
BRANCH   1  16
ATOM     16  C   UNL     1       0.765  -0.442  -1.184  0.00  0.00    -0.054 C 
BRANCH  16  17
ATOM     17  N   UNL     1       2.079   0.208  -1.076  0.00  0.00    +0.382 N 
ATOM     18  H   UNL     1       2.509  -0.048  -0.200  0.00  0.00    -0.085 HD
ATOM     19  H   UNL     1       2.666  -0.092  -1.840  0.00  0.00    -0.085 HD
BRANCH  17  20
ATOM     20  C   UNL     1       1.910   1.666  -1.131  0.00  0.00    -0.076 C 
BRANCH  20  21
ATOM     21  C   UNL     1       3.284   2.338  -1.147  0.00  0.00    +0.038 C 
BRANCH  21  22
ATOM     22  C   UNL     1       3.111   3.834  -1.204  0.00  0.00    +0.057 A 
ATOM     23  C   UNL     1       3.640   4.725  -0.343  0.00  0.00    +0.107 A 
ATOM     24  N   UNL     1       3.236   5.965  -0.759  0.00  0.00    -0.351 N 
ATOM     25  H   UNL     1       3.456   6.812  -0.342  0.00  0.00    +0.166 HD
ATOM     26  C   UNL     1       2.475   5.789  -1.861  0.00  0.00    +0.196 A 
ATOM     27  N   UNL     1       2.408   4.512  -2.123  0.00  0.00    -0.241 NA
ENDBRANCH  21  22
ENDBRANCH  20  21
ENDBRANCH  17  20
ENDBRANCH  16  17
BRANCH  16  29
ATOM     28  C   UNL     1       0.650  -0.496   1.311  0.00  0.00    +0.002 C 
ATOM     29  C   UNL     1      -0.085  -0.079   0.035  0.00  0.00    -0.018 C 
ENDBRANCH  16  29
ENDBRANCH   1  16
BRANCH   2  30
ATOM     30  C   UNL     1      -1.648  -2.598  -0.902  0.00  0.00    +0.127 C 
BRANCH  30  31
ATOM     31  S   UNL     1      -2.838  -3.708  -1.702  0.00  0.00    -0.119 S 
BRANCH  31  32
ATOM     32  C   UNL     1      -4.293  -3.551  -0.721  0.00  0.00    +0.008 A 
ATOM     33  C   UNL     1      -4.304  -2.699   0.377  0.00  0.00    +0.016 A 
ATOM     34  C   UNL     1      -5.446  -2.578   1.144  0.00  0.00    +0.021 A 
ATOM     35  C   UNL     1      -6.579  -3.304   0.820  0.00  0.00    +0.041 A 
ATOM     36  C   UNL     1      -6.571  -4.154  -0.273  0.00  0.00    +0.021 A 
ATOM     37  C   UNL     1      -5.434  -4.275  -1.047  0.00  0.00    +0.016 A 
ATOM     38 CL   UNL     1      -8.013  -3.150   1.787  0.00  0.00    -0.084 Cl
ENDBRANCH  31  32
ENDBRANCH  30  31
ENDBRANCH   2  30
TORSDOF 9
