REMARK  Name = ZINC10751677
REMARK  10 active torsions:
REMARK  status: ('A' for Active; 'I' for Inactive)
REMARK    1  A    between atoms: C_1  and  N_61
REMARK    2  A    between atoms: C_2  and  N_61
REMARK    3  A    between atoms: C_3  and  C_4
REMARK    4  A    between atoms: C_3  and  N_61
REMARK    5  A    between atoms: C_4  and  N_5
REMARK    6  A    between atoms: C_9  and  O_15
REMARK    7  A    between atoms: O_15  and  C_16
REMARK    8  A    between atoms: C_17  and  C_19
REMARK    9  A    between atoms: N_24  and  S_26
REMARK   10  A    between atoms: S_26  and  C_29
REMARK                            x       y       z     vdW  Elec       q    Type
REMARK                         _______ _______ _______ _____ _____    ______ ____
ROOT
ATOM      1  N   UNL     1      -0.388   6.007   5.573  0.00  0.00    -0.252 N 
ATOM      2  C   UNL     1      -0.084   7.025   6.464  0.00  0.00    +0.168 A 
ATOM      3  N   UNL     1      -0.095   8.322   6.268  0.00  0.00    -0.221 NA
ATOM      4  C   UNL     1       0.227   9.206   7.237  0.00  0.00    +0.122 A 
ATOM      5  C   UNL     1       0.255  10.622   7.157  0.00  0.00    +0.146 A 
ATOM      6  C   UNL     1       0.609  11.379   8.249  0.00  0.00    +0.048 A 
ATOM      7  C   UNL     1       0.949  10.790   9.458  0.00  0.00    +0.005 A 
ATOM      8  C   UNL     1       0.932   9.412   9.569  0.00  0.00    +0.017 A 
ATOM      9  C   UNL     1       0.580   8.646   8.484  0.00  0.00    +0.044 A 
ATOM     10  S   UNL     1       0.416   6.904   8.176  0.00  0.00    -0.052 S 
ATOM     11  C   UNL     1      -0.634   6.296   4.280  0.00  0.00    +0.226 C 
ATOM     12  O   UNL     1      -0.978   5.417   3.518  0.00  0.00    -0.275 OA
ENDROOT
BRANCH  11  13
ATOM     13  C   UNL     1      -0.482   7.709   3.781  0.00  0.00    +0.091 C 
ATOM     14  C   UNL     1       0.981   8.141   3.907  0.00  0.00    +0.015 C 
ATOM     15  C   UNL     1       1.131   9.588   3.431  0.00  0.00    +0.018 C 
ATOM     16  C   UNL     1       0.726   9.678   1.952  0.00  0.00    +0.109 C 
ATOM     17  N   UNL     1      -0.630   9.132   1.804  0.00  0.00    -0.175 NA
ATOM     18  C   UNL     1      -0.906   7.781   2.311  0.00  0.00    +0.122 C 
BRANCH  17  19
ATOM     19  S   UNL     1      -1.822  10.020   1.074  0.00  0.00    +0.067 S 
ATOM     20  O   UNL     1      -2.776   9.090   0.581  0.00  0.00    -0.152 OA
ATOM     21  O   UNL     1      -1.170  10.961   0.233  0.00  0.00    -0.152 OA
BRANCH  19  22
ATOM     22  C   UNL     1      -2.628  10.947   2.337  0.00  0.00    +0.143 A 
ATOM     23  C   UNL     1      -2.344  12.190   2.797  0.00  0.00    +0.036 A 
ATOM     24  C   UNL     1      -3.119  12.723   3.810  0.00  0.00    +0.010 A 
ATOM     25  C   UNL     1      -4.147  11.992   4.305  0.00  0.00    +0.047 A 
ATOM     26  S   UNL     1      -4.038  10.497   3.336  0.00  0.00    -0.077 S 
ENDBRANCH  19  22
ENDBRANCH  17  19
ENDBRANCH  11  13
BRANCH   5  27
ATOM     27  O   UNL     1      -0.071  11.236   5.989  0.00  0.00    -0.493 OA
ATOM     28  C   UNL     1      -0.023  12.665   5.972  0.00  0.00    +0.277 C 
ENDBRANCH   5  27
BRANCH   1  29
ATOM     29  C   UNL     1      -0.443   4.619   6.037  0.00  0.00    +0.097 C 
BRANCH  29  30
ATOM     30  C   UNL     1       0.888   3.928   5.735  0.00  0.00    -0.060 C 
BRANCH  30  33
ATOM     31  C   UNL     1       1.995   1.774   5.720  0.00  0.00    -0.097 C 
ATOM     32  C   UNL     1       0.733   2.473   7.664  0.00  0.00    -0.097 C 
ATOM     33  N   UNL     1       0.810   2.523   6.189  0.00  0.00    +0.377 N 
ATOM     34  H   UNL     1      -0.034   2.092   5.796  0.00  0.00    -0.083 HD
ENDBRANCH  30  33
ENDBRANCH  29  30
ENDBRANCH   1  29
TORSDOF 7
