REMARK  Name = ZINC64131737
REMARK  6 active torsions:
REMARK  status: ('A' for Active; 'I' for Inactive)
REMARK    1  A    between atoms: C_1  and  N_2
REMARK    2  A    between atoms: C_10  and  C_12
REMARK    3  A    between atoms: N_26  and  C_27
REMARK    4  A    between atoms: C_27  and  C_28
REMARK    5  A    between atoms: C_31  and  S_34
REMARK    6  A    between atoms: S_34  and  C_35
REMARK                            x       y       z     vdW  Elec       q    Type
REMARK                         _______ _______ _______ _____ _____    ______ ____
ROOT
ATOM      1  C   UNL     1       1.308  -0.776   2.143  0.00  0.00    +0.122 C 
ATOM      2  C   UNL     1       1.349  -1.911   3.168  0.00  0.00    +0.127 C 
ATOM      3  C   UNL     1       2.521  -1.607   4.094  0.00  0.00    -0.036 C 
ATOM      4  C   UNL     1       3.289  -2.688   4.094  0.00  0.00    -0.001 A 
ATOM      5  C   UNL     1       4.505  -3.028   4.851  0.00  0.00    +0.010 A 
ATOM      6  C   UNL     1       5.054  -4.243   4.588  0.00  0.00    +0.001 A 
ATOM      7  C   UNL     1       4.524  -5.142   3.657  0.00  0.00    +0.002 A 
ATOM      8  C   UNL     1       3.407  -4.914   2.921  0.00  0.00    +0.026 A 
ATOM      9  C   UNL     1       2.736  -3.672   3.114  0.00  0.00    +0.043 A 
ATOM     10  N   UNL     1       1.632  -3.210   2.560  0.00  0.00    -0.376 N 
ATOM     11  C   UNL     1       2.693  -0.251   4.735  0.00  0.00    +0.049 C 
ATOM     12  C   UNL     1       2.504   0.783   3.611  0.00  0.00    +0.089 C 
ATOM     13  N   UNL     1       1.272   0.504   2.869  0.00  0.00    -0.289 NA
ATOM     14  H   UNL     1       1.102  -3.642   1.871  0.00  0.00    +0.160 HD
ENDROOT
BRANCH   1  24
ATOM     15  C   UNL     1       1.120  -2.540  -0.477  0.00  0.00    +0.131 C 
ATOM     16  N   UNL     1       0.103  -2.163   0.508  0.00  0.00    -0.312 N 
ATOM     17  C   UNL     1      -1.000  -2.933   0.899  0.00  0.00    +0.052 A 
ATOM     18  C   UNL     1      -1.413  -4.194   0.485  0.00  0.00    +0.025 A 
ATOM     19  C   UNL     1      -2.554  -4.761   1.019  0.00  0.00    +0.002 A 
ATOM     20  C   UNL     1      -3.290  -4.077   1.969  0.00  0.00    +0.002 A 
ATOM     21  C   UNL     1      -2.887  -2.823   2.387  0.00  0.00    +0.025 A 
ATOM     22  C   UNL     1      -1.741  -2.245   1.855  0.00  0.00    +0.050 A 
ATOM     23  N   UNL     1      -1.142  -1.004   2.117  0.00  0.00    -0.323 N 
ATOM     24  C   UNL     1       0.056  -0.911   1.274  0.00  0.00    +0.178 C 
ATOM     25  H   UNL     1      -1.459  -0.334   2.742  0.00  0.00    +0.148 HD
ENDBRANCH   1  24
BRANCH  13  26
ATOM     26  C   UNL     1       0.938   1.612   1.965  0.00  0.00    +0.123 C 
BRANCH  26  27
ATOM     27  C   UNL     1       0.774   2.880   2.763  0.00  0.00    +0.003 A 
ATOM     28  C   UNL     1      -0.462   3.235   3.281  0.00  0.00    +0.120 A 
ATOM     29  N   UNL     1      -0.572   4.354   3.978  0.00  0.00    -0.230 NA
ATOM     30  C   UNL     1       0.482   5.131   4.182  0.00  0.00    +0.188 A 
ATOM     31  N   UNL     1       1.677   4.820   3.701  0.00  0.00    -0.230 NA
ATOM     32  C   UNL     1       1.856   3.712   3.001  0.00  0.00    +0.120 A 
BRANCH  30  33
ATOM     33  S   UNL     1       0.290   6.613   5.116  0.00  0.00    -0.089 S 
ATOM     34  C   UNL     1       1.954   7.337   5.138  0.00  0.00    +0.093 C 
ENDBRANCH  30  33
ENDBRANCH  26  27
ENDBRANCH  13  26
TORSDOF 4
