REMARK  Name = ZINC35339864
REMARK  7 active torsions:
REMARK  status: ('A' for Active; 'I' for Inactive)
REMARK    1  A    between atoms: C_1  and  C_2
REMARK    2  A    between atoms: C_3  and  N_9
REMARK    3  A    between atoms: N_9  and  C_10
REMARK    4  A    between atoms: C_13  and  S_17
REMARK    5  A    between atoms: C_15  and  N_16
REMARK    6  A    between atoms: S_17  and  N_20
REMARK    7  A    between atoms: N_20  and  C_21
REMARK                            x       y       z     vdW  Elec       q    Type
REMARK                         _______ _______ _______ _____ _____    ______ ____
ROOT
ATOM      1  C   UNL     1       0.083  -0.636  -3.651  0.00  0.00    +0.052 A 
ATOM      2  C   UNL     1       0.091  -2.022  -3.714  0.00  0.00    +0.027 A 
ATOM      3  C   UNL     1       0.184  -2.657  -4.939  0.00  0.00    +0.030 A 
ATOM      4  C   UNL     1       0.269  -1.915  -6.103  0.00  0.00    +0.107 A 
ATOM      5  C   UNL     1       0.262  -0.533  -6.048  0.00  0.00    +0.053 A 
ATOM      6  C   UNL     1       0.163   0.113  -4.825  0.00  0.00    +0.048 A 
ENDROOT
BRANCH   6   7
ATOM      7  N   UNL     1       0.149   1.511  -4.768  0.00  0.00    -0.356 N 
ATOM      8  H   UNL     1       0.084   1.961  -3.912  0.00  0.00    +0.142 HD
ATOM      9  H   UNL     1       0.205   2.030  -5.586  0.00  0.00    +0.142 HD
ENDBRANCH   6   7
BRANCH   4  10
ATOM     10  S   UNL     1       0.386  -2.732  -7.659  0.00  0.00    +0.058 S 
ATOM     11  O   UNL     1       1.003  -1.816  -8.553  0.00  0.00    -0.153 OA
ATOM     12  O   UNL     1       0.923  -4.022  -7.401  0.00  0.00    -0.153 OA
BRANCH  10  13
ATOM     13  N   UNL     1      -1.159  -2.963  -8.209  0.00  0.00    -0.193 NA
ATOM     14  C   UNL     1      -1.997  -1.809  -8.543  0.00  0.00    +0.127 C 
ATOM     15  H   UNL     1      -1.508  -3.862  -8.309  0.00  0.00    +0.148 HD
ENDBRANCH  10  13
ENDBRANCH   4  10
BRANCH   1  16
ATOM     16  N   UNL     1      -0.010   0.009  -2.412  0.00  0.00    -0.313 N 
ATOM     17  H   UNL     1      -0.597   0.774  -2.306  0.00  0.00    +0.152 HD
BRANCH  16  20
ATOM     18  C   UNL     1      -0.445   1.216   0.128  0.00  0.00    +0.047 C 
ATOM     19  C   UNL     1       0.561   0.112  -0.069  0.00  0.00    -0.011 A 
ATOM     20  C   UNL     1       0.741  -0.449  -1.327  0.00  0.00    +0.036 A 
ATOM     21  C   UNL     1       1.671  -1.466  -1.504  0.00  0.00    +0.023 A 
ATOM     22  C   UNL     1       2.412  -1.917  -0.430  0.00  0.00    +0.003 A 
ATOM     23  C   UNL     1       2.231  -1.358   0.821  0.00  0.00    +0.020 A 
ATOM     24  C   UNL     1       1.310  -0.340   1.001  0.00  0.00    +0.046 A 
ATOM     25 CL   UNL     1       1.091   0.364   2.573  0.00  0.00    -0.083 Cl
ENDBRANCH  16  20
ENDBRANCH   1  16
TORSDOF 5
