REMARK  Name = ZINC10812964
REMARK  8 active torsions:
REMARK  status: ('A' for Active; 'I' for Inactive)
REMARK    1  A    between atoms: C_1  and  C_2
REMARK    2  A    between atoms: C_3  and  C_23
REMARK    3  A    between atoms: C_4  and  C_22
REMARK    4  A    between atoms: C_7  and  C_8
REMARK    5  A    between atoms: C_8  and  C_10
REMARK    6  A    between atoms: C_10  and  N_11
REMARK    7  A    between atoms: N_14  and  C_17
REMARK    8  A    between atoms: C_23  and  C_25
REMARK                            x       y       z     vdW  Elec       q    Type
REMARK                         _______ _______ _______ _____ _____    ______ ____
ROOT
ATOM      1  C   UNL     1       1.186   1.381   2.865  0.00  0.00    +0.201 C 
ATOM      2  O   UNL     1       1.969   0.985   2.026  0.00  0.00    -0.289 OA
ENDROOT
BRANCH   1   9
ATOM      3  C   UNL     1       0.039   1.150  -0.013  0.00  0.00    +0.047 C 
ATOM      4  C   UNL     1      -0.677   1.607   1.232  0.00  0.00    -0.012 A 
ATOM      5  C   UNL     1      -2.023   2.028   1.323  0.00  0.00    +0.041 A 
ATOM      6  C   UNL     1      -2.260   2.354   2.651  0.00  0.00    +0.024 A 
ATOM      7  N   UNL     1      -1.131   2.159   3.347  0.00  0.00    -0.355 N 
ATOM      8  H   UNL     1      -1.025   2.316   4.298  0.00  0.00    +0.166 HD
ATOM      9  C   UNL     1      -0.144   1.700   2.498  0.00  0.00    +0.088 A 
ATOM     10  C   UNL     1      -3.566   2.850   3.215  0.00  0.00    +0.064 C 
BRANCH   5  11
ATOM     11  C   UNL     1      -2.989   2.104   0.222  0.00  0.00    +0.162 C 
ATOM     12  O   UNL     1      -3.672   1.141  -0.053  0.00  0.00    -0.292 OA
ATOM     13  C   UNL     1      -3.133   3.380  -0.568  0.00  0.00    +0.091 C 
ENDBRANCH   5  11
ENDBRANCH   1   9
BRANCH   1  14
ATOM     14  C   UNL     1       1.629   1.534   4.298  0.00  0.00    +0.231 C 
BRANCH  14  15
ATOM     15  N   UNL     1       3.036   1.143   4.418  0.00  0.00    -0.186 N 
ATOM     16  C   UNL     1       4.105   1.955   4.275  0.00  0.00    +0.370 A 
ATOM     17  O   UNL     1       4.088   3.147   4.024  0.00  0.00    -0.243 OA
ATOM     18  N   UNL     1       5.198   1.185   4.470  0.00  0.00    -0.154 N 
ATOM     19  N   UNL     1       4.754  -0.118   4.725  0.00  0.00    -0.037 NA
ATOM     20  N   UNL     1       3.518  -0.142   4.695  0.00  0.00    -0.042 NA
BRANCH  18  21
ATOM     21  C   UNL     1       6.529   1.611   4.421  0.00  0.00    +0.110 A 
ATOM     22  C   UNL     1       7.669   0.887   4.602  0.00  0.00    +0.036 A 
ATOM     23  C   UNL     1       8.889   1.529   4.505  0.00  0.00    +0.010 A 
ATOM     24  C   UNL     1       8.915   2.857   4.232  0.00  0.00    +0.047 A 
ATOM     25  S   UNL     1       7.177   3.243   4.095  0.00  0.00    -0.077 S 
ENDBRANCH  18  21
ENDBRANCH  14  15
ENDBRANCH   1  14
TORSDOF 5
