REMARK  Name = ZINC38966303
REMARK  8 active torsions:
REMARK  status: ('A' for Active; 'I' for Inactive)
REMARK    1  A    between atoms: C_1  and  C_2
REMARK    2  A    between atoms: C_2  and  C_3
REMARK    3  A    between atoms: C_2  and  O_4
REMARK    4  A    between atoms: O_4  and  C_5
REMARK    5  A    between atoms: C_9  and  C_11
REMARK    6  A    between atoms: N_17  and  N_18
REMARK    7  A    between atoms: C_19  and  C_20
REMARK    8  A    between atoms: C_25  and  O_26
REMARK                            x       y       z     vdW  Elec       q    Type
REMARK                         _______ _______ _______ _____ _____    ______ ____
ROOT
ATOM      1  C   UNL     1       0.537  -1.436   5.929  0.00  0.00    +0.264 C 
ATOM      2  N   UNL     1       1.901  -0.888   5.982  0.00  0.00    -0.189 NA
ATOM      3  N   UNL     1       1.975  -0.136   6.957  0.00  0.00    -0.219 N 
ATOM      4  C   UNL     1       0.813  -0.046   7.659  0.00  0.00    +0.174 C 
ATOM      5  S   UNL     1       0.585   0.911   9.060  0.00  0.00    -0.015 S 
ATOM      6  N   UNL     1      -0.137  -0.825   7.090  0.00  0.00    -0.172 N 
ATOM      7  H   UNL     1       2.782   0.345   7.200  0.00  0.00    +0.176 HD
ENDROOT
BRANCH   1  12
ATOM      8  C   UNL     1      -0.037  -0.519   2.308  0.00  0.00    +0.121 A 
ATOM      9  C   UNL     1      -1.405  -0.287   2.298  0.00  0.00    +0.045 A 
ATOM     10  C   UNL     1      -2.138  -0.428   3.461  0.00  0.00    +0.004 A 
ATOM     11  C   UNL     1      -1.508  -0.800   4.635  0.00  0.00    +0.007 A 
ATOM     12  C   UNL     1      -0.145  -1.031   4.648  0.00  0.00    +0.001 A 
ATOM     13  C   UNL     1       0.591  -0.897   3.486  0.00  0.00    +0.053 A 
BRANCH   8  14
ATOM     14  O   UNL     1       0.685  -0.382   1.166  0.00  0.00    -0.489 OA
BRANCH  14  16
ATOM     15  C   UNL     1      -0.046   1.636   0.053  0.00  0.00    +0.051 C 
ATOM     16  C   UNL     1      -0.008   0.106   0.015  0.00  0.00    +0.167 C 
ATOM     17  C   UNL     1       0.718  -0.354  -1.251  0.00  0.00    +0.051 C 
ENDBRANCH  14  16
ENDBRANCH   8  14
ENDBRANCH   1  12
BRANCH   6  18
ATOM     18  N   UNL     1      -1.462  -1.011   7.507  0.00  0.00    -0.183 NA
ATOM     19  C   UNL     1      -1.938  -0.306   8.489  0.00  0.00    +0.142 C 
BRANCH  19  20
ATOM     20  C   UNL     1      -3.360  -0.422   8.857  0.00  0.00    +0.038 A 
ATOM     21  C   UNL     1      -3.877   0.339   9.909  0.00  0.00    +0.028 A 
ATOM     22  C   UNL     1      -5.210   0.226  10.248  0.00  0.00    +0.020 A 
ATOM     23  C   UNL     1      -6.038  -0.639   9.550  0.00  0.00    +0.034 A 
ATOM     24  C   UNL     1      -5.537  -1.397   8.508  0.00  0.00    +0.061 A 
ATOM     25  C   UNL     1      -4.202  -1.291   8.151  0.00  0.00    +0.139 A 
ATOM     26 BR   UNL     1      -6.677  -2.574   7.564  0.00  0.00    -0.046 Br
ATOM     27 BR   UNL     1      -5.909   1.255  11.672  0.00  0.00    -0.050 Br
BRANCH  25  28
ATOM     28  O   UNL     1      -3.711  -2.031   7.123  0.00  0.00    -0.505 OA
ATOM     29  H   UNL     1      -3.370  -2.896   7.389  0.00  0.00    +0.292 HD
ENDBRANCH  25  28
ENDBRANCH  19  20
ENDBRANCH   6  18
TORSDOF 6
