REMARK  Name = ZINC43465433
REMARK  8 active torsions:
REMARK  status: ('A' for Active; 'I' for Inactive)
REMARK    1  A    between atoms: C_4  and  C_7
REMARK    2  A    between atoms: C_14  and  O_18
REMARK    3  A    between atoms: O_18  and  C_19
REMARK    4  A    between atoms: C_21  and  O_34
REMARK    5  A    between atoms: C_23  and  O_33
REMARK    6  A    between atoms: C_25  and  O_32
REMARK    7  A    between atoms: C_27  and  C_30
REMARK    8  A    between atoms: C_30  and  O_31
REMARK                            x       y       z     vdW  Elec       q    Type
REMARK                         _______ _______ _______ _____ _____    ______ ____
ROOT
ATOM      1  C   UNL     1       3.695  -0.683  -0.037  0.00  0.00    +0.139 A 
ATOM      2  C   UNL     1       3.686  -2.043  -0.050  0.00  0.00    +0.098 A 
ATOM      3  C   UNL     1       4.913  -2.748  -0.067  0.00  0.00    +0.193 A 
ATOM      4  O   UNL     1       4.944  -3.967  -0.079  0.00  0.00    -0.287 OA
ATOM      5  C   UNL     1       6.154  -1.950  -0.069  0.00  0.00    +0.064 A 
ATOM      6  C   UNL     1       7.408  -2.560  -0.085  0.00  0.00    +0.019 A 
ATOM      7  C   UNL     1       8.537  -1.791  -0.088  0.00  0.00    +0.047 A 
ATOM      8  C   UNL     1       8.441  -0.401  -0.073  0.00  0.00    +0.128 A 
ATOM      9  C   UNL     1       7.203   0.220  -0.057  0.00  0.00    +0.092 A 
ATOM     10  C   UNL     1       6.048  -0.549  -0.055  0.00  0.00    +0.143 A 
ATOM     11  O   UNL     1       4.830   0.032  -0.045  0.00  0.00    -0.454 OA
ENDROOT
BRANCH   1  15
ATOM     12  C   UNL     1      -0.017   1.379   0.010  0.00  0.00    +0.000 A 
ATOM     13  C   UNL     1       1.168   2.094   0.002  0.00  0.00    +0.001 A 
ATOM     14  C   UNL     1       2.377   1.430  -0.013  0.00  0.00    +0.011 A 
ATOM     15  C   UNL     1       2.404   0.034  -0.021  0.00  0.00    +0.017 A 
ATOM     16  C   UNL     1       1.204  -0.681  -0.013  0.00  0.00    +0.011 A 
ATOM     17  C   UNL     1       0.002  -0.004   0.002  0.00  0.00    +0.001 A 
ENDBRANCH   1  15
BRANCH   8  18
ATOM     18  O   UNL     1       9.571   0.352  -0.075  0.00  0.00    -0.461 OA
BRANCH  18  19
ATOM     19  C   UNL     1      10.817  -0.348  -0.091  0.00  0.00    +0.339 C 
ATOM     20  C   UNL     1      11.960   0.638   0.159  0.00  0.00    +0.214 C 
ATOM     21  C   UNL     1      11.992   1.670  -0.973  0.00  0.00    +0.180 C 
ATOM     22  C   UNL     1      12.137   0.939  -2.311  0.00  0.00    +0.177 C 
ATOM     23  C   UNL     1      10.987  -0.059  -2.466  0.00  0.00    +0.179 C 
ATOM     24  O   UNL     1      10.997  -0.971  -1.365  0.00  0.00    -0.331 OA
BRANCH  22  25
ATOM     25  O   UNL     1      13.384   0.241  -2.341  0.00  0.00    -0.386 OA
ATOM     26  H   UNL     1      14.158   0.813  -2.243  0.00  0.00    +0.210 HD
ENDBRANCH  22  25
BRANCH  21  27
ATOM     27  O   UNL     1      10.777   2.423  -0.967  0.00  0.00    -0.386 OA
ATOM     28  H   UNL     1      10.618   2.907  -0.145  0.00  0.00    +0.210 HD
ENDBRANCH  21  27
BRANCH  20  29
ATOM     29  O   UNL     1      13.201  -0.069   0.197  0.00  0.00    -0.383 OA
ATOM     30  H   UNL     1      13.249  -0.743   0.889  0.00  0.00    +0.210 HD
ENDBRANCH  20  29
BRANCH  23  31
ATOM     31  C   UNL     1      11.158  -0.836  -3.773  0.00  0.00    +0.190 C 
BRANCH  31  32
ATOM     32  O   UNL     1      10.026  -1.684  -3.975  0.00  0.00    -0.392 OA
ATOM     33  H   UNL     1      10.066  -2.207  -4.787  0.00  0.00    +0.210 HD
ENDBRANCH  31  32
ENDBRANCH  23  31
ENDBRANCH  18  19
ENDBRANCH   8  18
TORSDOF 8
