REMARK  Name = ZINC04872322
REMARK  5 active torsions:
REMARK  status: ('A' for Active; 'I' for Inactive)
REMARK    1  A    between atoms: C_1  and  C_2
REMARK    2  A    between atoms: C_2  and  C_23
REMARK    3  A    between atoms: N_3  and  N_4
REMARK    4  A    between atoms: C_5  and  C_16
REMARK    5  A    between atoms: C_28  and  O_29
REMARK                            x       y       z     vdW  Elec       q    Type
REMARK                         _______ _______ _______ _____ _____    ______ ____
ROOT
ATOM      1  N   UNL     1      -0.026  -0.041   2.378  0.00  0.00    -0.163 N 
ATOM      2  C   UNL     1       0.221  -0.769   3.623  0.00  0.00    +0.217 C 
ATOM      3  N   UNL     1       0.887   0.102   4.598  0.00  0.00    -0.320 N 
ATOM      4  C   UNL     1       0.418   1.401   4.759  0.00  0.00    +0.041 A 
ATOM      5  C   UNL     1       0.521   2.074   5.964  0.00  0.00    +0.024 A 
ATOM      6  C   UNL     1       0.033   3.362   6.071  0.00  0.00    +0.002 A 
ATOM      7  C   UNL     1      -0.557   3.985   4.983  0.00  0.00    +0.001 A 
ATOM      8  C   UNL     1      -0.666   3.329   3.774  0.00  0.00    +0.015 A 
ATOM      9  C   UNL     1      -0.176   2.032   3.651  0.00  0.00    +0.059 A 
ATOM     10  C   UNL     1      -0.250   1.290   2.380  0.00  0.00    +0.270 C 
ATOM     11  O   UNL     1      -0.515   1.870   1.344  0.00  0.00    -0.268 OA
ATOM     12  H   UNL     1       1.638  -0.222   5.120  0.00  0.00    +0.148 HD
ENDROOT
BRANCH   2  13
ATOM     13  C   UNL     1      -1.092  -1.240   4.194  0.00  0.00    +0.011 A 
ATOM     14  C   UNL     1      -2.177  -1.439   3.361  0.00  0.00    +0.008 A 
ATOM     15  C   UNL     1      -3.381  -1.870   3.885  0.00  0.00    +0.000 A 
ATOM     16  C   UNL     1      -3.501  -2.103   5.242  0.00  0.00    +0.001 A 
ATOM     17  C   UNL     1      -2.417  -1.904   6.076  0.00  0.00    +0.020 A 
ATOM     18  C   UNL     1      -1.210  -1.478   5.552  0.00  0.00    +0.048 A 
ATOM     19 CL   UNL     1       0.154  -1.234   6.598  0.00  0.00    -0.083 Cl
ENDBRANCH   2  13
BRANCH   1  22
ATOM     20  C   UNL     1       2.363  -1.075   1.475  0.00  0.00    +0.068 C 
ATOM     21  C   UNL     1       1.070  -1.284   0.730  0.00  0.00    +0.067 C 
ATOM     22  N   UNL     1      -0.024  -0.736   1.162  0.00  0.00    -0.179 NA
BRANCH  21  23
ATOM     23  C   UNL     1       1.048  -2.111  -0.490  0.00  0.00    +0.039 A 
ATOM     24  C   UNL     1       2.223  -2.708  -0.955  0.00  0.00    +0.013 A 
ATOM     25  C   UNL     1       2.195  -3.480  -2.097  0.00  0.00    +0.001 A 
ATOM     26  C   UNL     1       1.008  -3.667  -2.785  0.00  0.00    +0.004 A 
ATOM     27  C   UNL     1      -0.160  -3.082  -2.335  0.00  0.00    +0.046 A 
ATOM     28  C   UNL     1      -0.152  -2.309  -1.186  0.00  0.00    +0.126 A 
BRANCH  28  29
ATOM     29  O   UNL     1      -1.301  -1.738  -0.739  0.00  0.00    -0.506 OA
ATOM     30  H   UNL     1      -1.468  -0.856  -1.099  0.00  0.00    +0.292 HD
ENDBRANCH  28  29
ENDBRANCH  21  23
ENDBRANCH   1  22
TORSDOF 4
