REMARK  Name = ZINC04949414
REMARK  8 active torsions:
REMARK  status: ('A' for Active; 'I' for Inactive)
REMARK    1  A    between atoms: C_1  and  C_2
REMARK    2  A    between atoms: C_2  and  O_3
REMARK    3  A    between atoms: O_3  and  C_4
REMARK    4  A    between atoms: C_7  and  C_13
REMARK    5  A    between atoms: C_9  and  N_10
REMARK    6  A    between atoms: N_15  and  C_16
REMARK    7  A    between atoms: C_16  and  N_18
REMARK    8  A    between atoms: N_18  and  C_19
REMARK                            x       y       z     vdW  Elec       q    Type
REMARK                         _______ _______ _______ _____ _____    ______ ____
ROOT
ATOM      1  C   UNL     1      -1.348   5.064   2.919  0.00  0.00    +0.250 C 
ATOM      2  O   UNL     1      -0.906   5.867   2.122  0.00  0.00    -0.270 OA
ATOM      3  N   UNL     1      -1.297   3.745   2.646  0.00  0.00    -0.264 N 
ATOM      4  H   UNL     1      -1.650   3.104   3.283  0.00  0.00    +0.157 HD
ENDROOT
BRANCH   1   8
ATOM      5  C   UNL     1      -3.055   6.412   6.566  0.00  0.00    +0.151 A 
ATOM      6  C   UNL     1      -3.003   5.051   6.286  0.00  0.00    +0.049 A 
ATOM      7  C   UNL     1      -2.456   4.611   5.103  0.00  0.00    +0.017 A 
ATOM      8  C   UNL     1      -1.941   5.532   4.186  0.00  0.00    +0.039 A 
ATOM      9  C   UNL     1      -1.995   6.899   4.471  0.00  0.00    +0.049 A 
ATOM     10  C   UNL     1      -2.550   7.333   5.655  0.00  0.00    +0.168 A 
BRANCH  10  11
ATOM     11  N   UNL     1      -2.608   8.780   5.958  0.00  0.00    +0.060 N 
ATOM     12  O   UNL     1      -2.165   9.588   5.161  0.00  0.00    -0.126 OA
ATOM     13  O   UNL     1      -3.098   9.165   7.005  0.00  0.00    -0.126 OA
ENDBRANCH  10  11
BRANCH   5  14
ATOM     14  O   UNL     1      -3.601   6.843   7.731  0.00  0.00    -0.490 OA
BRANCH  14  16
ATOM     15  C   UNL     1      -4.674   6.516   9.872  0.00  0.00    +0.048 C 
ATOM     16  C   UNL     1      -4.101   5.844   8.622  0.00  0.00    +0.226 C 
ENDBRANCH  14  16
ENDBRANCH   5  14
ENDBRANCH   1   8
BRANCH   3  17
ATOM     17  C   UNL     1      -0.755   3.317   1.489  0.00  0.00    +0.137 C 
ATOM     18  S   UNL     1      -0.133   4.449   0.365  0.00  0.00    -0.018 S 
BRANCH  17  19
ATOM     19  N   UNL     1      -0.704   1.998   1.216  0.00  0.00    -0.321 N 
ATOM     20  H   UNL     1      -1.124   1.362   1.816  0.00  0.00    +0.148 HD
BRANCH  19  21
ATOM     21  C   UNL     1      -0.015   1.525   0.013  0.00  0.00    +0.034 C 
ATOM     22  C   UNL     1      -0.719   2.076  -1.229  0.00  0.00    +0.029 C 
ATOM     23  C   UNL     1       0.002   1.583  -2.485  0.00  0.00    -0.008 C 
ATOM     24  C   UNL     1       1.453   2.067  -2.464  0.00  0.00    +0.007 C 
ATOM     25  C   UNL     1       2.157   1.516  -1.223  0.00  0.00    -0.008 C 
ATOM     26  C   UNL     1       1.437   2.010   0.033  0.00  0.00    +0.029 C 
ATOM     27  C   UNL     1       2.130  -0.013  -1.258  0.00  0.00    +0.007 C 
ATOM     28  C   UNL     1       0.679  -0.498  -1.279  0.00  0.00    -0.008 C 
ATOM     29  C   UNL     1      -0.025   0.053  -2.520  0.00  0.00    +0.007 C 
ATOM     30  C   UNL     1      -0.041  -0.004  -0.022  0.00  0.00    +0.029 C 
ENDBRANCH  19  21
ENDBRANCH  17  19
ENDBRANCH   3  17
TORSDOF 7
