REMARK  Name = ZINC12464320
REMARK  9 active torsions:
REMARK  status: ('A' for Active; 'I' for Inactive)
REMARK    1  A    between atoms: C_1  and  C_2
REMARK    2  A    between atoms: C_2  and  C_3
REMARK    3  A    between atoms: C_2  and  C_4
REMARK    4  A    between atoms: C_2  and  C_5
REMARK    5  A    between atoms: C_8  and  C_11
REMARK    6  A    between atoms: N_17  and  N_18
REMARK    7  A    between atoms: C_19  and  C_20
REMARK    8  A    between atoms: C_25  and  O_26
REMARK    9  A    between atoms: O_26  and  C_27
REMARK                            x       y       z     vdW  Elec       q    Type
REMARK                         _______ _______ _______ _____ _____    ______ ____
ROOT
ATOM      1  C   UNL     1      -1.756   1.277  -0.595  0.00  0.00    +0.184 A 
ATOM      2  N   UNL     1      -1.626   0.066  -0.126  0.00  0.00    -0.152 NA
ATOM      3  N   UNL     1      -2.822  -0.281   0.516  0.00  0.00    -0.253 N 
ATOM      4  H   UNL     1      -2.927  -1.270   0.986  0.00  0.00    +0.191 HD
ATOM      5  C   UNL     1      -3.661   0.770   0.409  0.00  0.00    +0.197 A 
ATOM      6  S   UNL     1      -5.255   0.858   1.028  0.00  0.00    -0.010 S 
ATOM      7  N   UNL     1      -3.016   1.740  -0.269  0.00  0.00    -0.188 N 
ENDROOT
BRANCH   1  11
ATOM      8  C   UNL     1       1.201   3.436  -2.750  0.00  0.00    -0.042 A 
ATOM      9  C   UNL     1       1.334   2.070  -2.578  0.00  0.00    +0.005 A 
ATOM     10  C   UNL     1       0.380   1.363  -1.875  0.00  0.00    +0.012 A 
ATOM     11  C   UNL     1      -0.725   2.029  -1.343  0.00  0.00    +0.021 A 
ATOM     12  C   UNL     1      -0.852   3.408  -1.516  0.00  0.00    +0.012 A 
ATOM     13  C   UNL     1       0.110   4.102  -2.220  0.00  0.00    +0.005 A 
BRANCH   8  15
ATOM     14  C   UNL     1       2.335   3.653  -4.944  0.00  0.00    +0.015 C 
ATOM     15  C   UNL     1       2.247   4.201  -3.518  0.00  0.00    -0.013 C 
ATOM     16  C   UNL     1       1.866   5.682  -3.563  0.00  0.00    +0.015 C 
ATOM     17  C   UNL     1       3.603   4.044  -2.827  0.00  0.00    +0.015 C 
ENDBRANCH   8  15
ENDBRANCH   1  11
BRANCH   7  18
ATOM     18  N   UNL     1      -3.535   3.001  -0.590  0.00  0.00    -0.170 NA
ATOM     19  C   UNL     1      -3.889   3.266  -1.811  0.00  0.00    +0.145 C 
BRANCH  19  20
ATOM     20  C   UNL     1      -3.614   2.295  -2.885  0.00  0.00    +0.037 A 
ATOM     21  C   UNL     1      -3.558   0.929  -2.598  0.00  0.00    +0.028 A 
ATOM     22  C   UNL     1      -3.300   0.025  -3.608  0.00  0.00    +0.019 A 
ATOM     23  C   UNL     1      -3.097   0.467  -4.906  0.00  0.00    +0.019 A 
ATOM     24  C   UNL     1      -3.150   1.816  -5.201  0.00  0.00    +0.047 A 
ATOM     25  C   UNL     1      -3.413   2.736  -4.200  0.00  0.00    +0.129 A 
ATOM     26 BR   UNL     1      -3.224  -1.824  -3.220  0.00  0.00    -0.050 Br
BRANCH  25  27
ATOM     27  O   UNL     1      -3.471   4.062  -4.490  0.00  0.00    -0.494 OA
ATOM     28  C   UNL     1      -3.133   4.449  -5.824  0.00  0.00    +0.277 C 
ENDBRANCH  25  27
ENDBRANCH  19  20
ENDBRANCH   7  18
TORSDOF 5
