REMARK  Name = ZINC02202995
REMARK  9 active torsions:
REMARK  status: ('A' for Active; 'I' for Inactive)
REMARK    1  A    between atoms: C_1  and  C_2
REMARK    2  A    between atoms: C_2  and  N_3
REMARK    3  A    between atoms: C_4  and  C_6
REMARK    4  A    between atoms: C_6  and  C_27
REMARK    5  A    between atoms: C_7  and  C_8
REMARK    6  A    between atoms: C_9  and  N_20
REMARK    7  A    between atoms: C_12  and  C_19
REMARK    8  A    between atoms: C_25  and  C_26
REMARK    9  A    between atoms: C_25  and  N_55
REMARK                            x       y       z     vdW  Elec       q    Type
REMARK                         _______ _______ _______ _____ _____    ______ ____
ROOT
ATOM      1  C   UNL     1       3.380   3.569   0.146  0.00  0.00    +0.081 A 
ATOM      2  C   UNL     1       2.241   4.312   0.553  0.00  0.00    +0.136 A 
ATOM      3  N   UNL     1       1.060   3.716   0.606  0.00  0.00    -0.213 NA
ATOM      4  C   UNL     1       0.907   2.430   0.287  0.00  0.00    +0.145 A 
ATOM      5  C   UNL     1      -0.373   1.855   0.363  0.00  0.00    -0.007 A 
ATOM      6  C   UNL     1      -0.541   0.540   0.040  0.00  0.00    +0.008 A 
ATOM      7  C   UNL     1       0.566  -0.218  -0.365  0.00  0.00    +0.019 A 
ATOM      8  C   UNL     1       1.790   0.352  -0.433  0.00  0.00    +0.096 A 
ATOM      9  N   UNL     1       1.967   1.665  -0.111  0.00  0.00    -0.267 N 
ATOM     10  C   UNL     1       3.204   2.201  -0.190  0.00  0.00    +0.267 A 
ATOM     11  O   UNL     1       4.152   1.524  -0.543  0.00  0.00    -0.267 OA
ATOM     12  C   UNL     1      -1.554   2.686   0.795  0.00  0.00    +0.047 C 
ENDROOT
BRANCH   2  13
ATOM     13  N   UNL     1       2.364   5.640   0.888  0.00  0.00    -0.318 N 
ATOM     14  C   UNL     1       3.209   5.807   2.078  0.00  0.00    +0.088 C 
ATOM     15  C   UNL     1       3.385   7.299   2.371  0.00  0.00    -0.060 C 
ATOM     16  C   UNL     1       1.221   7.748   1.384  0.00  0.00    -0.060 C 
ATOM     17  C   UNL     1       1.045   6.256   1.092  0.00  0.00    +0.088 C 
ATOM     18  N   UNL     1       2.054   7.901   2.596  0.00  0.00    +0.382 N 
ATOM     19  H   UNL     1       1.597   7.418   3.378  0.00  0.00    -0.082 HD
BRANCH  18  20
ATOM     20  C   UNL     1       2.197   9.333   2.933  0.00  0.00    -0.082 C 
ATOM     21  C   UNL     1       2.867   9.454   4.303  0.00  0.00    -0.017 C 
ENDBRANCH  18  20
ENDBRANCH   2  13
BRANCH   1  23
ATOM     22  C   UNL     1       4.837   5.306  -0.697  0.00  0.00    +0.114 C 
ATOM     23  C   UNL     1       4.648   4.171   0.080  0.00  0.00    +0.040 C 
BRANCH  22  25
ATOM     24  N   UNL     1       6.323   7.083  -1.458  0.00  0.00    -0.311 N 
ATOM     25  C   UNL     1       6.139   5.981  -0.704  0.00  0.00    +0.254 C 
ATOM     26  O   UNL     1       7.054   5.546  -0.029  0.00  0.00    -0.269 OA
ATOM     27  H   UNL     1       5.594   7.430  -1.996  0.00  0.00    +0.149 HD
BRANCH  24  29
ATOM     28  C   UNL     1       7.564   8.970  -2.396  0.00  0.00    +0.024 C 
ATOM     29  C   UNL     1       7.624   7.757  -1.466  0.00  0.00    +0.101 C 
ENDBRANCH  24  29
ENDBRANCH  22  25
BRANCH  22  30
ATOM     30  C   UNL     1       3.761   5.818  -1.491  0.00  0.00    +0.104 C 
ATOM     31  N   UNL     1       2.907   6.224  -2.121  0.00  0.00    -0.191 NA
ENDBRANCH  22  30
ENDBRANCH   1  23
TORSDOF 6
