REMARK  Name = ZINC67289836
REMARK  6 active torsions:
REMARK  status: ('A' for Active; 'I' for Inactive)
REMARK    1  A    between atoms: C_1  and  C_2
REMARK    2  A    between atoms: C_5  and  N_21
REMARK    3  A    between atoms: C_7  and  N_8
REMARK    4  A    between atoms: N_11  and  C_12
REMARK    5  A    between atoms: C_12  and  C_14
REMARK    6  A    between atoms: C_12  and  C_15
REMARK                            x       y       z     vdW  Elec       q    Type
REMARK                         _______ _______ _______ _____ _____    ______ ____
ROOT
ATOM      1  C   UNL     1      -0.031   1.484  -0.051  0.00  0.00    +0.045 C 
ATOM      2  C   UNL     1       0.009  -0.021   0.016  0.00  0.00    -0.029 A 
ATOM      3  C   UNL     1       0.028  -0.764  -1.148  0.00  0.00    +0.007 A 
ATOM      4  C   UNL     1       0.065  -2.144  -1.090  0.00  0.00    +0.024 A 
ATOM      5  C   UNL     1       0.083  -2.788   0.140  0.00  0.00    +0.046 A 
ATOM      6  C   UNL     1       0.065  -2.045   1.311  0.00  0.00    +0.047 A 
ATOM      7  C   UNL     1       0.034  -0.659   1.250  0.00  0.00    +0.039 A 
ENDROOT
BRANCH   5   8
ATOM      8  N   UNL     1       0.120  -4.189   0.198  0.00  0.00    -0.210 N 
ATOM      9  C   UNL     1      -0.881  -4.958  -0.248  0.00  0.00    +0.227 C 
ATOM     10  O   UNL     1      -1.911  -4.554  -0.743  0.00  0.00    -0.275 OA
ATOM     11  C   UNL     1      -0.521  -6.413  -0.037  0.00  0.00    +0.106 C 
ATOM     12  C   UNL     1       0.875  -6.350   0.615  0.00  0.00    +0.106 C 
ATOM     13  C   UNL     1       1.160  -4.866   0.699  0.00  0.00    +0.227 C 
ATOM     14  O   UNL     1       2.170  -4.369   1.150  0.00  0.00    -0.275 OA
ENDBRANCH   5   8
BRANCH   7  15
ATOM     15  N   UNL     1       0.021   0.094   2.429  0.00  0.00    -0.269 N 
ATOM     16  C   UNL     1      -0.468  -0.441   3.565  0.00  0.00    +0.304 C 
ATOM     17  O   UNL     1      -0.831  -1.602   3.583  0.00  0.00    -0.252 OA
ATOM     18  N   UNL     1      -0.554   0.309   4.681  0.00  0.00    -0.292 N 
ATOM     19  H   UNL     1       0.363   1.002   2.428  0.00  0.00    +0.156 HD
ATOM     20  H   UNL     1      -0.265   1.235   4.666  0.00  0.00    +0.151 HD
BRANCH  18  21
ATOM     21  C   UNL     1      -1.085  -0.272   5.916  0.00  0.00    +0.108 C 
ATOM     22  C   UNL     1      -2.612  -0.176   5.910  0.00  0.00    +0.033 C 
BRANCH  21  23
ATOM     23  C   UNL     1      -0.539   0.481   7.102  0.00  0.00    +0.011 A 
ATOM     24  C   UNL     1      -0.112   0.001   8.294  0.00  0.00    +0.014 A 
ATOM     25  C   UNL     1       0.355   0.888   9.247  0.00  0.00    +0.028 A 
ATOM     26  C   UNL     1       0.370   2.214   8.958  0.00  0.00    +0.078 A 
ATOM     27  S   UNL     1      -0.281   2.237   7.296  0.00  0.00    -0.080 S 
ATOM     28 CL   UNL     1       0.893   3.542   9.946  0.00  0.00    -0.076 Cl
ENDBRANCH  21  23
ENDBRANCH  18  21
ENDBRANCH   7  15
TORSDOF 4
