REMARK  Name = ZINC37696994
REMARK  4 active torsions:
REMARK  status: ('A' for Active; 'I' for Inactive)
REMARK    1  A    between atoms: C_4  and  S_10
REMARK    2  A    between atoms: C_5  and  N_7
REMARK    3  A    between atoms: S_10  and  C_11
REMARK    4  A    between atoms: C_17  and  O_19
REMARK                            x       y       z     vdW  Elec       q    Type
REMARK                         _______ _______ _______ _____ _____    ______ ____
ROOT
ATOM      1  C   UNL     1      -0.016   1.379   0.021  0.00  0.00    +0.002 A 
ATOM      2  C   UNL     1       1.157   2.072  -0.218  0.00  0.00    +0.001 A 
ATOM      3  C   UNL     1       2.364   1.403  -0.238  0.00  0.00    +0.017 A 
ATOM      4  C   UNL     1       2.400   0.032  -0.017  0.00  0.00    +0.038 A 
ATOM      5  C   UNL     1       1.220  -0.661   0.224  0.00  0.00    +0.140 A 
ATOM      6  C   UNL     1       0.016   0.015   0.242  0.00  0.00    +0.034 A 
ENDROOT
BRANCH   5   7
ATOM      7  N   UNL     1       1.254  -2.122   0.460  0.00  0.00    +0.058 N 
ATOM      8  O   UNL     1       0.226  -2.724   0.669  0.00  0.00    -0.126 OA
ATOM      9  O   UNL     1       2.308  -2.713   0.443  0.00  0.00    -0.126 OA
ENDBRANCH   5   7
BRANCH   4  10
ATOM     10  S   UNL     1       3.939  -0.827  -0.042  0.00  0.00    -0.117 S 
BRANCH  10  11
ATOM     11  C   UNL     1       5.175   0.492  -0.201  0.00  0.00    +0.080 C 
ATOM     12  C   UNL     1       5.233   1.296   1.100  0.00  0.00    +0.017 C 
ATOM     13  C   UNL     1       6.275   2.408   0.966  0.00  0.00    +0.001 C 
ATOM     14  C   UNL     1       7.647   1.790   0.686  0.00  0.00    +0.003 C 
ATOM     15  C   UNL     1       7.588   0.987  -0.615  0.00  0.00    +0.032 C 
ATOM     16  C   UNL     1       6.546  -0.126  -0.481  0.00  0.00    +0.128 C 
BRANCH  16  17
ATOM     17  O   UNL     1       6.492  -0.876  -1.695  0.00  0.00    -0.391 OA
ATOM     18  H   UNL     1       7.328  -1.297  -1.936  0.00  0.00    +0.210 HD
ENDBRANCH  16  17
ENDBRANCH  10  11
ENDBRANCH   4  10
TORSDOF 4
