REMARK  Name = ZINC65508834
REMARK  6 active torsions:
REMARK  status: ('A' for Active; 'I' for Inactive)
REMARK    1  A    between atoms: C_1  and  C_2
REMARK    2  A    between atoms: N_10  and  C_11
REMARK    3  A    between atoms: C_11  and  C_12
REMARK    4  A    between atoms: C_12  and  N_13
REMARK    5  A    between atoms: C_14  and  C_16
REMARK    6  A    between atoms: N_21  and  C_23
REMARK                            x       y       z     vdW  Elec       q    Type
REMARK                         _______ _______ _______ _____ _____    ______ ____
ROOT
ATOM      1  N   UNL     1       6.105  -1.948  -0.039  0.00  0.00    -0.314 N 
ATOM      2  C   UNL     1       7.303  -2.565  -0.049  0.00  0.00    +0.214 C 
ATOM      3  O   UNL     1       7.362  -3.777  -0.056  0.00  0.00    -0.276 OA
ATOM      4  H   UNL     1       6.059  -0.980  -0.033  0.00  0.00    +0.149 HD
ENDROOT
BRANCH   2   5
ATOM      5  C   UNL     1       8.571  -1.750  -0.050  0.00  0.00    +0.058 C 
ATOM      6  C   UNL     1       8.605  -0.861  -1.296  0.00  0.00    +0.009 C 
ATOM      7  C   UNL     1       9.931  -0.095  -1.329  0.00  0.00    -0.018 C 
ATOM      8  C   UNL     1      11.091  -1.093  -1.296  0.00  0.00    -0.078 C 
ATOM      9  N   UNL     1      11.017  -1.894  -0.069  0.00  0.00    +0.382 N 
ATOM     10  C   UNL     1       9.781  -2.686  -0.064  0.00  0.00    -0.066 C 
ATOM     11  H   UNL     1      11.025  -1.282   0.733  0.00  0.00    -0.081 HD
BRANCH   9  12
ATOM     12  C   UNL     1      12.175  -2.796  -0.004  0.00  0.00    -0.069 C 
ATOM     13  C   UNL     1      12.099  -3.633   1.274  0.00  0.00    -0.015 C 
ATOM     14  C   UNL     1      13.305  -4.572   1.342  0.00  0.00    -0.002 C 
ATOM     15  C   UNL     1      14.594  -3.748   1.347  0.00  0.00    -0.000 C 
ATOM     16  C   UNL     1      14.669  -2.911   0.068  0.00  0.00    -0.002 C 
ATOM     17  C   UNL     1      13.463  -1.972   0.001  0.00  0.00    -0.015 C 
ENDBRANCH   9  12
ENDBRANCH   2   5
BRANCH   1  18
ATOM     18  C   UNL     1       4.873  -2.741  -0.038  0.00  0.00    +0.123 C 
BRANCH  18  19
ATOM     19  C   UNL     1       3.664  -1.804  -0.026  0.00  0.00    +0.123 C 
BRANCH  19  29
ATOM     20  C   UNL     1      -0.018   1.503   0.010  0.00  0.00    +0.066 C 
ATOM     21  C   UNL     1       0.002  -0.004   0.002  0.00  0.00    +0.047 A 
ATOM     22  C   UNL     1      -1.171  -0.701   0.004  0.00  0.00    +0.093 A 
ATOM     23  C   UNL     1      -1.126  -2.107  -0.004  0.00  0.00    +0.253 A 
ATOM     24  O   UNL     1      -2.156  -2.762  -0.004  0.00  0.00    -0.268 OA
ATOM     25  N   UNL     1       0.078  -2.717  -0.014  0.00  0.00    -0.295 N 
ATOM     26  H   UNL     1       0.132  -3.686  -0.020  0.00  0.00    +0.172 HD
ATOM     27  C   UNL     1       1.215  -1.970  -0.015  0.00  0.00    +0.196 A 
ATOM     28  N   UNL     1       1.164  -0.653  -0.013  0.00  0.00    -0.221 NA
ATOM     29  N   UNL     1       2.432  -2.597  -0.025  0.00  0.00    -0.313 N 
ATOM     30  H   UNL     1       2.478  -3.566  -0.031  0.00  0.00    +0.149 HD
ENDBRANCH  19  29
ENDBRANCH  18  19
ENDBRANCH   1  18
TORSDOF 5
