REMARK  Name = ZINC12802212
REMARK  10 active torsions:
REMARK  status: ('A' for Active; 'I' for Inactive)
REMARK    1  A    between atoms: C_1  and  C_2
REMARK    2  A    between atoms: C_3  and  S_23
REMARK    3  A    between atoms: C_4  and  C_22
REMARK    4  A    between atoms: N_5  and  C_7
REMARK    5  A    between atoms: C_7  and  C_9
REMARK    6  A    between atoms: C_7  and  C_10
REMARK    7  A    between atoms: S_23  and  N_26
REMARK    8  A    between atoms: N_26  and  C_27
REMARK    9  A    between atoms: N_26  and  C_28
REMARK   10  A    between atoms: C_28  and  C_29
REMARK                            x       y       z     vdW  Elec       q    Type
REMARK                         _______ _______ _______ _____ _____    ______ ____
ROOT
ATOM      1  C   UNL     1       3.374   0.744  -0.745  0.00  0.00    +0.069 C 
ATOM      2  C   UNL     1       1.881   0.776  -0.539  0.00  0.00    +0.087 A 
ATOM      3  C   UNL     1       1.041  -0.339  -0.456  0.00  0.00    +0.149 A 
ATOM      4  C   UNL     1      -0.223   0.106  -0.268  0.00  0.00    +0.064 A 
ATOM      5  N   UNL     1      -0.184   1.454  -0.234  0.00  0.00    -0.255 N 
ATOM      6  N   UNL     1       1.148   1.851  -0.406  0.00  0.00    -0.174 NA
ATOM      7  C   UNL     1      -1.454  -0.751  -0.123  0.00  0.00    +0.067 C 
ENDROOT
BRANCH   3   8
ATOM      8  S   UNL     1       1.540  -2.025  -0.574  0.00  0.00    +0.064 S 
ATOM      9  O   UNL     1       2.903  -2.074  -0.174  0.00  0.00    -0.153 OA
ATOM     10  O   UNL     1       0.530  -2.793   0.065  0.00  0.00    -0.153 OA
BRANCH   8  11
ATOM     11  N   UNL     1       1.502  -2.435  -2.178  0.00  0.00    -0.172 NA
ATOM     12  C   UNL     1       0.242  -2.851  -2.799  0.00  0.00    +0.132 C 
BRANCH  11  13
ATOM     13  C   UNL     1       2.730  -2.381  -2.977  0.00  0.00    +0.183 C 
BRANCH  13  14
ATOM     14  C   UNL     1       3.356  -3.751  -3.028  0.00  0.00    +0.120 A 
ATOM     15  C   UNL     1       3.184  -4.659  -4.006  0.00  0.00    +0.046 A 
ATOM     16  C   UNL     1       3.949  -5.793  -3.651  0.00  0.00    +0.041 A 
ATOM     17  C   UNL     1       4.543  -5.511  -2.477  0.00  0.00    +0.195 A 
ATOM     18  O   UNL     1       4.184  -4.271  -2.107  0.00  0.00    -0.466 OA
ENDBRANCH  13  14
ENDBRANCH  11  13
ENDBRANCH   8  11
ENDBRANCH   3   8
BRANCH   5  19
ATOM     19  C   UNL     1      -1.333   2.345  -0.054  0.00  0.00    +0.190 C 
ATOM     20  C   UNL     1      -1.130   3.191   1.204  0.00  0.00    +0.042 C 
BRANCH  19  21
ATOM     21  C   UNL     1      -1.459   3.250  -1.253  0.00  0.00    +0.240 C 
ATOM     22  O   UNL     1      -0.667   3.159  -2.167  0.00  0.00    -0.273 OA
ATOM     23  N   UNL     1      -2.451   4.160  -1.309  0.00  0.00    -0.295 N 
ATOM     24  C   UNL     1      -2.598   5.063  -2.463  0.00  0.00    +0.113 C 
ATOM     25  C   UNL     1      -3.928   4.729  -3.147  0.00  0.00    +0.054 C 
ATOM     26  C   UNL     1      -5.040   4.631  -2.136  0.00  0.00    -0.041 A 
ATOM     27  C   UNL     1      -6.345   4.753  -2.600  0.00  0.00    +0.004 A 
ATOM     28  C   UNL     1      -7.410   4.661  -1.729  0.00  0.00    +0.000 A 
ATOM     29  C   UNL     1      -7.181   4.444  -0.383  0.00  0.00    +0.000 A 
ATOM     30  C   UNL     1      -5.888   4.327   0.081  0.00  0.00    +0.005 A 
ATOM     31  C   UNL     1      -4.814   4.423  -0.794  0.00  0.00    -0.027 A 
ATOM     32  C   UNL     1      -3.425   4.295  -0.220  0.00  0.00    +0.143 C 
ENDBRANCH  19  21
ENDBRANCH   5  19
TORSDOF 6
