REMARK  Name = ZINC12833079
REMARK  13 active torsions:
REMARK  status: ('A' for Active; 'I' for Inactive)
REMARK    1  A    between atoms: C_1  and  C_2
REMARK    2  A    between atoms: C_5  and  C_33
REMARK    3  A    between atoms: C_9  and  C_14
REMARK    4  A    between atoms: C_14  and  N_65
REMARK    5  A    between atoms: C_15  and  C_16
REMARK    6  A    between atoms: C_15  and  N_65
REMARK    7  A    between atoms: C_16  and  C_17
REMARK    8  A    between atoms: C_23  and  C_24
REMARK    9  A    between atoms: C_23  and  N_65
REMARK   10  A    between atoms: N_28  and  C_29
REMARK   11  A    between atoms: C_29  and  C_30
REMARK   12  A    between atoms: C_29  and  C_31
REMARK   13  A    between atoms: C_29  and  C_32
REMARK                            x       y       z     vdW  Elec       q    Type
REMARK                         _______ _______ _______ _____ _____    ______ ____
ROOT
ATOM      1  N   UNL     1      -0.301  -1.125   2.218  0.00  0.00    +0.387 N 
ATOM      2  H   UNL     1      -0.891  -1.746   1.652  0.00  0.00    -0.081 HD
ENDROOT
BRANCH   1   3
ATOM      3  C   UNL     1      -0.586  -1.364   3.648  0.00  0.00    -0.037 C 
BRANCH   3  12
ATOM      4  C   UNL     1       2.767  -4.936   5.415  0.00  0.00    +0.044 C 
ATOM      5  C   UNL     1       1.477  -5.649   5.099  0.00  0.00    -0.041 A 
ATOM      6  C   UNL     1       1.373  -6.997   5.298  0.00  0.00    +0.004 A 
ATOM      7  C   UNL     1       0.190  -7.663   5.009  0.00  0.00    +0.005 A 
ATOM      8  C   UNL     1      -0.901  -6.980   4.517  0.00  0.00    -0.026 A 
ATOM      9  C   UNL     1      -0.818  -5.607   4.307  0.00  0.00    +0.052 A 
ATOM     10  C   UNL     1       0.383  -4.935   4.601  0.00  0.00    +0.002 A 
ATOM     11  C   UNL     1       0.461  -3.490   4.376  0.00  0.00    +0.017 A 
ATOM     12  C   UNL     1      -0.632  -2.850   3.891  0.00  0.00    +0.001 A 
ATOM     13  C   UNL     1      -1.814  -3.571   3.618  0.00  0.00    +0.251 A 
ATOM     14  O   UNL     1      -2.787  -2.975   3.187  0.00  0.00    -0.268 OA
ATOM     15  N   UNL     1      -1.894  -4.898   3.816  0.00  0.00    -0.322 N 
ATOM     16  H   UNL     1      -2.721  -5.363   3.615  0.00  0.00    +0.169 HD
ATOM     17  C   UNL     1      -2.179  -7.716   4.208  0.00  0.00    +0.046 C 
ENDBRANCH   3  12
ENDBRANCH   1   3
BRANCH   1  18
ATOM     18  C   UNL     1      -0.609   0.278   1.869  0.00  0.00    -0.073 C 
BRANCH  18  19
ATOM     19  C   UNL     1      -0.522   0.440   0.350  0.00  0.00    +0.016 C 
BRANCH  19  20
ATOM     20  C   UNL     1      -0.855   1.861  -0.024  0.00  0.00    -0.049 A 
ATOM     21  C   UNL     1      -2.163   2.216  -0.298  0.00  0.00    +0.003 A 
ATOM     22  C   UNL     1      -2.469   3.521  -0.637  0.00  0.00    +0.000 A 
ATOM     23  C   UNL     1      -1.466   4.469  -0.710  0.00  0.00    +0.000 A 
ATOM     24  C   UNL     1      -0.157   4.113  -0.441  0.00  0.00    +0.000 A 
ATOM     25  C   UNL     1       0.148   2.810  -0.097  0.00  0.00    +0.003 A 
ENDBRANCH  19  20
ENDBRANCH  18  19
ENDBRANCH   1  18
BRANCH   1  26
ATOM     26  C   UNL     1       1.119  -1.417   1.929  0.00  0.00    +0.001 C 
BRANCH  26  27
ATOM     27  C   UNL     1       2.016  -0.462   2.672  0.00  0.00    +0.136 A 
ATOM     28  N   UNL     1       1.649   0.420   3.570  0.00  0.00    -0.115 NA
ATOM     29  N   UNL     1       2.703   1.042   3.972  0.00  0.00    -0.023 NA
ATOM     30  N   UNL     1       3.734   0.580   3.354  0.00  0.00    -0.043 NA
ATOM     31  N   UNL     1       3.352  -0.352   2.548  0.00  0.00    -0.226 N 
BRANCH  31  32
ATOM     32  C   UNL     1       4.211  -1.141   1.661  0.00  0.00    +0.059 C 
ATOM     33  C   UNL     1       3.886  -0.804   0.204  0.00  0.00    +0.036 C 
ATOM     34  C   UNL     1       5.678  -0.812   1.946  0.00  0.00    +0.036 C 
ATOM     35  C   UNL     1       3.965  -2.631   1.906  0.00  0.00    +0.036 C 
ENDBRANCH  31  32
ENDBRANCH  26  27
ENDBRANCH   1  26
TORSDOF 8
