REMARK  Name = ZINC02282020
REMARK  8 active torsions:
REMARK  status: ('A' for Active; 'I' for Inactive)
REMARK    1  A    between atoms: C_1  and  C_2
REMARK    2  A    between atoms: C_2  and  O_3
REMARK    3  A    between atoms: O_3  and  C_4
REMARK    4  A    between atoms: C_4  and  C_6
REMARK    5  A    between atoms: C_7  and  C_37
REMARK    6  A    between atoms: N_21  and  C_24
REMARK    7  A    between atoms: C_24  and  C_25
REMARK    8  A    between atoms: C_29  and  C_31
REMARK                            x       y       z     vdW  Elec       q    Type
REMARK                         _______ _______ _______ _____ _____    ______ ____
ROOT
ATOM      1  C   UNL     1      -0.918   2.909   1.431  0.00  0.00    +0.085 C 
ATOM      2  C   UNL     1      -0.718   1.572   1.248  0.00  0.00    +0.053 C 
ATOM      3  N   UNL     1      -1.159   0.694   2.142  0.00  0.00    -0.228 NA
ATOM      4  C   UNL     1      -1.805   1.002   3.235  0.00  0.00    +0.178 A 
ATOM      5  N   UNL     1      -2.117   2.290   3.608  0.00  0.00    -0.275 N 
ATOM      6  C   UNL     1      -2.784   2.486   4.753  0.00  0.00    +0.269 A 
ATOM      7  O   UNL     1      -3.082   3.604   5.124  0.00  0.00    -0.266 OA
ATOM      8  C   UNL     1      -3.147   1.292   5.551  0.00  0.00    +0.093 A 
ATOM      9  C   UNL     1      -3.825   1.212   6.752  0.00  0.00    +0.065 C 
ATOM     10  C   UNL     1      -4.215   2.325   7.641  0.00  0.00    +0.010 A 
ATOM     11  C   UNL     1      -4.044   3.705   7.572  0.00  0.00    +0.010 A 
ATOM     12  C   UNL     1      -4.532   4.507   8.584  0.00  0.00    +0.001 A 
ATOM     13  C   UNL     1      -5.189   3.939   9.663  0.00  0.00    +0.002 A 
ATOM     14  C   UNL     1      -5.372   2.573   9.737  0.00  0.00    +0.024 A 
ATOM     15  C   UNL     1      -4.883   1.748   8.731  0.00  0.00    +0.045 A 
ATOM     16  N   UNL     1      -4.917   0.367   8.570  0.00  0.00    -0.258 N 
ATOM     17  C   UNL     1      -4.313  -0.008   7.429  0.00  0.00    +0.253 C 
ATOM     18  O   UNL     1      -4.189  -1.149   7.026  0.00  0.00    -0.270 OA
ATOM     19  S   UNL     1      -2.469  -0.014   4.540  0.00  0.00    -0.045 S 
ATOM     20  C   UNL     1      -1.664   3.354   2.668  0.00  0.00    +0.162 C 
ATOM     21  C   UNL     1       0.016   1.087   0.025  0.00  0.00    +0.066 C 
ENDROOT
BRANCH  20  22
ATOM     22  C   UNL     1      -0.766   4.295   3.431  0.00  0.00    -0.020 A 
ATOM     23  C   UNL     1       0.135   3.795   4.352  0.00  0.00    +0.006 A 
ATOM     24  C   UNL     1       0.962   4.657   5.048  0.00  0.00    +0.000 A 
ATOM     25  C   UNL     1       0.879   6.020   4.830  0.00  0.00    +0.000 A 
ATOM     26  C   UNL     1      -0.026   6.520   3.912  0.00  0.00    +0.000 A 
ATOM     27  C   UNL     1      -0.849   5.657   3.213  0.00  0.00    +0.006 A 
ENDBRANCH  20  22
BRANCH   1  28
ATOM     28  C   UNL     1      -0.450   3.847   0.492  0.00  0.00    +0.339 C 
ATOM     29  O   UNL     1       0.145   3.469  -0.501  0.00  0.00    -0.245 OA
BRANCH  28  30
ATOM     30  O   UNL     1      -0.659   5.166   0.693  0.00  0.00    -0.462 OA
BRANCH  30  32
ATOM     31  C   UNL     1      -0.487   7.501   0.096  0.00  0.00    +0.048 C 
ATOM     32  C   UNL     1      -0.156   6.061  -0.301  0.00  0.00    +0.229 C 
ENDBRANCH  30  32
ENDBRANCH  28  30
ENDBRANCH   1  28
BRANCH  16  33
ATOM     33  C   UNL     1      -5.532  -0.560   9.523  0.00  0.00    +0.209 C 
BRANCH  33  34
ATOM     34  C   UNL     1      -4.506  -0.989  10.540  0.00  0.00    +0.228 C 
ATOM     35  O   UNL     1      -3.372  -0.562  10.475  0.00  0.00    -0.274 OA
ATOM     36  N   UNL     1      -4.847  -1.848  11.521  0.00  0.00    -0.328 N 
ATOM     37  H   UNL     1      -5.754  -2.189  11.572  0.00  0.00    +0.145 HD
ATOM     38  H   UNL     1      -4.187  -2.123  12.176  0.00  0.00    +0.145 HD
ENDBRANCH  33  34
ENDBRANCH  16  33
TORSDOF 6
