REMARK  Name = ZINC63428439
REMARK  4 active torsions:
REMARK  status: ('A' for Active; 'I' for Inactive)
REMARK    1  A    between atoms: C_3  and  C_8
REMARK    2  A    between atoms: C_8  and  O_9
REMARK    3  A    between atoms: O_9  and  C_10
REMARK    4  A    between atoms: C_13  and  C_16
REMARK                            x       y       z     vdW  Elec       q    Type
REMARK                         _______ _______ _______ _____ _____    ______ ____
ROOT
ATOM      1  C   UNL     1       8.895   5.279   2.031  0.00  0.00    +0.047 C 
ATOM      2  C   UNL     1       9.868   4.941   0.897  0.00  0.00    +0.105 C 
ATOM      3  C   UNL     1       9.424   5.562  -0.394  0.00  0.00    +0.219 C 
ATOM      4  O   UNL     1       9.861   5.107  -1.429  0.00  0.00    -0.275 OA
ATOM      5  N   UNL     1       8.570   6.593  -0.467  0.00  0.00    -0.273 N 
ATOM      6  C   UNL     1       7.982   7.098   0.657  0.00  0.00    +0.117 C 
ATOM      7  N   UNL     1       6.905   7.825   0.576  0.00  0.00    -0.205 NA
ATOM      8  C   UNL     1       6.240   8.240   1.661  0.00  0.00    +0.206 C 
ATOM      9  N   UNL     1       6.611   7.902   2.887  0.00  0.00    -0.147 NA
ATOM     10  C   UNL     1       7.709   7.194   3.113  0.00  0.00    +0.250 C 
ATOM     11  O   UNL     1       7.989   6.874   4.252  0.00  0.00    -0.273 OA
ATOM     12  C   UNL     1       8.611   6.783   1.992  0.00  0.00    +0.148 C 
ATOM     13  N   UNL     1       5.142   9.039   1.499  0.00  0.00    -0.329 N 
ATOM     14  H   UNL     1       8.366   6.985  -1.331  0.00  0.00    +0.156 HD
ATOM     15  H   UNL     1       4.856   9.296   0.609  0.00  0.00    +0.145 HD
ATOM     16  H   UNL     1       4.648   9.348   2.275  0.00  0.00    +0.145 HD
ENDROOT
BRANCH   1  20
ATOM     17  C   UNL     1       5.252   3.110   1.494  0.00  0.00    +0.121 A 
ATOM     18  C   UNL     1       5.802   3.818   0.435  0.00  0.00    +0.046 A 
ATOM     19  C   UNL     1       6.980   4.518   0.611  0.00  0.00    +0.007 A 
ATOM     20  C   UNL     1       7.611   4.514   1.842  0.00  0.00    -0.042 A 
ATOM     21  C   UNL     1       7.065   3.809   2.898  0.00  0.00    +0.007 A 
ATOM     22  C   UNL     1       5.884   3.112   2.729  0.00  0.00    +0.046 A 
BRANCH  17  23
ATOM     23  O   UNL     1       4.094   2.421   1.323  0.00  0.00    -0.487 OA
BRANCH  23  24
ATOM     24  C   UNL     1       3.499   2.463   0.025  0.00  0.00    +0.264 C 
BRANCH  24  27
ATOM     25  C   UNL     1      -0.137   1.497   0.345  0.00  0.00    +0.002 A 
ATOM     26  C   UNL     1       1.026   2.244   0.344  0.00  0.00    +0.007 A 
ATOM     27  C   UNL     1       2.232   1.648   0.026  0.00  0.00    -0.009 A 
ATOM     28  C   UNL     1       2.275   0.303  -0.292  0.00  0.00    +0.027 A 
ATOM     29  C   UNL     1       1.112  -0.446  -0.291  0.00  0.00    +0.041 A 
ATOM     30  C   UNL     1      -0.095   0.152   0.028  0.00  0.00    +0.020 A 
ATOM     31 CL   UNL     1       1.165  -2.134  -0.690  0.00  0.00    -0.084 Cl
ENDBRANCH  24  27
ENDBRANCH  23  24
ENDBRANCH  17  23
ENDBRANCH   1  20
TORSDOF 4
