REMARK  Name = ZINC39469719
REMARK  3 active torsions:
REMARK  status: ('A' for Active; 'I' for Inactive)
REMARK    1  A    between atoms: C_4  and  O_7
REMARK    2  A    between atoms: O_7  and  S_8
REMARK    3  A    between atoms: S_8  and  P_11
REMARK                            x       y       z     vdW  Elec       q    Type
REMARK                         _______ _______ _______ _____ _____    ______ ____
ROOT
ATOM      1  P   UNL     1       3.000  -2.544   2.135  0.00  0.00    +0.458 P 
ATOM      2  O   UNL     1       1.582  -2.144   2.276  0.00  0.00    -0.243 OA
ATOM      3  N   UNL     1       3.611  -3.018   3.593  0.00  0.00    -0.159 NA
ATOM      4  N   UNL     1       4.735  -3.819   3.588  0.00  0.00    -0.228 NA
ATOM      5  C   UNL     1       5.033  -4.162   4.989  0.00  0.00    +0.111 C 
ATOM      6  C   UNL     1       6.290  -5.014   5.089  0.00  0.00    +0.036 C 
ATOM      7  C   UNL     1       7.485  -4.264   4.565  0.00  0.00    +0.001 C 
ATOM      8  C   UNL     1       8.557  -4.943   4.159  0.00  0.00    +0.072 C 
ATOM      9  C   UNL     1       8.558  -6.415   4.244  0.00  0.00    +0.138 C 
ATOM     10  C   UNL     1       7.402  -7.075   4.299  0.00  0.00    +0.017 C 
ATOM     11  C   UNL     1       6.111  -6.294   4.267  0.00  0.00    +0.024 C 
ATOM     12  C   UNL     1       5.790  -5.905   2.823  0.00  0.00    +0.031 C 
ATOM     13  C   UNL     1       4.541  -5.019   2.768  0.00  0.00    +0.100 C 
ATOM     14  C   UNL     1       4.307  -4.661   1.295  0.00  0.00    +0.191 C 
ATOM     15  O   UNL     1       3.124  -3.852   1.175  0.00  0.00    -0.297 OA
ATOM     16  F   UNL     1       9.726  -7.093   4.264  0.00  0.00    -0.204 F 
ATOM     17 CL   UNL     1       9.942  -4.101   3.537  0.00  0.00    -0.081 Cl
ATOM     18  H   UNL     1       3.194  -2.744   4.425  0.00  0.00    +0.152 HD
ENDROOT
BRANCH   1  19
ATOM     19  S   UNL     1       4.140  -0.941   1.346  0.00  0.00    +0.211 S 
ATOM     20  O   UNL     1       5.458  -1.436   1.154  0.00  0.00    -0.126 OA
ATOM     21  O   UNL     1       3.863   0.192   2.158  0.00  0.00    -0.126 OA
BRANCH  19  22
ATOM     22  O   UNL     1       3.586  -0.632  -0.037  0.00  0.00    -0.339 OA
BRANCH  22  26
ATOM     23  C   UNL     1      -0.017   1.378   0.010  0.00  0.00    +0.000 A 
ATOM     24  C   UNL     1       1.170   2.088   0.002  0.00  0.00    +0.004 A 
ATOM     25  C   UNL     1       2.377   1.417  -0.013  0.00  0.00    +0.048 A 
ATOM     26  C   UNL     1       2.399   0.030  -0.021  0.00  0.00    +0.157 A 
ATOM     27  C   UNL     1       1.207  -0.680  -0.013  0.00  0.00    +0.048 A 
ATOM     28  C   UNL     1       0.002  -0.004   0.002  0.00  0.00    +0.004 A 
ENDBRANCH  22  26
ENDBRANCH  19  22
ENDBRANCH   1  19
TORSDOF 3
