REMARK  Name = ZINC64045176
REMARK  12 active torsions:
REMARK  status: ('A' for Active; 'I' for Inactive)
REMARK    1  A    between atoms: C_1  and  C_2
REMARK    2  A    between atoms: C_2  and  O_3
REMARK    3  A    between atoms: O_3  and  C_4
REMARK    4  A    between atoms: C_8  and  C_11
REMARK    5  A    between atoms: C_9  and  O_10
REMARK    6  A    between atoms: C_11  and  N_12
REMARK    7  A    between atoms: C_14  and  N_23
REMARK    8  A    between atoms: C_17  and  C_19
REMARK    9  A    between atoms: C_19  and  O_21
REMARK   10  A    between atoms: O_21  and  C_22
REMARK   11  A    between atoms: C_24  and  C_26
REMARK   12  A    between atoms: C_28  and  C_37
REMARK                            x       y       z     vdW  Elec       q    Type
REMARK                         _______ _______ _______ _____ _____    ______ ____
ROOT
ATOM      1  N   UNL     1       3.688  -4.339  -3.579  0.00  0.00    -0.284 NA
ATOM      2  C   UNL     1       4.184  -5.244  -2.521  0.00  0.00    +0.107 C 
ATOM      3  C   UNL     1       5.598  -5.666  -2.992  0.00  0.00    +0.089 C 
ATOM      4  C   UNL     1       5.394  -5.787  -4.525  0.00  0.00    +0.054 C 
ATOM      5  C   UNL     1       4.397  -4.651  -4.834  0.00  0.00    +0.168 C 
ENDROOT
BRANCH   3   6
ATOM      6  N   UNL     1       5.983  -6.954  -2.409  0.00  0.00    -0.309 N 
ATOM      7  C   UNL     1       6.565  -6.998  -1.195  0.00  0.00    +0.240 C 
ATOM      8  O   UNL     1       6.771  -5.970  -0.584  0.00  0.00    -0.273 OA
ATOM      9  H   UNL     1       5.818  -7.776  -2.898  0.00  0.00    +0.149 HD
BRANCH   7  10
ATOM     10  C   UNL     1       6.961  -8.323  -0.596  0.00  0.00    +0.193 C 
ATOM     11  C   UNL     1       5.758  -8.990   0.033  0.00  0.00    -0.033 C 
ATOM     12  C   UNL     1       6.052  -9.131   1.346  0.00  0.00    +0.001 A 
ATOM     13  C   UNL     1       5.306  -9.698   2.476  0.00  0.00    +0.030 A 
ATOM     14  C   UNL     1       5.875  -9.698   3.704  0.00  0.00    +0.042 A 
ATOM     15  C   UNL     1       7.157  -9.171   3.922  0.00  0.00    +0.022 A 
ATOM     16  C   UNL     1       7.902  -8.633   2.934  0.00  0.00    +0.027 A 
ATOM     17  C   UNL     1       7.402  -8.581   1.603  0.00  0.00    +0.043 A 
ATOM     18  N   UNL     1       7.924  -8.119   0.492  0.00  0.00    -0.370 N 
ATOM     19 CL   UNL     1       4.996 -10.367   5.043  0.00  0.00    -0.084 Cl
ATOM     20  C   UNL     1       4.489  -9.412  -0.662  0.00  0.00    +0.042 C 
ATOM     21  H   UNL     1       8.800  -7.710   0.403  0.00  0.00    +0.161 HD
ENDBRANCH   7  10
ENDBRANCH   3   6
BRANCH   5  22
ATOM     22  C   UNL     1       3.412  -5.104  -5.880  0.00  0.00    +0.324 C 
ATOM     23  O   UNL     1       2.602  -5.962  -5.617  0.00  0.00    -0.249 OA
BRANCH  22  24
ATOM     24  O   UNL     1       3.433  -4.556  -7.105  0.00  0.00    -0.467 OA
ATOM     25  C   UNL     1       2.471  -5.033  -8.047  0.00  0.00    +0.280 C 
ENDBRANCH  22  24
ENDBRANCH   5  22
BRANCH   1  26
ATOM     26  C   UNL     1       2.235  -4.473  -3.748  0.00  0.00    +0.124 C 
BRANCH  26  31
ATOM     27  C   UNL     1       0.720  -1.791  -1.549  0.00  0.00    +0.162 A 
ATOM     28  C   UNL     1       0.237  -2.547  -0.493  0.00  0.00    +0.049 A 
ATOM     29  C   UNL     1       0.401  -3.920  -0.494  0.00  0.00    +0.004 A 
ATOM     30  C   UNL     1       1.046  -4.541  -1.546  0.00  0.00    +0.009 A 
ATOM     31  C   UNL     1       1.531  -3.793  -2.603  0.00  0.00    +0.012 A 
ATOM     32  C   UNL     1       1.365  -2.417  -2.611  0.00  0.00    +0.163 A 
BRANCH  32  33
ATOM     33  O   UNL     1       1.835  -1.680  -3.652  0.00  0.00    -0.503 OA
ATOM     34  H   UNL     1       2.746  -1.374  -3.538  0.00  0.00    +0.292 HD
ENDBRANCH  32  33
BRANCH  27  35
ATOM     35  O   UNL     1       0.559  -0.440  -1.550  0.00  0.00    -0.489 OA
BRANCH  35  37
ATOM     36  C   UNL     1      -0.198   1.651  -0.605  0.00  0.00    +0.048 C 
ATOM     37  C   UNL     1      -0.113   0.134  -0.427  0.00  0.00    +0.226 C 
ENDBRANCH  35  37
ENDBRANCH  27  35
ENDBRANCH  26  31
ENDBRANCH   1  26
TORSDOF 9
