REMARK  Name = ZINC67542187
REMARK  8 active torsions:
REMARK  status: ('A' for Active; 'I' for Inactive)
REMARK    1  A    between atoms: C_1  and  C_2
REMARK    2  A    between atoms: C_2  and  C_3
REMARK    3  A    between atoms: C_3  and  C_4
REMARK    4  A    between atoms: C_4  and  N_5
REMARK    5  A    between atoms: C_6  and  C_8
REMARK    6  A    between atoms: C_12  and  C_28
REMARK    7  A    between atoms: N_18  and  C_19
REMARK    8  A    between atoms: C_24  and  N_25
REMARK                            x       y       z     vdW  Elec       q    Type
REMARK                         _______ _______ _______ _____ _____    ______ ____
ROOT
ATOM      1  C   UNL     1      -4.512  -4.476  -0.097  0.00  0.00    +0.092 C 
ATOM      2  C   UNL     1      -4.434  -5.996   0.056  0.00  0.00    +0.016 C 
ATOM      3  C   UNL     1      -5.844  -6.567   0.226  0.00  0.00    +0.023 C 
ATOM      4  C   UNL     1      -6.476  -5.985   1.494  0.00  0.00    +0.074 C 
ATOM      5  N   UNL     1      -6.424  -4.519   1.419  0.00  0.00    -0.282 N 
ATOM      6  C   UNL     1      -5.130  -3.869   1.167  0.00  0.00    +0.122 C 
ATOM      7  C   UNL     1      -7.542  -3.783   1.577  0.00  0.00    +0.307 C 
ATOM      8  O   UNL     1      -8.621  -4.332   1.683  0.00  0.00    -0.252 OA
ATOM      9  N   UNL     1      -7.463  -2.438   1.619  0.00  0.00    -0.267 N 
ATOM     10  C   UNL     1      -5.700  -6.467   2.722  0.00  0.00    +0.028 C 
ATOM     11  H   UNL     1      -6.613  -1.997   1.464  0.00  0.00    +0.156 HD
ENDROOT
BRANCH   9  12
ATOM     12  C   UNL     1      -8.608  -1.678   1.884  0.00  0.00    +0.065 A 
ATOM     13  C   UNL     1      -9.851  -2.116   1.446  0.00  0.00    +0.025 A 
ATOM     14  C   UNL     1     -10.979  -1.363   1.709  0.00  0.00    +0.002 A 
ATOM     15  C   UNL     1     -10.871  -0.175   2.409  0.00  0.00    +0.002 A 
ATOM     16  C   UNL     1      -9.635   0.263   2.846  0.00  0.00    +0.034 A 
ATOM     17  C   UNL     1      -8.504  -0.487   2.591  0.00  0.00    +0.147 A 
BRANCH  17  18
ATOM     18  N   UNL     1      -7.182  -0.020   3.065  0.00  0.00    +0.058 N 
ATOM     19  O   UNL     1      -7.075   1.068   3.582  0.00  0.00    -0.126 OA
ATOM     20  O   UNL     1      -6.209  -0.726   2.935  0.00  0.00    -0.126 OA
ENDBRANCH  17  18
ENDBRANCH   9  12
BRANCH   1  22
ATOM     21  N   UNL     1      -2.950  -2.591  -0.454  0.00  0.00    -0.315 N 
ATOM     22  C   UNL     1      -3.127  -3.918  -0.297  0.00  0.00    +0.218 C 
ATOM     23  O   UNL     1      -2.170  -4.663  -0.316  0.00  0.00    -0.275 OA
ATOM     24  H   UNL     1      -3.716  -1.995  -0.439  0.00  0.00    +0.149 HD
BRANCH  21  25
ATOM     25  C   UNL     1      -1.603  -2.049  -0.648  0.00  0.00    +0.104 C 
BRANCH  25  26
ATOM     26  C   UNL     1      -1.683  -0.528  -0.799  0.00  0.00    +0.018 C 
BRANCH  26  28
ATOM     27  C   UNL     1      -0.355   1.558  -1.154  0.00  0.00    +0.004 C 
ATOM     28  C   UNL     1      -0.276   0.038  -1.002  0.00  0.00    -0.002 C 
ENDBRANCH  26  28
ENDBRANCH  25  26
ENDBRANCH  21  25
ENDBRANCH   1  22
TORSDOF 6
