REMARK  Name = ZINC08836610
REMARK  6 active torsions:
REMARK  status: ('A' for Active; 'I' for Inactive)
REMARK    1  A    between atoms: C_9  and  S_23
REMARK    2  A    between atoms: C_10  and  N_22
REMARK    3  A    between atoms: N_11  and  C_14
REMARK    4  A    between atoms: C_14  and  C_15
REMARK    5  A    between atoms: C_15  and  C_16
REMARK    6  A    between atoms: S_23  and  C_26
REMARK                            x       y       z     vdW  Elec       q    Type
REMARK                         _______ _______ _______ _____ _____    ______ ____
ROOT
ATOM      1  C   UNL     1       5.987  -1.923  -0.069  0.00  0.00    +0.002 A 
ATOM      2  C   UNL     1       5.194  -3.069  -0.067  0.00  0.00    +0.002 A 
ATOM      3  C   UNL     1       3.837  -2.981  -0.053  0.00  0.00    +0.030 A 
ATOM      4  C   UNL     1       3.217  -1.717  -0.040  0.00  0.00    +0.092 A 
ATOM      5  C   UNL     1       4.024  -0.551  -0.041  0.00  0.00    +0.090 A 
ATOM      6  C   UNL     1       5.426  -0.685  -0.056  0.00  0.00    +0.030 A 
ATOM      7  N   UNL     1       3.463   0.662  -0.028  0.00  0.00    -0.240 NA
ATOM      8  C   UNL     1       2.144   0.772  -0.014  0.00  0.00    +0.135 A 
ATOM      9  C   UNL     1       1.243   1.863   0.000  0.00  0.00    +0.160 A 
ATOM     10  C   UNL     1      -0.017   1.368   0.010  0.00  0.00    +0.126 A 
ATOM     11  N   UNL     1       0.002  -0.004   0.002  0.00  0.00    -0.311 N 
ATOM     12  C   UNL     1       1.311  -0.437  -0.013  0.00  0.00    +0.163 A 
ATOM     13  N   UNL     1       1.881  -1.621  -0.024  0.00  0.00    -0.226 NA
ENDROOT
BRANCH  10  14
ATOM     14  N   UNL     1      -1.165   2.139   0.019  0.00  0.00    -0.343 N 
ATOM     15  H   UNL     1      -2.036   1.712   0.021  0.00  0.00    +0.144 HD
ATOM     16  H   UNL     1      -1.099   3.107   0.024  0.00  0.00    +0.144 HD
ENDBRANCH  10  14
BRANCH   9  17
ATOM     17  S   UNL     1       1.685   3.569   0.005  0.00  0.00    +0.030 S 
ATOM     18  O   UNL     1       2.987   3.653  -0.558  0.00  0.00    -0.164 OA
ATOM     19  O   UNL     1       0.576   4.277  -0.532  0.00  0.00    -0.164 OA
BRANCH  17  20
ATOM     20  C   UNL     1       1.831   4.065   1.689  0.00  0.00    +0.094 A 
ATOM     21  C   UNL     1       0.731   4.565   2.360  0.00  0.00    +0.029 A 
ATOM     22  C   UNL     1       0.844   4.949   3.683  0.00  0.00    +0.022 A 
ATOM     23  C   UNL     1       2.061   4.843   4.332  0.00  0.00    +0.041 A 
ATOM     24  C   UNL     1       3.163   4.348   3.659  0.00  0.00    +0.022 A 
ATOM     25  C   UNL     1       3.048   3.959   2.337  0.00  0.00    +0.029 A 
ATOM     26 CL   UNL     1       2.205   5.331   5.992  0.00  0.00    -0.084 Cl
ENDBRANCH  17  20
ENDBRANCH   9  17
BRANCH  11  27
ATOM     27  C   UNL     1      -1.180  -0.870   0.008  0.00  0.00    +0.129 C 
BRANCH  27  28
ATOM     28  C   UNL     1      -1.604  -1.164  -1.432  0.00  0.00    +0.052 C 
BRANCH  28  29
ATOM     29  C   UNL     1      -2.820  -2.054  -1.426  0.00  0.00    -0.072 C 
ATOM     30  C   UNL     1      -3.983  -1.494  -1.512  0.00  0.00    -0.028 C 
ATOM     31  C   UNL     1      -5.282  -2.246  -1.508  0.00  0.00    +0.027 C 
ATOM     32  C   UNL     1      -5.035  -3.725  -1.816  0.00  0.00    +0.004 C 
ATOM     33  C   UNL     1      -3.907  -4.228  -0.907  0.00  0.00    +0.005 C 
ATOM     34  C   UNL     1      -2.606  -3.536  -1.326  0.00  0.00    +0.030 C 
ENDBRANCH  28  29
ENDBRANCH  27  28
ENDBRANCH  11  27
TORSDOF 6
