REMARK  Name = ZINC39461252
REMARK  2 active torsions:
REMARK  status: ('A' for Active; 'I' for Inactive)
REMARK    1  A    between atoms: C_3  and  C_13
REMARK    2  A    between atoms: C_5  and  C_7
REMARK                            x       y       z     vdW  Elec       q    Type
REMARK                         _______ _______ _______ _____ _____    ______ ____
ROOT
ATOM      1  C   UNL     1      -0.017   1.379   0.010  0.00  0.00    +0.001 A 
ATOM      2  C   UNL     1       1.167   2.088   0.002  0.00  0.00    +0.010 A 
ATOM      3  C   UNL     1       2.384   1.407  -0.013  0.00  0.00    +0.001 A 
ATOM      4  C   UNL     1       2.397   0.013  -0.021  0.00  0.00    +0.016 A 
ATOM      5  C   UNL     1       1.206  -0.685  -0.013  0.00  0.00    -0.019 A 
ATOM      6  C   UNL     1       0.002  -0.004   0.002  0.00  0.00    +0.006 A 
ENDROOT
BRANCH   3   7
ATOM      7  C   UNL     1       3.659   2.163  -0.022  0.00  0.00    +0.080 A 
ATOM      8  C   UNL     1       3.647   3.549  -0.009  0.00  0.00    +0.098 A 
ATOM      9  C   UNL     1       4.872   4.233  -0.018  0.00  0.00    +0.253 A 
ATOM     10  N   UNL     1       6.016   3.519  -0.038  0.00  0.00    -0.295 N 
ATOM     11  C   UNL     1       5.973   2.159  -0.050  0.00  0.00    +0.194 A 
ATOM     12  N   UNL     1       4.829   1.509  -0.036  0.00  0.00    -0.216 NA
ATOM     13  N   UNL     1       7.145   1.451  -0.071  0.00  0.00    -0.329 N 
ATOM     14  O   UNL     1       4.902   5.453  -0.007  0.00  0.00    -0.268 OA
ATOM     15  H   UNL     1       7.995   1.919  -0.078  0.00  0.00    +0.145 HD
ATOM     16  H   UNL     1       7.126   0.481  -0.080  0.00  0.00    +0.145 HD
ATOM     17  H   UNL     1       6.872   3.975  -0.045  0.00  0.00    +0.172 HD
ENDBRANCH   3   7
BRANCH   5  18
ATOM     18  C   UNL     1       1.218  -2.192  -0.022  0.00  0.00    +0.153 C 
ATOM     19  C   UNL     1       0.903  -2.724  -1.409  0.00  0.00    +0.025 C 
ATOM     20  C   UNL     1      -0.221  -3.423  -1.238  0.00  0.00    +0.130 C 
ATOM     21  N   UNL     1      -0.619  -3.383   0.053  0.00  0.00    -0.186 NA
ATOM     22  N   UNL     1       0.118  -2.726   0.799  0.00  0.00    -0.298 N 
ATOM     23  H   UNL     1      -0.005  -2.587   1.751  0.00  0.00    +0.183 HD
ENDBRANCH   5  18
TORSDOF 2
