REMARK  Name = ZINC36030028
REMARK  12 active torsions:
REMARK  status: ('A' for Active; 'I' for Inactive)
REMARK    1  A    between atoms: C_1  and  C_2
REMARK    2  A    between atoms: C_2  and  C_3
REMARK    3  A    between atoms: C_12  and  C_24
REMARK    4  A    between atoms: N_16  and  C_17
REMARK    5  A    between atoms: C_17  and  C_18
REMARK    6  A    between atoms: C_18  and  N_19
REMARK    7  A    between atoms: N_19  and  C_20
REMARK    8  A    between atoms: N_19  and  C_22
REMARK    9  A    between atoms: C_20  and  C_21
REMARK   10  A    between atoms: C_22  and  C_23
REMARK   11  A    between atoms: C_24  and  C_25
REMARK   12  A    between atoms: C_24  and  C_26
REMARK                            x       y       z     vdW  Elec       q    Type
REMARK                         _______ _______ _______ _____ _____    ______ ____
ROOT
ATOM      1  C   UNL     1       0.811  -0.446  -1.916  0.00  0.00    +0.215 C 
ATOM      2  O   UNL     1       1.300   0.175  -2.835  0.00  0.00    -0.276 OA
ATOM      3  N   UNL     1       0.852  -1.793  -1.916  0.00  0.00    -0.301 N 
ATOM      4  C   UNL     1       0.258  -2.560  -0.813  0.00  0.00    +0.108 C 
ATOM      5  C   UNL     1      -0.730  -3.576  -1.395  0.00  0.00    +0.025 C 
ATOM      6  C   UNL     1      -0.023  -4.424  -2.451  0.00  0.00    +0.006 C 
ATOM      7  C   UNL     1       0.494  -3.539  -3.583  0.00  0.00    +0.025 C 
ATOM      8  C   UNL     1       1.487  -2.523  -3.022  0.00  0.00    +0.108 C 
ATOM      9  N   UNL     1      -0.960  -5.431  -2.992  0.00  0.00    +0.401 N 
ATOM     10  C   UNL     1      -0.082  -6.594  -3.267  0.00  0.00    +0.022 C 
ATOM     11  C   UNL     1       1.077  -6.438  -2.305  0.00  0.00    +0.201 C 
ATOM     12  O   UNL     1       1.866  -7.307  -2.000  0.00  0.00    -0.277 OA
ATOM     13  N   UNL     1       1.084  -5.170  -1.845  0.00  0.00    -0.315 N 
ATOM     14  H   UNL     1      -1.662  -5.668  -2.308  0.00  0.00    -0.082 HD
ATOM     15  H   UNL     1      -1.387  -5.098  -3.844  0.00  0.00    -0.082 HD
ENDROOT
BRANCH  10  16
ATOM     16  C   UNL     1      -0.829  -7.901  -2.997  0.00  0.00    -0.023 C 
ATOM     17  C   UNL     1       0.095  -9.086  -3.286  0.00  0.00    +0.006 C 
ATOM     18  C   UNL     1      -1.270  -7.944  -1.532  0.00  0.00    +0.006 C 
ENDBRANCH  10  16
BRANCH   1  20
ATOM     19  C   UNL     1       0.245   1.795  -1.019  0.00  0.00    +0.013 C 
ATOM     20  C   UNL     1       0.156   0.288  -0.774  0.00  0.00    +0.092 C 
ENDBRANCH   1  20
BRANCH  13  21
ATOM     21  C   UNL     1       2.049  -4.622  -0.888  0.00  0.00    +0.087 C 
BRANCH  21  22
ATOM     22  C   UNL     1       1.559  -4.887   0.537  0.00  0.00    -0.060 C 
BRANCH  22  23
ATOM     23  N   UNL     1       2.588  -4.460   1.495  0.00  0.00    +0.380 N 
ATOM     24  H   UNL     1       3.460  -4.918   1.278  0.00  0.00    -0.082 HD
BRANCH  23  25
ATOM     25  C   UNL     1       2.764  -3.005   1.409  0.00  0.00    -0.082 C 
ATOM     26  C   UNL     1       3.938  -2.579   2.293  0.00  0.00    -0.017 C 
ENDBRANCH  23  25
BRANCH  23  27
ATOM     27  C   UNL     1       2.170  -4.823   2.856  0.00  0.00    -0.082 C 
ATOM     28  C   UNL     1       2.142  -6.347   2.992  0.00  0.00    -0.017 C 
ENDBRANCH  23  27
ENDBRANCH  22  23
ENDBRANCH  21  22
ENDBRANCH  13  21
TORSDOF 7
