REMARK  Name = ZINC00739295
REMARK  12 active torsions:
REMARK  status: ('A' for Active; 'I' for Inactive)
REMARK    1  A    between atoms: C_1  and  C_2
REMARK    2  A    between atoms: C_7  and  N_8
REMARK    3  A    between atoms: C_9  and  N_20
REMARK    4  A    between atoms: C_10  and  C_14
REMARK    5  A    between atoms: C_11  and  C_13
REMARK    6  A    between atoms: C_21  and  C_23
REMARK    7  A    between atoms: C_23  and  N_24
REMARK    8  A    between atoms: N_24  and  C_25
REMARK    9  A    between atoms: C_25  and  C_26
REMARK   10  A    between atoms: C_25  and  C_27
REMARK   11  A    between atoms: C_28  and  C_30
REMARK   12  A    between atoms: C_33  and  N_36
REMARK                            x       y       z     vdW  Elec       q    Type
REMARK                         _______ _______ _______ _____ _____    ______ ____
ROOT
ATOM      1  N   UNL     1       2.763  -1.330  -0.342  0.00  0.00    -0.268 N 
ATOM      2  C   UNL     1       3.339  -0.315   0.332  0.00  0.00    +0.236 C 
ATOM      3  O   UNL     1       3.033   0.832   0.080  0.00  0.00    -0.274 OA
ATOM      4  H   UNL     1       3.103  -2.363  -0.177  0.00  0.00    +0.156 HD
ENDROOT
BRANCH   1   6
ATOM      5  N   UNL     1       1.839  -0.357  -2.399  0.00  0.00    -0.217 N 
ATOM      6  C   UNL     1       1.738  -1.071  -1.246  0.00  0.00    +0.137 A 
ATOM      7  C   UNL     1       0.424  -1.490  -1.141  0.00  0.00    +0.045 A 
ATOM      8  C   UNL     1      -0.262  -1.010  -2.274  0.00  0.00    +0.070 A 
ATOM      9  N   UNL     1       0.582  -0.341  -3.014  0.00  0.00    -0.169 NA
ATOM     10  C   UNL     1      -1.720  -1.232  -2.581  0.00  0.00    +0.068 C 
BRANCH   5  17
ATOM     11  C   UNL     1       1.667   2.336  -3.307  0.00  0.00    +0.046 C 
ATOM     12  C   UNL     1       2.962   1.565  -3.342  0.00  0.00    -0.025 A 
ATOM     13  C   UNL     1       4.109   2.163  -3.825  0.00  0.00    +0.005 A 
ATOM     14  C   UNL     1       5.297   1.457  -3.857  0.00  0.00    +0.000 A 
ATOM     15  C   UNL     1       5.341   0.150  -3.407  0.00  0.00    +0.002 A 
ATOM     16  C   UNL     1       4.197  -0.454  -2.924  0.00  0.00    +0.028 A 
ATOM     17  C   UNL     1       3.002   0.253  -2.890  0.00  0.00    +0.070 A 
ENDBRANCH   5  17
BRANCH   7  18
ATOM     18  C   UNL     1      -0.155  -2.298  -0.041  0.00  0.00    -0.013 A 
ATOM     19  C   UNL     1      -0.221  -1.777   1.251  0.00  0.00    +0.008 A 
ATOM     20  C   UNL     1      -0.766  -2.533   2.269  0.00  0.00    +0.001 A 
ATOM     21  C   UNL     1      -1.235  -3.808   2.014  0.00  0.00    +0.000 A 
ATOM     22  C   UNL     1      -1.167  -4.332   0.735  0.00  0.00    +0.001 A 
ATOM     23  C   UNL     1      -0.630  -3.584  -0.293  0.00  0.00    +0.008 A 
ENDBRANCH   7  18
ENDBRANCH   1   6
BRANCH   2  24
ATOM     24  C   UNL     1       4.364  -0.604   1.398  0.00  0.00    +0.204 C 
BRANCH  24  25
ATOM     25  N   UNL     1       4.744   0.646   2.062  0.00  0.00    -0.286 N 
ATOM     26  C   UNL     1       5.739   1.401   1.557  0.00  0.00    +0.247 C 
ATOM     27  O   UNL     1       6.251   1.103   0.495  0.00  0.00    -0.270 OA
BRANCH  26  28
ATOM     28  C   UNL     1       6.209   2.594   2.295  0.00  0.00    +0.037 A 
ATOM     29  C   UNL     1       6.460   2.516   3.666  0.00  0.00    +0.015 A 
ATOM     30  C   UNL     1       6.904   3.630   4.347  0.00  0.00    +0.033 A 
ATOM     31  C   UNL     1       7.090   4.826   3.676  0.00  0.00    +0.126 A 
ATOM     32  C   UNL     1       6.838   4.911   2.318  0.00  0.00    +0.033 A 
ATOM     33  C   UNL     1       6.399   3.803   1.624  0.00  0.00    +0.015 A 
BRANCH  31  34
ATOM     34  N   UNL     1       7.560   6.020   4.415  0.00  0.00    +0.056 N 
ATOM     35  O   UNL     1       7.724   7.074   3.827  0.00  0.00    -0.126 OA
ATOM     36  O   UNL     1       7.782   5.948   5.610  0.00  0.00    -0.126 OA
ENDBRANCH  31  34
ENDBRANCH  26  28
BRANCH  25  37
ATOM     37  C   UNL     1       4.042   1.074   3.274  0.00  0.00    +0.071 C 
ATOM     38  C   UNL     1       2.841   1.940   2.889  0.00  0.00    +0.028 C 
ATOM     39  C   UNL     1       3.558  -0.156   4.044  0.00  0.00    +0.028 C 
ENDBRANCH  25  37
ENDBRANCH  24  25
ENDBRANCH   2  24
TORSDOF 8
