REMARK  Name = ZINC64457978
REMARK  9 active torsions:
REMARK  status: ('A' for Active; 'I' for Inactive)
REMARK    1  A    between atoms: C_1  and  N_2
REMARK    2  A    between atoms: N_2  and  C_3
REMARK    3  A    between atoms: N_2  and  C_4
REMARK    4  A    between atoms: C_4  and  C_5
REMARK    5  A    between atoms: C_4  and  C_21
REMARK    6  A    between atoms: C_5  and  N_6
REMARK    7  A    between atoms: C_7  and  C_9
REMARK    8  A    between atoms: N_11  and  N_12
REMARK    9  A    between atoms: N_12  and  C_13
REMARK                            x       y       z     vdW  Elec       q    Type
REMARK                         _______ _______ _______ _____ _____    ______ ____
ROOT
ATOM      1  N   UNL     1      -0.914  -2.531   0.564  0.00  0.00    -0.309 N 
ATOM      2  C   UNL     1      -0.976  -3.877   0.530  0.00  0.00    +0.300 C 
ATOM      3  O   UNL     1      -1.633  -4.434  -0.325  0.00  0.00    -0.265 OA
ATOM      4  H   UNL     1      -0.389  -2.087   1.247  0.00  0.00    +0.149 HD
ENDROOT
BRANCH   2   5
ATOM      5  C   UNL     1      -0.235  -4.685   1.546  0.00  0.00    +0.315 C 
ATOM      6  O   UNL     1       0.422  -4.129   2.402  0.00  0.00    -0.264 OA
ATOM      7  N   UNL     1      -0.297  -6.031   1.513  0.00  0.00    -0.229 N 
ATOM      8  H   UNL     1      -0.823  -6.475   0.830  0.00  0.00    +0.173 HD
BRANCH   7   9
ATOM      9  N   UNL     1       0.397  -6.788   2.466  0.00  0.00    -0.263 N 
ATOM     10  H   UNL     1       0.922  -6.343   3.150  0.00  0.00    +0.170 HD
BRANCH   9  11
ATOM     11  C   UNL     1       0.333  -8.184   2.431  0.00  0.00    +0.063 A 
ATOM     12  C   UNL     1      -0.414  -8.822   1.450  0.00  0.00    +0.027 A 
ATOM     13  C   UNL     1      -0.476 -10.201   1.418  0.00  0.00    +0.022 A 
ATOM     14  C   UNL     1       0.205 -10.948   2.363  0.00  0.00    +0.042 A 
ATOM     15  C   UNL     1       0.950 -10.316   3.342  0.00  0.00    +0.042 A 
ATOM     16  C   UNL     1       1.021  -8.936   3.376  0.00  0.00    +0.065 A 
ATOM     17 CL   UNL     1       1.962  -8.143   4.600  0.00  0.00    -0.082 Cl
ATOM     18 CL   UNL     1       0.124 -12.682   2.320  0.00  0.00    -0.083 Cl
ENDBRANCH   9  11
ENDBRANCH   7   9
ENDBRANCH   2   5
BRANCH   1  19
ATOM     19  C   UNL     1      -1.640  -1.740  -0.433  0.00  0.00    +0.097 C 
BRANCH  19  20
ATOM     20  C   UNL     1      -1.509  -0.253  -0.097  0.00  0.00    +0.016 C 
BRANCH  20  21
ATOM     21  C   UNL     1      -0.070   0.169  -0.239  0.00  0.00    +0.093 A 
ATOM     22  C   UNL     1       0.460   0.819  -1.291  0.00  0.00    +0.043 A 
ATOM     23  C   UNL     1       1.831   1.013  -1.006  0.00  0.00    +0.041 A 
ATOM     24  C   UNL     1       2.058   0.470   0.204  0.00  0.00    +0.195 A 
ATOM     25  O   UNL     1       0.902  -0.035   0.666  0.00  0.00    -0.469 OA
ENDBRANCH  20  21
BRANCH  20  27
ATOM     26  C   UNL     1      -1.819   1.404   1.610  0.00  0.00    -0.096 C 
ATOM     27  N   UNL     1      -1.953  -0.022   1.284  0.00  0.00    +0.384 N 
ATOM     28  C   UNL     1      -3.359  -0.425   1.421  0.00  0.00    -0.096 C 
ATOM     29  H   UNL     1      -1.385  -0.566   1.916  0.00  0.00    -0.082 HD
ENDBRANCH  20  27
ENDBRANCH  19  20
ENDBRANCH   1  19
TORSDOF 7
