REMARK  Name = ZINC14670094
REMARK  11 active torsions:
REMARK  status: ('A' for Active; 'I' for Inactive)
REMARK    1  A    between atoms: C_1  and  C_2
REMARK    2  A    between atoms: C_2  and  C_3
REMARK    3  A    between atoms: C_3  and  C_4
REMARK    4  A    between atoms: C_4  and  N_5
REMARK    5  A    between atoms: C_6  and  N_28
REMARK    6  A    between atoms: C_7  and  N_14
REMARK    7  A    between atoms: N_14  and  C_15
REMARK    8  A    between atoms: C_15  and  C_16
REMARK    9  A    between atoms: C_16  and  C_17
REMARK   10  A    between atoms: C_16  and  C_18
REMARK   11  A    between atoms: C_19  and  C_21
REMARK                            x       y       z     vdW  Elec       q    Type
REMARK                         _______ _______ _______ _____ _____    ______ ____
ROOT
ATOM      1  N   UNL     1      -1.099   3.077  -1.614  0.00  0.00    -0.280 N 
ATOM      2  C   UNL     1       0.131   3.659  -1.412  0.00  0.00    +0.127 A 
ATOM      3  C   UNL     1       0.939   3.192  -0.395  0.00  0.00    +0.140 A 
ATOM      4  C   UNL     1       0.478   2.129   0.405  0.00  0.00    +0.277 A 
ATOM      5  O   UNL     1       1.171   1.697   1.310  0.00  0.00    -0.266 OA
ATOM      6  N   UNL     1      -0.735   1.594   0.164  0.00  0.00    -0.273 N 
ATOM      7  H   UNL     1      -1.065   0.842   0.734  0.00  0.00    +0.173 HD
ATOM      8  C   UNL     1      -1.506   2.059  -0.834  0.00  0.00    +0.331 A 
ATOM      9  O   UNL     1      -2.595   1.554  -1.032  0.00  0.00    -0.246 OA
ENDROOT
BRANCH   3  10
ATOM     10  N   UNL     1       2.204   3.769  -0.162  0.00  0.00    -0.260 N 
ATOM     11  C   UNL     1       2.308   5.089   0.088  0.00  0.00    +0.253 C 
ATOM     12  O   UNL     1       3.404   5.601   0.209  0.00  0.00    -0.270 OA
BRANCH  11  13
ATOM     13  C   UNL     1       1.088   5.914   0.215  0.00  0.00    +0.055 A 
ATOM     14  C   UNL     1       1.150   7.305   0.055  0.00  0.00    +0.017 A 
ATOM     15  C   UNL     1      -0.019   8.032   0.184  0.00  0.00    +0.041 A 
ATOM     16  C   UNL     1      -1.203   7.368   0.464  0.00  0.00    +0.129 A 
ATOM     17  N   UNL     1      -1.230   6.056   0.610  0.00  0.00    -0.243 NA
ATOM     18  C   UNL     1      -0.144   5.321   0.491  0.00  0.00    +0.125 A 
ATOM     19 CL   UNL     1      -2.673   8.277   0.627  0.00  0.00    -0.062 Cl
ENDBRANCH  11  13
BRANCH  10  20
ATOM     20  C   UNL     1       3.407   2.933  -0.192  0.00  0.00    +0.117 C 
BRANCH  20  21
ATOM     21  C   UNL     1       3.945   2.864  -1.623  0.00  0.00    +0.001 C 
ATOM     22  C   UNL     1       5.286   2.127  -1.628  0.00  0.00    +0.009 C 
ATOM     23  C   UNL     1       2.947   2.113  -2.507  0.00  0.00    +0.009 C 
ENDBRANCH  20  21
ENDBRANCH  10  20
ENDBRANCH   3  10
BRANCH   2  24
ATOM     24  N   UNL     1       0.549   4.696  -2.212  0.00  0.00    -0.343 N 
ATOM     25  H   UNL     1       1.448   5.049  -2.117  0.00  0.00    +0.144 HD
ATOM     26  H   UNL     1      -0.054   5.074  -2.871  0.00  0.00    +0.144 HD
ENDBRANCH   2  24
BRANCH   1  27
ATOM     27  C   UNL     1      -1.967   3.563  -2.689  0.00  0.00    +0.128 C 
BRANCH  27  28
ATOM     28  C   UNL     1      -1.671   2.787  -3.974  0.00  0.00    +0.021 C 
BRANCH  28  30
ATOM     29  C   UNL     1      -2.281   2.519  -6.382  0.00  0.00    +0.004 C 
ATOM     30  C   UNL     1      -2.577   3.295  -5.097  0.00  0.00    -0.002 C 
ENDBRANCH  28  30
ENDBRANCH  27  28
ENDBRANCH   1  27
TORSDOF 8
