REMARK  Name = ZINC37124333
REMARK  6 active torsions:
REMARK  status: ('A' for Active; 'I' for Inactive)
REMARK    1  A    between atoms: C_1  and  C_2
REMARK    2  A    between atoms: C_5  and  N_13
REMARK    3  A    between atoms: C_7  and  N_8
REMARK    4  A    between atoms: N_13  and  C_14
REMARK    5  A    between atoms: C_14  and  C_15
REMARK    6  A    between atoms: C_18  and  C_20
REMARK                            x       y       z     vdW  Elec       q    Type
REMARK                         _______ _______ _______ _____ _____    ______ ____
ROOT
ATOM      1  C   UNL     1      -0.326   1.482   0.050  0.00  0.00    +0.046 C 
ATOM      2  C   UNL     1      -0.145  -0.014   0.021  0.00  0.00    -0.025 A 
ATOM      3  C   UNL     1      -0.246  -0.699  -1.175  0.00  0.00    +0.007 A 
ATOM      4  C   UNL     1      -0.082  -2.070  -1.206  0.00  0.00    +0.023 A 
ATOM      5  C   UNL     1       0.187  -2.765  -0.033  0.00  0.00    +0.029 A 
ATOM      6  C   UNL     1       0.289  -2.080   1.169  0.00  0.00    +0.051 A 
ATOM      7  C   UNL     1       0.128  -0.702   1.196  0.00  0.00    +0.073 A 
ENDROOT
BRANCH   7   8
ATOM      8  N   UNL     1       0.236  -0.006   2.408  0.00  0.00    -0.200 N 
ATOM      9  C   UNL     1      -0.334  -0.325   3.591  0.00  0.00    +0.250 A 
ATOM     10  N   UNL     1       0.026   0.589   4.454  0.00  0.00    -0.116 NA
ATOM     11  N   UNL     1       0.784   1.464   3.898  0.00  0.00    -0.023 NA
ATOM     12  N   UNL     1       0.964   1.171   2.655  0.00  0.00    -0.039 NA
ENDBRANCH   7   8
BRANCH   5  13
ATOM     13  N   UNL     1       0.353  -4.151  -0.065  0.00  0.00    -0.338 N 
ATOM     14  H   UNL     1       0.540  -4.636   0.755  0.00  0.00    +0.146 HD
BRANCH  13  15
ATOM     15  C   UNL     1       0.244  -4.874  -1.334  0.00  0.00    +0.157 C 
BRANCH  15  16
ATOM     16  C   UNL     1       0.463  -6.345  -1.096  0.00  0.00    +0.066 A 
ATOM     17  C   UNL     1      -0.578  -7.197  -0.911  0.00  0.00    +0.071 A 
ATOM     18  S   UNL     1       0.294  -8.739  -0.687  0.00  0.00    -0.080 S 
ATOM     19  C   UNL     1       1.860  -8.145  -0.850  0.00  0.00    +0.076 A 
ATOM     20  N   UNL     1       1.674  -6.866  -1.062  0.00  0.00    -0.248 NA
ATOM     21  C   UNL     1       3.162  -8.901  -0.775  0.00  0.00    +0.073 C 
ENDBRANCH  15  16
ENDBRANCH  13  15
ENDBRANCH   5  13
TORSDOF 4
