REMARK  Name = ZINC67486279
REMARK  8 active torsions:
REMARK  status: ('A' for Active; 'I' for Inactive)
REMARK    1  A    between atoms: C_1  and  C_2
REMARK    2  A    between atoms: C_6  and  C_27
REMARK    3  A    between atoms: N_9  and  C_10
REMARK    4  A    between atoms: C_10  and  C_11
REMARK    5  A    between atoms: C_11  and  C_13
REMARK    6  A    between atoms: C_11  and  O_26
REMARK    7  A    between atoms: C_13  and  N_14
REMARK    8  A    between atoms: C_15  and  C_20
REMARK                            x       y       z     vdW  Elec       q    Type
REMARK                         _______ _______ _______ _____ _____    ______ ____
ROOT
ATOM      1  C   UNL     1       3.857   0.274   1.759  0.00  0.00    +0.118 C 
ENDROOT
BRANCH   1   2
ATOM      2  O   UNL     1       2.652   0.496   2.494  0.00  0.00    -0.392 OA
ATOM      3  H   UNL     1       2.409   1.429   2.577  0.00  0.00    +0.210 HD
ENDBRANCH   1   2
BRANCH   1   4
ATOM      4  C   UNL     1       3.750   0.944   0.388  0.00  0.00    -0.045 C 
BRANCH   4  11
ATOM      5  C   UNL     1       2.250   2.589  -1.323  0.00  0.00    -0.013 C 
ATOM      6  C   UNL     1       2.440   1.099  -1.613  0.00  0.00    -0.072 C 
ATOM      7  C   UNL     1       1.209   0.562  -2.346  0.00  0.00    -0.015 C 
ATOM      8  C   UNL     1       1.403  -0.929  -2.634  0.00  0.00    +0.009 C 
ATOM      9  C   UNL     1       1.660  -1.665  -1.316  0.00  0.00    +0.058 C 
ATOM     10  C   UNL     1       2.874  -1.045  -0.621  0.00  0.00    -0.066 C 
ATOM     11  N   UNL     1       2.615   0.374  -0.349  0.00  0.00    +0.384 N 
ATOM     12  H   UNL     1       1.777   0.462   0.207  0.00  0.00    -0.081 HD
BRANCH   9  13
ATOM     13  C   UNL     1       1.927  -3.121  -1.596  0.00  0.00    +0.212 C 
ATOM     14  O   UNL     1       2.985  -3.617  -1.268  0.00  0.00    -0.276 OA
ATOM     15  N   UNL     1       0.992  -3.872  -2.210  0.00  0.00    -0.329 N 
ATOM     16  H   UNL     1       0.147  -3.475  -2.473  0.00  0.00    +0.145 HD
ATOM     17  H   UNL     1       1.165  -4.809  -2.391  0.00  0.00    +0.145 HD
ENDBRANCH   9  13
ENDBRANCH   4  11
ENDBRANCH   1   4
BRANCH   1  18
ATOM     18  C   UNL     1       5.040   0.868   2.527  0.00  0.00    +0.159 C 
BRANCH  18  19
ATOM     19  N   UNL     1       5.220   0.141   3.786  0.00  0.00    -0.255 N 
ATOM     20  C   UNL     1       4.709   0.515   5.012  0.00  0.00    +0.186 A 
ATOM     21  N   UNL     1       5.069  -0.367   5.898  0.00  0.00    -0.054 NA
ATOM     22  O   UNL     1       5.842  -1.354   5.237  0.00  0.00    -0.295 OA
ATOM     23  C   UNL     1       5.907  -1.008   3.940  0.00  0.00    +0.443 A 
ATOM     24  O   UNL     1       6.485  -1.621   3.062  0.00  0.00    -0.221 OA
BRANCH  20  25
ATOM     25  C   UNL     1       3.888   1.719   5.276  0.00  0.00    +0.021 A 
ATOM     26  C   UNL     1       2.798   1.647   6.143  0.00  0.00    +0.011 A 
ATOM     27  C   UNL     1       2.037   2.772   6.385  0.00  0.00    +0.001 A 
ATOM     28  C   UNL     1       2.353   3.970   5.769  0.00  0.00    +0.000 A 
ATOM     29  C   UNL     1       3.433   4.047   4.908  0.00  0.00    +0.001 A 
ATOM     30  C   UNL     1       4.205   2.930   4.662  0.00  0.00    +0.011 A 
ENDBRANCH  20  25
ENDBRANCH  18  19
ENDBRANCH   1  18
TORSDOF 7
