REMARK  Name = ZINC21109042
REMARK  9 active torsions:
REMARK  status: ('A' for Active; 'I' for Inactive)
REMARK    1  A    between atoms: C_1  and  C_2
REMARK    2  A    between atoms: C_2  and  C_29
REMARK    3  A    between atoms: C_5  and  S_13
REMARK    4  A    between atoms: N_9  and  C_12
REMARK    5  A    between atoms: S_13  and  N_16
REMARK    6  A    between atoms: N_16  and  C_17
REMARK    7  A    between atoms: C_17  and  C_18
REMARK    8  A    between atoms: C_18  and  C_19
REMARK    9  A    between atoms: N_27  and  C_28
REMARK                            x       y       z     vdW  Elec       q    Type
REMARK                         _______ _______ _______ _____ _____    ______ ____
ROOT
ATOM      1  S   UNL     1      -0.334   1.762   3.936  0.00  0.00    +0.058 S 
ATOM      2  O   UNL     1       0.479   1.069   4.874  0.00  0.00    -0.153 OA
ATOM      3  O   UNL     1      -0.272   3.171   3.768  0.00  0.00    -0.153 OA
ENDROOT
BRANCH   1   8
ATOM      4  C   UNL     1      -3.988  -2.554   5.326  0.00  0.00    +0.025 C 
ATOM      5  C   UNL     1      -4.257  -1.242   6.065  0.00  0.00    +0.068 C 
ATOM      6  C   UNL     1      -3.611  -0.084   5.339  0.00  0.00    -0.010 A 
ATOM      7  C   UNL     1      -2.304   0.214   5.027  0.00  0.00    +0.035 A 
ATOM      8  C   UNL     1      -2.006   1.376   4.338  0.00  0.00    +0.106 A 
ATOM      9  C   UNL     1      -3.024   2.237   3.969  0.00  0.00    +0.030 A 
ATOM     10  C   UNL     1      -4.335   1.938   4.276  0.00  0.00    +0.026 A 
ATOM     11  C   UNL     1      -4.643   0.770   4.970  0.00  0.00    +0.040 A 
ATOM     12  N   UNL     1      -5.869   0.257   5.394  0.00  0.00    -0.273 N 
ATOM     13  C   UNL     1      -5.734  -0.913   6.041  0.00  0.00    +0.230 C 
ATOM     14  O   UNL     1      -6.628  -1.581   6.516  0.00  0.00    -0.274 OA
ATOM     15  C   UNL     1      -7.155   0.918   5.162  0.00  0.00    +0.138 C 
ATOM     16  C   UNL     1      -3.748  -1.323   7.505  0.00  0.00    +0.025 C 
ENDBRANCH   1   8
BRANCH   1  17
ATOM     17  N   UNL     1      -0.020   1.094   2.454  0.00  0.00    -0.190 NA
ATOM     18  H   UNL     1       0.594   0.183   2.394  0.00  0.00    +0.148 HD
BRANCH  17  19
ATOM     19  C   UNL     1      -0.729   1.579   1.267  0.00  0.00    +0.113 C 
BRANCH  19  20
ATOM     20  C   UNL     1      -0.013   1.086   0.008  0.00  0.00    +0.091 C 
BRANCH  20  21
ATOM     21  C   UNL     1      -0.742   1.585  -1.213  0.00  0.00    +0.112 A 
ATOM     22  N   UNL     1      -1.702   0.950  -1.819  0.00  0.00    -0.232 NA
ATOM     23  C   UNL     1      -2.135   1.682  -2.878  0.00  0.00    +0.089 A 
ATOM     24  C   UNL     1      -3.122   1.483  -3.847  0.00  0.00    +0.030 A 
ATOM     25  C   UNL     1      -3.325   2.425  -4.816  0.00  0.00    +0.002 A 
ATOM     26  C   UNL     1      -2.559   3.581  -4.849  0.00  0.00    +0.002 A 
ATOM     27  C   UNL     1      -1.580   3.799  -3.903  0.00  0.00    +0.028 A 
ATOM     28  C   UNL     1      -1.360   2.853  -2.911  0.00  0.00    +0.069 A 
ATOM     29  N   UNL     1      -0.487   2.762  -1.845  0.00  0.00    -0.331 N 
ATOM     30  C   UNL     1       0.525   3.751  -1.466  0.00  0.00    +0.150 C 
ENDBRANCH  20  21
ENDBRANCH  19  20
ENDBRANCH  17  19
ENDBRANCH   1  17
TORSDOF 5
