REMARK  Name = ZINC59844260
REMARK  8 active torsions:
REMARK  status: ('A' for Active; 'I' for Inactive)
REMARK    1  A    between atoms: C_4  and  N_28
REMARK    2  A    between atoms: C_5  and  C_7
REMARK    3  A    between atoms: N_8  and  N_9
REMARK    4  A    between atoms: C_12  and  S_15
REMARK    5  A    between atoms: S_15  and  C_16
REMARK    6  A    between atoms: C_16  and  C_17
REMARK    7  A    between atoms: C_17  and  C_18
REMARK    8  A    between atoms: N_20  and  C_21
REMARK                            x       y       z     vdW  Elec       q    Type
REMARK                         _______ _______ _______ _____ _____    ______ ____
ROOT
ATOM      1  N   UNL     1       2.566  -4.895  -0.014  0.00  0.00    -0.205 N 
ATOM      2  C   UNL     1       3.741  -5.618   0.091  0.00  0.00    +0.232 A 
ATOM      3  N   UNL     1       4.952  -5.114   0.196  0.00  0.00    -0.186 NA
ATOM      4  C   UNL     1       5.846  -6.105   0.278  0.00  0.00    +0.210 A 
ATOM      5  N   UNL     1       5.215  -7.254   0.226  0.00  0.00    -0.144 NA
ATOM      6  N   UNL     1       3.846  -6.963   0.109  0.00  0.00    -0.245 N 
ATOM      7  H   UNL     1       1.716  -5.358  -0.083  0.00  0.00    +0.177 HD
ATOM      8  H   UNL     1       3.119  -7.604   0.052  0.00  0.00    +0.192 HD
ENDROOT
BRANCH   1  10
ATOM      9  C   UNL     1       1.501  -2.817  -0.120  0.00  0.00    +0.140 C 
ATOM     10  N   UNL     1       2.603  -3.495  -0.021  0.00  0.00    -0.187 NA
BRANCH   9  15
ATOM     11  C   UNL     1       2.796   0.706  -0.144  0.00  0.00    +0.001 A 
ATOM     12  C   UNL     1       1.614   1.426  -0.140  0.00  0.00    +0.002 A 
ATOM     13  C   UNL     1       0.396   0.770  -0.130  0.00  0.00    +0.033 A 
ATOM     14  C   UNL     1       0.352  -0.609  -0.124  0.00  0.00    +0.135 A 
ATOM     15  C   UNL     1       1.540  -1.343  -0.127  0.00  0.00    +0.025 A 
ATOM     16  C   UNL     1       2.767  -0.673  -0.137  0.00  0.00    +0.012 A 
BRANCH  14  17
ATOM     17  N   UNL     1      -0.953  -1.309  -0.113  0.00  0.00    +0.057 N 
ATOM     18  O   UNL     1      -1.978  -0.676  -0.013  0.00  0.00    -0.126 OA
ATOM     19  O   UNL     1      -0.993  -2.514  -0.203  0.00  0.00    -0.126 OA
ENDBRANCH  14  17
ENDBRANCH   9  15
ENDBRANCH   1  10
BRANCH   4  20
ATOM     20  S   UNL     1       7.590  -5.902   0.431  0.00  0.00    -0.084 S 
BRANCH  20  21
ATOM     21  C   UNL     1       8.226  -7.599   0.492  0.00  0.00    +0.086 C 
BRANCH  21  22
ATOM     22  C   UNL     1       9.750  -7.568   0.627  0.00  0.00    +0.107 C 
BRANCH  22  23
ATOM     23  C   UNL     1      10.278  -8.979   0.678  0.00  0.00    +0.218 C 
ATOM     24  O   UNL     1       9.512  -9.916   0.613  0.00  0.00    -0.275 OA
ATOM     25  N   UNL     1      11.603  -9.198   0.795  0.00  0.00    -0.285 N 
ATOM     26  H   UNL     1      12.208  -8.452   0.929  0.00  0.00    +0.155 HD
BRANCH  25  27
ATOM     27  C   UNL     1      12.105 -10.503   0.725  0.00  0.00    +0.047 A 
ATOM     28  C   UNL     1      11.395 -11.486   0.049  0.00  0.00    +0.024 A 
ATOM     29  C   UNL     1      11.893 -12.772  -0.020  0.00  0.00    +0.002 A 
ATOM     30  C   UNL     1      13.098 -13.082   0.585  0.00  0.00    +0.001 A 
ATOM     31  C   UNL     1      13.808 -12.106   1.259  0.00  0.00    +0.017 A 
ATOM     32  C   UNL     1      13.318 -10.815   1.326  0.00  0.00    +0.039 A 
ATOM     33 BR   UNL     1      14.293  -9.478   2.241  0.00  0.00    -0.048 Br
ENDBRANCH  25  27
ENDBRANCH  22  23
ENDBRANCH  21  22
ENDBRANCH  20  21
ENDBRANCH   4  20
TORSDOF 8
