REMARK  Name = ZINC66179282
REMARK  8 active torsions:
REMARK  status: ('A' for Active; 'I' for Inactive)
REMARK    1  A    between atoms: C_1  and  C_2
REMARK    2  A    between atoms: N_7  and  C_9
REMARK    3  A    between atoms: C_9  and  C_10
REMARK    4  A    between atoms: C_10  and  C_11
REMARK    5  A    between atoms: C_11  and  C_12
REMARK    6  A    between atoms: C_12  and  N_13
REMARK    7  A    between atoms: C_19  and  N_22
REMARK    8  A    between atoms: C_23  and  C_25
REMARK                            x       y       z     vdW  Elec       q    Type
REMARK                         _______ _______ _______ _____ _____    ______ ____
ROOT
ATOM      1  N   UNL     1       2.542  -6.501   5.081  0.00  0.00    -0.299 N 
ATOM      2  C   UNL     1       2.580  -7.822   5.347  0.00  0.00    +0.302 C 
ATOM      3  O   UNL     1       2.002  -8.606   4.618  0.00  0.00    -0.253 OA
ATOM      4  N   UNL     1       3.259  -8.274   6.420  0.00  0.00    -0.286 N 
ATOM      5  C   UNL     1       3.863  -7.334   7.374  0.00  0.00    +0.111 C 
ATOM      6  C   UNL     1       5.346  -7.681   7.536  0.00  0.00    +0.041 C 
ATOM      7  C   UNL     1       5.481  -9.153   7.933  0.00  0.00    +0.076 C 
ATOM      8  C   UNL     1       4.895 -10.037   6.829  0.00  0.00    +0.041 C 
ATOM      9  C   UNL     1       3.402  -9.716   6.662  0.00  0.00    +0.111 C 
ATOM     10  H   UNL     1       2.940  -5.870   5.700  0.00  0.00    +0.150 HD
ENDROOT
BRANCH   7  11
ATOM     11  N   UNL     1       6.896  -9.481   8.121  0.00  0.00    -0.312 N 
ATOM     12  C   UNL     1       7.250 -10.502   8.927  0.00  0.00    +0.216 C 
ATOM     13  O   UNL     1       6.397 -11.149   9.496  0.00  0.00    -0.276 OA
ATOM     14  H   UNL     1       7.578  -8.963   7.666  0.00  0.00    +0.149 HD
BRANCH  12  15
ATOM     15  C   UNL     1       8.706 -10.838   9.120  0.00  0.00    +0.075 C 
ATOM     16  C   UNL     1       9.407  -9.962  10.171  0.00  0.00    +0.013 C 
ATOM     17  C   UNL     1       8.972 -11.004  11.216  0.00  0.00    +0.001 C 
ATOM     18  C   UNL     1       8.943 -12.027  10.068  0.00  0.00    +0.013 C 
ENDBRANCH  12  15
ENDBRANCH   7  11
BRANCH   1  19
ATOM     19  C   UNL     1       1.900  -6.019   3.855  0.00  0.00    +0.105 C 
BRANCH  19  20
ATOM     20  C   UNL     1       1.994  -4.493   3.796  0.00  0.00    +0.017 C 
BRANCH  20  21
ATOM     21  C   UNL     1       1.324  -3.990   2.517  0.00  0.00    -0.017 C 
BRANCH  21  22
ATOM     22  C   UNL     1       1.418  -2.464   2.458  0.00  0.00    -0.079 C 
BRANCH  22  28
ATOM     23  C   UNL     1      -0.010   1.525   0.004  0.00  0.00    +0.005 C 
ATOM     24  C   UNL     1       0.010  -0.005  -0.003  0.00  0.00    -0.031 C 
ATOM     25  C   UNL     1       0.730  -0.501  -1.261  0.00  0.00    -0.001 C 
ATOM     26  C   UNL     1       0.813  -2.029  -1.220  0.00  0.00    -0.018 C 
ATOM     27  C   UNL     1       1.525  -2.462   0.063  0.00  0.00    -0.079 C 
ATOM     28  N   UNL     1       0.774  -1.980   1.229  0.00  0.00    +0.380 N 
ATOM     29  C   UNL     1       0.751  -0.513   1.236  0.00  0.00    -0.076 C 
ATOM     30  H   UNL     1      -0.171  -2.330   1.187  0.00  0.00    -0.082 HD
ENDBRANCH  22  28
ENDBRANCH  21  22
ENDBRANCH  20  21
ENDBRANCH  19  20
ENDBRANCH   1  19
TORSDOF 7
