REMARK  Name = ZINC38872603
REMARK  10 active torsions:
REMARK  status: ('A' for Active; 'I' for Inactive)
REMARK    1  A    between atoms: C_1  and  C_2
REMARK    2  A    between atoms: C_5  and  S_8
REMARK    3  A    between atoms: S_8  and  C_9
REMARK    4  A    between atoms: C_9  and  C_10
REMARK    5  A    between atoms: C_10  and  C_11
REMARK    6  A    between atoms: C_11  and  N_12
REMARK    7  A    between atoms: C_13  and  C_15
REMARK    8  A    between atoms: N_18  and  C_21
REMARK    9  A    between atoms: C_21  and  C_22
REMARK   10  A    between atoms: C_24  and  C_27
REMARK                            x       y       z     vdW  Elec       q    Type
REMARK                         _______ _______ _______ _____ _____    ______ ____
ROOT
ATOM      1  C   UNL     1       0.163 -10.409   4.845  0.00  0.00    +0.071 C 
ATOM      2  C   UNL     1      -1.088 -10.999   4.187  0.00  0.00    -0.006 C 
ATOM      3  C   UNL     1      -1.101 -12.515   4.397  0.00  0.00    -0.077 C 
ATOM      4  N   UNL     1      -1.115 -12.813   5.835  0.00  0.00    +0.386 N 
ATOM      5  C   UNL     1       0.115 -12.312   6.459  0.00  0.00    -0.077 C 
ATOM      6  C   UNL     1       0.175 -10.789   6.328  0.00  0.00    -0.006 C 
ATOM      7  H   UNL     1      -1.913 -12.367   6.262  0.00  0.00    -0.081 HD
ENDROOT
BRANCH   1   9
ATOM      8  N   UNL     1       0.129  -8.342   3.486  0.00  0.00    -0.315 N 
ATOM      9  C   UNL     1       0.143  -8.908   4.709  0.00  0.00    +0.216 C 
ATOM     10  O   UNL     1       0.139  -8.210   5.701  0.00  0.00    -0.276 OA
ATOM     11  H   UNL     1       0.132  -8.900   2.693  0.00  0.00    +0.149 HD
BRANCH   8  12
ATOM     12  C   UNL     1       0.110  -6.883   3.355  0.00  0.00    +0.105 C 
BRANCH  12  13
ATOM     13  C   UNL     1       0.097  -6.505   1.872  0.00  0.00    +0.030 C 
BRANCH  13  14
ATOM     14  C   UNL     1       0.077  -4.981   1.735  0.00  0.00    +0.076 C 
BRANCH  14  15
ATOM     15  S   UNL     1       0.062  -4.533  -0.023  0.00  0.00    -0.125 S 
BRANCH  15  20
ATOM     16  C   UNL     1      -0.018   1.503   0.010  0.00  0.00    +0.044 C 
ATOM     17  C   UNL     1       0.002  -0.004   0.002  0.00  0.00    -0.050 A 
ATOM     18  C   UNL     1       0.006  -0.687  -1.200  0.00  0.00    +0.004 A 
ATOM     19  C   UNL     1       0.024  -2.068  -1.212  0.00  0.00    +0.015 A 
ATOM     20  C   UNL     1       0.039  -2.771  -0.013  0.00  0.00    +0.008 A 
ATOM     21  C   UNL     1       0.036  -2.081   1.193  0.00  0.00    +0.015 A 
ATOM     22  C   UNL     1       0.023  -0.700   1.197  0.00  0.00    +0.004 A 
ENDBRANCH  15  20
ENDBRANCH  14  15
ENDBRANCH  13  14
ENDBRANCH  12  13
ENDBRANCH   8  12
ENDBRANCH   1   9
BRANCH   4  23
ATOM     23  C   UNL     1      -1.206 -14.266   6.031  0.00  0.00    +0.022 C 
BRANCH  23  24
ATOM     24  C   UNL     1      -1.345 -14.566   7.501  0.00  0.00    +0.211 A 
ATOM     25  N   UNL     1      -2.466 -14.669   8.155  0.00  0.00    -0.193 NA
ATOM     26  C   UNL     1      -2.222 -14.944   9.449  0.00  0.00    +0.203 A 
ATOM     27  N   UNL     1      -0.926 -15.018   9.623  0.00  0.00    -0.056 NA
ATOM     28  O   UNL     1      -0.335 -14.778   8.355  0.00  0.00    -0.340 OA
BRANCH  26  29
ATOM     29  C   UNL     1      -3.250 -15.132  10.503  0.00  0.00    +0.041 A 
ATOM     30  C   UNL     1      -4.603 -15.033  10.185  0.00  0.00    +0.014 A 
ATOM     31  C   UNL     1      -5.555 -15.210  11.168  0.00  0.00    +0.021 A 
ATOM     32  C   UNL     1      -5.168 -15.484  12.469  0.00  0.00    +0.042 A 
ATOM     33  C   UNL     1      -3.825 -15.584  12.791  0.00  0.00    +0.040 A 
ATOM     34  C   UNL     1      -2.865 -15.415  11.813  0.00  0.00    +0.053 A 
ATOM     35 CL   UNL     1      -1.181 -15.547  12.215  0.00  0.00    -0.083 Cl
ATOM     36 CL   UNL     1      -6.371 -15.705  13.701  0.00  0.00    -0.083 Cl
ENDBRANCH  26  29
ENDBRANCH  23  24
ENDBRANCH   4  23
TORSDOF 9
