REMARK  Name = ZINC63864517
REMARK  7 active torsions:
REMARK  status: ('A' for Active; 'I' for Inactive)
REMARK    1  A    between atoms: C_1  and  C_2
REMARK    2  A    between atoms: C_2  and  N_3
REMARK    3  A    between atoms: N_3  and  C_4
REMARK    4  A    between atoms: C_4  and  C_5
REMARK    5  A    between atoms: N_13  and  C_14
REMARK    6  A    between atoms: C_14  and  C_15
REMARK    7  A    between atoms: C_15  and  N_16
REMARK                            x       y       z     vdW  Elec       q    Type
REMARK                         _______ _______ _______ _____ _____    ______ ____
ROOT
ATOM      1  N   UNL     1      -1.372  -0.511   0.012  0.00  0.00    -0.281 N 
ATOM      2  C   UNL     1      -1.993  -0.751   1.184  0.00  0.00    +0.303 C 
ATOM      3  O   UNL     1      -3.134  -1.171   1.193  0.00  0.00    -0.253 OA
ATOM      4  N   UNL     1      -1.350  -0.524   2.347  0.00  0.00    -0.298 N 
ATOM      5  H   UNL     1      -0.440  -0.188   2.340  0.00  0.00    +0.150 HD
ENDROOT
BRANCH   1   7
ATOM      6  C   UNL     1      -0.019   1.526   0.010  0.00  0.00    +0.024 C 
ATOM      7  C   UNL     1       0.002  -0.004   0.002  0.00  0.00    +0.106 C 
ENDBRANCH   1   7
BRANCH   1   8
ATOM      8  C   UNL     1      -2.072  -0.758  -1.251  0.00  0.00    +0.151 C 
BRANCH   8   9
ATOM      9  C   UNL     1      -1.820  -2.175  -1.696  0.00  0.00    +0.009 A 
ATOM     10  C   UNL     1      -2.531  -3.296  -1.420  0.00  0.00    +0.014 A 
ATOM     11  C   UNL     1      -2.108  -4.504  -1.942  0.00  0.00    +0.028 A 
ATOM     12  C   UNL     1      -0.995  -4.532  -2.716  0.00  0.00    +0.078 A 
ATOM     13  S   UNL     1      -0.512  -2.813  -2.731  0.00  0.00    -0.080 S 
ATOM     14 CL   UNL     1      -0.239  -5.886  -3.497  0.00  0.00    -0.076 Cl
ENDBRANCH   8   9
ENDBRANCH   1   8
BRANCH   4  15
ATOM     15  C   UNL     1      -2.025  -0.784   3.620  0.00  0.00    +0.125 C 
BRANCH  15  16
ATOM     16  C   UNL     1      -1.081  -0.446   4.776  0.00  0.00    +0.136 C 
BRANCH  16  17
ATOM     17  N   UNL     1      -1.756  -0.707   6.050  0.00  0.00    -0.231 N 
ATOM     18  C   UNL     1      -2.452   0.273   6.602  0.00  0.00    +0.233 C 
ATOM     19  O   UNL     1      -2.547   1.369   6.091  0.00  0.00    -0.274 OA
ATOM     20  C   UNL     1      -3.126  -0.069   7.923  0.00  0.00    +0.175 C 
ATOM     21  S   UNL     1      -2.590  -1.821   8.104  0.00  0.00    -0.058 S 
ATOM     22  C   UNL     1      -1.640  -1.932   6.594  0.00  0.00    +0.281 C 
ATOM     23  O   UNL     1      -1.030  -2.890   6.161  0.00  0.00    -0.262 OA
ENDBRANCH  16  17
ENDBRANCH  15  16
ENDBRANCH   4  15
TORSDOF 6
