REMARK  Name = ZINC35967188
REMARK  13 active torsions:
REMARK  status: ('A' for Active; 'I' for Inactive)
REMARK    1  A    between atoms: C_1  and  C_2
REMARK    2  A    between atoms: C_2  and  N_3
REMARK    3  A    between atoms: C_6  and  C_11
REMARK    4  A    between atoms: C_15  and  O_17
REMARK    5  A    between atoms: O_17  and  C_18
REMARK    6  A    between atoms: N_26  and  C_28
REMARK    7  A    between atoms: C_28  and  C_29
REMARK    8  A    between atoms: C_29  and  C_30
REMARK    9  A    between atoms: N_32  and  C_33
REMARK   10  A    between atoms: C_33  and  C_34
REMARK   11  A    between atoms: C_34  and  N_35
REMARK   12  A    between atoms: N_35  and  C_36
REMARK   13  A    between atoms: N_35  and  C_37
REMARK                            x       y       z     vdW  Elec       q    Type
REMARK                         _______ _______ _______ _____ _____    ______ ____
ROOT
ATOM      1  N   UNL     1       2.726  -0.850  -0.582  0.00  0.00    -0.257 N 
ATOM      2  C   UNL     1       1.721  -1.150  -1.456  0.00  0.00    +0.042 C 
ATOM      3  C   UNL     1       1.986  -1.514  -2.727  0.00  0.00    +0.058 C 
ATOM      4  C   UNL     1       3.439  -1.579  -3.153  0.00  0.00    +0.142 C 
ATOM      5  N   UNL     1       4.448  -1.237  -2.136  0.00  0.00    -0.288 N 
ATOM      6  C   UNL     1       4.025  -0.886  -0.905  0.00  0.00    +0.307 C 
ATOM      7  O   UNL     1       4.850  -0.598  -0.060  0.00  0.00    -0.252 OA
ATOM      8  C   UNL     1       0.788  -1.771  -3.424  0.00  0.00    +0.247 C 
ATOM      9  O   UNL     1       0.730  -2.118  -4.590  0.00  0.00    -0.270 OA
ATOM     10  N   UNL     1      -0.284  -1.582  -2.633  0.00  0.00    -0.292 N 
ATOM     11  C   UNL     1       0.216  -1.171  -1.313  0.00  0.00    +0.159 C 
ATOM     12  H   UNL     1       5.394  -1.260  -2.348  0.00  0.00    +0.151 HD
ENDROOT
BRANCH   4  13
ATOM     13  C   UNL     1       3.623  -0.646  -4.322  0.00  0.00    -0.019 A 
ATOM     14  C   UNL     1       3.769   0.712  -4.105  0.00  0.00    +0.006 A 
ATOM     15  C   UNL     1       3.938   1.571  -5.175  0.00  0.00    +0.004 A 
ATOM     16  C   UNL     1       3.962   1.075  -6.464  0.00  0.00    +0.046 A 
ATOM     17  C   UNL     1       3.816  -0.287  -6.684  0.00  0.00    +0.129 A 
ATOM     18  C   UNL     1       3.652  -1.148  -5.608  0.00  0.00    +0.052 A 
BRANCH  17  19
ATOM     19  O   UNL     1       3.839  -0.778  -7.951  0.00  0.00    -0.456 OA
BRANCH  19  20
ATOM     20  C   UNL     1       3.685  -2.117  -8.119  0.00  0.00    +0.128 A 
ATOM     21  C   UNL     1       2.417  -2.656  -8.283  0.00  0.00    +0.046 A 
ATOM     22  C   UNL     1       2.264  -4.019  -8.454  0.00  0.00    +0.004 A 
ATOM     23  C   UNL     1       3.373  -4.845  -8.461  0.00  0.00    +0.000 A 
ATOM     24  C   UNL     1       4.637  -4.310  -8.297  0.00  0.00    +0.004 A 
ATOM     25  C   UNL     1       4.797  -2.948  -8.133  0.00  0.00    +0.046 A 
ENDBRANCH  19  20
ENDBRANCH  17  19
ENDBRANCH   4  13
BRANCH   1  27
ATOM     26  C   UNL     1       2.173   1.055   0.849  0.00  0.00    +0.025 C 
ATOM     27  C   UNL     1       2.363  -0.462   0.783  0.00  0.00    +0.111 C 
ENDBRANCH   1  27
BRANCH  10  28
ATOM     28  C   UNL     1      -1.688  -1.754  -3.016  0.00  0.00    +0.117 C 
BRANCH  28  29
ATOM     29  C   UNL     1      -2.119  -3.196  -2.741  0.00  0.00    +0.114 C 
BRANCH  29  30
ATOM     30  C   UNL     1      -3.562  -3.373  -3.135  0.00  0.00    +0.214 C 
ATOM     31  O   UNL     1      -4.186  -2.437  -3.591  0.00  0.00    -0.276 OA
ATOM     32  N   UNL     1      -4.161  -4.570  -2.981  0.00  0.00    -0.317 N 
ATOM     33  H   UNL     1      -3.663  -5.318  -2.616  0.00  0.00    +0.149 HD
BRANCH  32  34
ATOM     34  C   UNL     1      -5.565  -4.742  -3.364  0.00  0.00    +0.085 C 
BRANCH  34  35
ATOM     35  C   UNL     1      -5.996  -6.184  -3.089  0.00  0.00    -0.061 C 
BRANCH  35  36
ATOM     36  N   UNL     1      -7.403  -6.356  -3.473  0.00  0.00    +0.377 N 
ATOM     37  C   UNL     1      -7.540  -6.180  -4.925  0.00  0.00    -0.097 C 
ATOM     38  C   UNL     1      -7.851  -7.704  -3.099  0.00  0.00    -0.097 C 
ATOM     39  H   UNL     1      -7.968  -5.670  -2.996  0.00  0.00    -0.083 HD
ENDBRANCH  35  36
ENDBRANCH  34  35
ENDBRANCH  32  34
ENDBRANCH  29  30
ENDBRANCH  28  29
ENDBRANCH  10  28
TORSDOF 10
