REMARK  Name = ZINC12074033
REMARK  10 active torsions:
REMARK  status: ('A' for Active; 'I' for Inactive)
REMARK    1  A    between atoms: C_1  and  O_2
REMARK    2  A    between atoms: O_2  and  C_3
REMARK    3  A    between atoms: C_8  and  C_9
REMARK    4  A    between atoms: C_10  and  C_11
REMARK    5  A    between atoms: C_11  and  N_63
REMARK    6  A    between atoms: C_17  and  C_19
REMARK    7  A    between atoms: C_19  and  C_20
REMARK    8  A    between atoms: N_22  and  C_23
REMARK    9  A    between atoms: C_23  and  C_24
REMARK   10  A    between atoms: C_24  and  C_25
REMARK                            x       y       z     vdW  Elec       q    Type
REMARK                         _______ _______ _______ _____ _____    ______ ____
ROOT
ATOM      1  C   UNL     1       3.446  -0.899  -1.194  0.00  0.00    -0.058 C 
ATOM      2  C   UNL     1       3.158  -2.371  -1.492  0.00  0.00    +0.085 C 
ATOM      3  N   UNL     1       2.147  -2.880  -0.570  0.00  0.00    -0.318 N 
ATOM      4  C   UNL     1       1.335  -2.082   0.129  0.00  0.00    +0.200 C 
ATOM      5  O   UNL     1       0.501  -2.591   0.848  0.00  0.00    -0.278 OA
ATOM      6  C   UNL     1       1.413  -0.583   0.065  0.00  0.00    +0.028 C 
ATOM      7  H   UNL     1       2.059  -3.840  -0.462  0.00  0.00    +0.149 HD
ATOM      8  N   UNL     1       2.156  -0.182  -1.144  0.00  0.00    +0.391 N 
ATOM      9  H   UNL     1       1.603  -0.427  -1.974  0.00  0.00    -0.080 HD
ENDROOT
BRANCH   8  10
ATOM     10  C   UNL     1       2.387   1.281  -1.135  0.00  0.00    -0.050 C 
BRANCH  10  12
ATOM     11  C   UNL     1       2.147   2.664  -3.149  0.00  0.00    +0.005 C 
ATOM     12  C   UNL     1       2.819   1.715  -2.512  0.00  0.00    -0.045 C 
BRANCH  11  18
ATOM     13  C   UNL     1       1.861   4.088  -5.177  0.00  0.00    +0.127 A 
ATOM     14  C   UNL     1       2.269   4.483  -6.441  0.00  0.00    +0.046 A 
ATOM     15  C   UNL     1       3.367   3.888  -7.032  0.00  0.00    +0.004 A 
ATOM     16  C   UNL     1       4.068   2.897  -6.367  0.00  0.00    +0.001 A 
ATOM     17  C   UNL     1       3.678   2.496  -5.106  0.00  0.00    +0.011 A 
ATOM     18  C   UNL     1       2.571   3.090  -4.499  0.00  0.00    +0.016 A 
BRANCH  13  20
ATOM     19  C   UNL     1       0.104   5.679  -5.349  0.00  0.00    +0.277 C 
ATOM     20  O   UNL     1       0.779   4.669  -4.597  0.00  0.00    -0.495 OA
ENDBRANCH  13  20
ENDBRANCH  11  18
ENDBRANCH  10  12
ENDBRANCH   8  10
BRANCH   6  21
ATOM     21  C   UNL     1      -0.001  -0.004  -0.004  0.00  0.00    +0.089 C 
BRANCH  21  22
ATOM     22  C   UNL     1      -0.675  -0.474  -1.268  0.00  0.00    +0.212 C 
ATOM     23  O   UNL     1      -0.050  -1.115  -2.086  0.00  0.00    -0.276 OA
ATOM     24  N   UNL     1      -1.974  -0.186  -1.486  0.00  0.00    -0.315 N 
ATOM     25  H   UNL     1      -2.474   0.323  -0.830  0.00  0.00    +0.149 HD
BRANCH  24  26
ATOM     26  C   UNL     1      -2.629  -0.643  -2.714  0.00  0.00    +0.108 C 
BRANCH  26  27
ATOM     27  C   UNL     1      -4.089  -0.187  -2.713  0.00  0.00    +0.049 C 
BRANCH  27  28
ATOM     28  C   UNL     1      -4.763  -0.657  -3.976  0.00  0.00    -0.072 C 
ATOM     29  C   UNL     1      -5.421  -1.771  -3.935  0.00  0.00    -0.028 C 
ATOM     30  C   UNL     1      -6.134  -2.371  -5.111  0.00  0.00    +0.027 C 
ATOM     31  C   UNL     1      -6.335  -1.315  -6.200  0.00  0.00    +0.004 C 
ATOM     32  C   UNL     1      -4.993  -0.615  -6.450  0.00  0.00    +0.005 C 
ATOM     33  C   UNL     1      -4.635   0.198  -5.202  0.00  0.00    +0.030 C 
ENDBRANCH  27  28
ENDBRANCH  26  27
ENDBRANCH  24  26
ENDBRANCH  21  22
ENDBRANCH   6  21
TORSDOF 9
