REMARK  Name = ZINC39691311
REMARK  9 active torsions:
REMARK  status: ('A' for Active; 'I' for Inactive)
REMARK    1  A    between atoms: C_1  and  C_2
REMARK    2  A    between atoms: C_2  and  C_3
REMARK    3  A    between atoms: C_2  and  C_4
REMARK    4  A    between atoms: C_8  and  C_17
REMARK    5  A    between atoms: N_19  and  C_20
REMARK    6  A    between atoms: C_20  and  C_21
REMARK    7  A    between atoms: C_21  and  N_22
REMARK    8  A    between atoms: C_23  and  C_25
REMARK    9  A    between atoms: C_25  and  C_26
REMARK                            x       y       z     vdW  Elec       q    Type
REMARK                         _______ _______ _______ _____ _____    ______ ____
ROOT
ATOM      1  C   UNL     1       4.436  -0.930   0.487  0.00  0.00    +0.218 C 
ATOM      2  O   UNL     1       3.468  -1.405   1.043  0.00  0.00    -0.275 OA
ATOM      3  N   UNL     1       5.676  -1.238   0.915  0.00  0.00    -0.314 N 
ATOM      4  H   UNL     1       6.451  -0.858   0.471  0.00  0.00    +0.149 HD
ENDROOT
BRANCH   1   9
ATOM      5  C   UNL     1       0.657  -0.251  -1.039  0.00  0.00    +0.218 C 
ATOM      6  O   UNL     1      -0.020  -0.917  -1.793  0.00  0.00    -0.275 OA
ATOM      7  N   UNL     1       1.947   0.003  -1.336  0.00  0.00    -0.300 N 
ATOM      8  C   UNL     1       2.925   0.783  -0.543  0.00  0.00    +0.121 C 
ATOM      9  C   UNL     1       4.252   0.003  -0.681  0.00  0.00    +0.100 C 
ATOM     10  C   UNL     1       4.103  -0.794  -1.988  0.00  0.00    -0.004 C 
ATOM     11  C   UNL     1       2.709  -0.442  -2.527  0.00  0.00    +0.115 C 
ATOM     12  C   UNL     1       4.191  -2.291  -1.707  0.00  0.00    -0.010 C 
ATOM     13  C   UNL     1       4.098  -3.060  -3.028  0.00  0.00    -0.082 C 
ATOM     14  N   UNL     1       5.190  -2.644  -3.916  0.00  0.00    +0.379 N 
ATOM     15  C   UNL     1       5.045  -1.223  -4.256  0.00  0.00    -0.082 C 
ATOM     16  C   UNL     1       5.178  -0.377  -2.987  0.00  0.00    -0.010 C 
ATOM     17  H   UNL     1       6.074  -2.789  -3.451  0.00  0.00    -0.086 HD
ATOM     18  H   UNL     1       5.163  -3.195  -4.761  0.00  0.00    -0.086 HD
BRANCH   5  20
ATOM     19  C   UNL     1       0.139   1.821   0.222  0.00  0.00    +0.017 C 
ATOM     20  C   UNL     1       0.055   0.293   0.231  0.00  0.00    +0.069 C 
ATOM     21  C   UNL     1      -1.410  -0.136   0.327  0.00  0.00    +0.017 C 
ENDBRANCH   5  20
ENDBRANCH   1   9
BRANCH   3  22
ATOM     22  C   UNL     1       5.855  -2.145   2.051  0.00  0.00    +0.123 C 
BRANCH  22  23
ATOM     23  C   UNL     1       7.349  -2.325   2.330  0.00  0.00    +0.123 C 
BRANCH  23  24
ATOM     24  N   UNL     1       7.528  -3.232   3.466  0.00  0.00    -0.314 N 
ATOM     25  C   UNL     1       8.769  -3.540   3.894  0.00  0.00    +0.217 C 
ATOM     26  O   UNL     1       9.737  -3.065   3.338  0.00  0.00    -0.275 OA
ATOM     27  H   UNL     1       6.754  -3.612   3.910  0.00  0.00    +0.149 HD
BRANCH  25  28
ATOM     28  C   UNL     1       8.953  -4.473   5.063  0.00  0.00    +0.131 C 
BRANCH  28  29
ATOM     29  C   UNL     1      10.424  -4.651   5.337  0.00  0.00    -0.031 A 
ATOM     30  C   UNL     1      11.098  -5.705   4.801  0.00  0.00    +0.005 A 
ATOM     31  C   UNL     1      12.458  -5.885   5.043  0.00  0.00    +0.001 A 
ATOM     32  C   UNL     1      13.152  -5.012   5.824  0.00  0.00    +0.008 A 
ATOM     33  C   UNL     1      12.491  -3.912   6.395  0.00  0.00    -0.018 A 
ATOM     34  C   UNL     1      11.109  -3.725   6.143  0.00  0.00    -0.014 A 
ATOM     35  C   UNL     1      10.448  -2.621   6.709  0.00  0.00    +0.009 A 
ATOM     36  C   UNL     1      11.144  -1.746   7.485  0.00  0.00    +0.001 A 
ATOM     37  C   UNL     1      12.505  -1.926   7.727  0.00  0.00    +0.001 A 
ATOM     38  C   UNL     1      13.174  -2.990   7.206  0.00  0.00    +0.008 A 
ENDBRANCH  28  29
ENDBRANCH  25  28
ENDBRANCH  23  24
ENDBRANCH  22  23
ENDBRANCH   3  22
TORSDOF 7
