REMARK  Name = ZINC03548310
REMARK  6 active torsions:
REMARK  status: ('A' for Active; 'I' for Inactive)
REMARK    1  A    between atoms: C_3  and  N_20
REMARK    2  A    between atoms: C_6  and  C_7
REMARK    3  A    between atoms: C_7  and  O_9
REMARK    4  A    between atoms: O_9  and  C_10
REMARK    5  A    between atoms: C_10  and  C_11
REMARK    6  A    between atoms: C_11  and  C_13
REMARK                            x       y       z     vdW  Elec       q    Type
REMARK                         _______ _______ _______ _____ _____    ______ ____
ROOT
ATOM      1  C   UNL     1      -1.265  -0.761   0.011  0.00  0.00    +0.340 C 
ATOM      2  O   UNL     1      -2.326  -0.170   0.024  0.00  0.00    -0.245 OA
ENDROOT
BRANCH   1   8
ATOM      3  C   UNL     1      -0.017   1.393   0.010  0.00  0.00    +0.017 A 
ATOM      4  C   UNL     1       1.167   2.096   0.002  0.00  0.00    +0.029 A 
ATOM      5  C   UNL     1       2.381   1.417  -0.013  0.00  0.00    +0.069 A 
ATOM      6  C   UNL     1       2.404   0.027  -0.021  0.00  0.00    +0.029 A 
ATOM      7  C   UNL     1       1.224  -0.683  -0.014  0.00  0.00    +0.017 A 
ATOM      8  C   UNL     1       0.002  -0.004   0.002  0.00  0.00    +0.059 A 
BRANCH   5   9
ATOM      9  N   UNL     1       3.582   2.135  -0.021  0.00  0.00    -0.200 N 
ATOM     10  C   UNL     1       4.837   1.635  -0.041  0.00  0.00    +0.250 A 
ATOM     11  N   UNL     1       5.660   2.651  -0.043  0.00  0.00    -0.116 NA
ATOM     12  N   UNL     1       5.011   3.759  -0.025  0.00  0.00    -0.023 NA
ATOM     13  N   UNL     1       3.742   3.532  -0.016  0.00  0.00    -0.039 NA
ENDBRANCH   5   9
ENDBRANCH   1   8
BRANCH   1  14
ATOM     14  O   UNL     1      -1.244  -2.108   0.003  0.00  0.00    -0.453 OA
BRANCH  14  15
ATOM     15  C   UNL     1      -2.508  -2.776   0.012  0.00  0.00    +0.311 C 
BRANCH  15  16
ATOM     16  C   UNL     1      -2.288  -4.267   0.002  0.00  0.00    +0.200 C 
ATOM     17  O   UNL     1      -1.160  -4.713  -0.012  0.00  0.00    -0.288 OA
BRANCH  16  18
ATOM     18  C   UNL     1      -3.441  -5.181   0.008  0.00  0.00    +0.021 A 
ATOM     19  C   UNL     1      -4.743  -4.669   0.018  0.00  0.00    +0.012 A 
ATOM     20  C   UNL     1      -5.818  -5.531   0.024  0.00  0.00    +0.016 A 
ATOM     21  C   UNL     1      -5.612  -6.901   0.020  0.00  0.00    +0.018 A 
ATOM     22  C   UNL     1      -4.326  -7.415   0.011  0.00  0.00    +0.016 A 
ATOM     23  C   UNL     1      -3.240  -6.565  -0.001  0.00  0.00    +0.012 A 
ATOM     24 BR   UNL     1      -7.094  -8.075   0.029  0.00  0.00    -0.050 Br
ENDBRANCH  16  18
ENDBRANCH  15  16
ENDBRANCH  14  15
ENDBRANCH   1  14
TORSDOF 6
