REMARK  Name = ZINC23338678
REMARK  4 active torsions:
REMARK  status: ('A' for Active; 'I' for Inactive)
REMARK    1  A    between atoms: C_1  and  C_2
REMARK    2  A    between atoms: C_9  and  C_11
REMARK    3  A    between atoms: C_11  and  N_12
REMARK    4  A    between atoms: C_19  and  C_21
REMARK                            x       y       z     vdW  Elec       q    Type
REMARK                         _______ _______ _______ _____ _____    ______ ____
ROOT
ATOM      1  N   UNL     1      -5.670   3.250  -0.718  0.00  0.00    -0.293 N 
ATOM      2  C   UNL     1      -6.766   3.462  -1.474  0.00  0.00    +0.306 C 
ATOM      3  O   UNL     1      -7.629   2.609  -1.546  0.00  0.00    -0.252 OA
ATOM      4  N   UNL     1      -6.904   4.620  -2.149  0.00  0.00    -0.247 N 
ATOM      5  C   UNL     1      -8.034   4.840  -2.928  0.00  0.00    +0.189 A 
ATOM      6  N   UNL     1      -9.081   4.055  -3.151  0.00  0.00    -0.125 NA
ATOM      7  N   UNL     1     -10.037   4.413  -3.892  0.00  0.00    -0.136 NA
ATOM      8  C   UNL     1     -10.046   5.594  -4.502  0.00  0.00    +0.169 A 
ATOM      9  S   UNL     1      -8.488   6.258  -3.922  0.00  0.00    -0.027 S 
ATOM     10  H   UNL     1      -4.889   4.021  -0.653  0.00  0.00    +0.151 HD
ATOM     11  H   UNL     1      -6.123   5.392  -2.083  0.00  0.00    +0.158 HD
ENDROOT
BRANCH   8  12
ATOM     12  C   UNL     1     -11.051   6.187  -5.399  0.00  0.00    +0.162 A 
ATOM     13  C   UNL     1     -12.216   5.601  -5.793  0.00  0.00    +0.052 A 
ATOM     14  C   UNL     1     -12.865   6.519  -6.641  0.00  0.00    +0.042 A 
ATOM     15  C   UNL     1     -12.071   7.605  -6.729  0.00  0.00    +0.196 A 
ATOM     16  O   UNL     1     -10.976   7.401  -5.978  0.00  0.00    -0.461 OA
ENDBRANCH   8  12
BRANCH   1  17
ATOM     17  C   UNL     1      -5.520   1.991   0.016  0.00  0.00    +0.162 C 
BRANCH  17  26
ATOM     18  C   UNL     1      -0.013   1.086   0.008  0.00  0.00    +0.047 C 
ATOM     19  C   UNL     1      -0.718   1.572   1.248  0.00  0.00    -0.008 A 
ATOM     20  C   UNL     1      -0.018   1.804   2.390  0.00  0.00    +0.008 A 
ATOM     21  C   UNL     1      -0.689   2.257   3.538  0.00  0.00    +0.018 A 
ATOM     22  C   UNL     1      -2.022   2.462   3.511  0.00  0.00    +0.093 A 
ATOM     23  N   UNL     1      -2.737   2.233   2.371  0.00  0.00    -0.306 N 
ATOM     24  C   UNL     1      -2.109   1.796   1.234  0.00  0.00    +0.141 A 
ATOM     25  N   UNL     1      -3.025   1.662   0.285  0.00  0.00    -0.231 NA
ATOM     26  C   UNL     1      -4.218   2.005   0.776  0.00  0.00    +0.077 A 
ATOM     27  C   UNL     1      -4.067   2.356   2.072  0.00  0.00    +0.117 A 
ENDBRANCH  17  26
ENDBRANCH   1  17
TORSDOF 3
