REMARK  Name = ZINC39733258
REMARK  6 active torsions:
REMARK  status: ('A' for Active; 'I' for Inactive)
REMARK    1  A    between atoms: C_1  and  C_2
REMARK    2  A    between atoms: C_2  and  N_3
REMARK    3  A    between atoms: C_7  and  C_9
REMARK    4  A    between atoms: C_9  and  C_11
REMARK    5  A    between atoms: C_9  and  S_12
REMARK    6  A    between atoms: S_12  and  C_13
REMARK                            x       y       z     vdW  Elec       q    Type
REMARK                         _______ _______ _______ _____ _____    ______ ____
ROOT
ATOM      1  C   UNL     1       2.721  -6.194   5.747  0.00  0.00    +0.182 C 
ATOM      2  N   UNL     1       3.442  -5.254   6.333  0.00  0.00    -0.151 NA
ATOM      3  C   UNL     1       4.083  -5.451   7.485  0.00  0.00    +0.272 C 
ATOM      4  O   UNL     1       4.742  -4.561   7.997  0.00  0.00    -0.268 OA
ATOM      5  C   UNL     1       3.969  -6.797   8.133  0.00  0.00    +0.071 C 
ATOM      6  C   UNL     1       4.475  -7.188   9.314  0.00  0.00    -0.042 C 
ATOM      7  C   UNL     1       5.141  -6.240  10.309  0.00  0.00    +0.033 C 
ATOM      8  C   UNL     1       4.400  -6.408  11.643  0.00  0.00    +0.004 C 
ATOM      9  C   UNL     1       4.358  -7.881  12.043  0.00  0.00    +0.002 C 
ATOM     10  C   UNL     1       3.562  -8.700  11.022  0.00  0.00    +0.019 C 
ATOM     11  C   UNL     1       4.298  -8.657   9.681  0.00  0.00    +0.079 C 
ATOM     12  S   UNL     1       3.197  -9.254   8.342  0.00  0.00    -0.097 S 
ATOM     13  C   UNL     1       3.144  -7.765   7.377  0.00  0.00    +0.112 C 
ATOM     14  N   UNL     1       2.569  -7.418   6.254  0.00  0.00    -0.217 NA
ENDROOT
BRANCH   1  15
ATOM     15  S   UNL     1       1.915  -5.809   4.229  0.00  0.00    -0.076 S 
BRANCH  15  16
ATOM     16  C   UNL     1       2.378  -4.084   3.911  0.00  0.00    +0.137 C 
ATOM     17  C   UNL     1       3.887  -3.996   3.676  0.00  0.00    +0.029 C 
BRANCH  16  22
ATOM     18  N   UNL     1       0.711  -0.489   1.189  0.00  0.00    -0.299 N 
ATOM     19  C   UNL     1       0.854  -1.814   1.394  0.00  0.00    +0.306 C 
ATOM     20  O   UNL     1       0.395  -2.606   0.594  0.00  0.00    -0.252 OA
ATOM     21  N   UNL     1       1.506  -2.260   2.486  0.00  0.00    -0.239 N 
ATOM     22  C   UNL     1       1.649  -3.585   2.690  0.00  0.00    +0.233 C 
ATOM     23  O   UNL     1       1.191  -4.374   1.893  0.00  0.00    -0.274 OA
ATOM     24  H   UNL     1       1.077   0.142   1.827  0.00  0.00    +0.150 HD
ATOM     25  H   UNL     1       1.872  -1.628   3.124  0.00  0.00    +0.159 HD
BRANCH  18  27
ATOM     26  C   UNL     1      -0.019   1.526   0.010  0.00  0.00    +0.024 C 
ATOM     27  C   UNL     1       0.002  -0.004   0.002  0.00  0.00    +0.102 C 
ENDBRANCH  18  27
ENDBRANCH  16  22
ENDBRANCH  15  16
ENDBRANCH   1  15
TORSDOF 4
