REMARK  Name = ZINC10650091
REMARK  7 active torsions:
REMARK  status: ('A' for Active; 'I' for Inactive)
REMARK    1  A    between atoms: C_3  and  C_31
REMARK    2  A    between atoms: C_4  and  N_8
REMARK    3  A    between atoms: C_9  and  C_11
REMARK    4  A    between atoms: C_11  and  O_12
REMARK    5  A    between atoms: O_12  and  C_13
REMARK    6  A    between atoms: C_13  and  C_15
REMARK    7  A    between atoms: N_18  and  C_20
REMARK                            x       y       z     vdW  Elec       q    Type
REMARK                         _______ _______ _______ _____ _____    ______ ____
ROOT
ATOM      1  C   UNL     1      -4.006   3.084  -4.247  0.00  0.00    +0.360 C 
ATOM      2  O   UNL     1      -3.098   2.280  -4.303  0.00  0.00    -0.243 OA
ENDROOT
BRANCH   1   3
ATOM      3  C   UNL     1      -5.146   2.848  -3.340  0.00  0.00    +0.173 A 
ATOM      4  C   UNL     1      -5.323   1.746  -2.486  0.00  0.00    +0.008 A 
ATOM      5  C   UNL     1      -6.503   1.952  -1.851  0.00  0.00    +0.049 A 
ATOM      6  N   UNL     1      -7.002   3.122  -2.306  0.00  0.00    -0.236 N 
ATOM      7  N   UNL     1      -6.199   3.632  -3.175  0.00  0.00    -0.159 NA
ATOM      8  C   UNL     1      -7.089   1.003  -0.838  0.00  0.00    +0.056 C 
ATOM      9  C   UNL     1      -6.377  -0.349  -0.975  0.00  0.00    +0.006 C 
ATOM     10  C   UNL     1      -4.861  -0.136  -0.966  0.00  0.00    +0.005 C 
ATOM     11  C   UNL     1      -4.433   0.554  -2.268  0.00  0.00    +0.039 C 
BRANCH   6  12
ATOM     12  C   UNL     1      -8.213   3.696  -1.895  0.00  0.00    +0.066 A 
ATOM     13  C   UNL     1      -9.064   4.268  -2.830  0.00  0.00    +0.030 A 
ATOM     14  C   UNL     1     -10.259   4.828  -2.423  0.00  0.00    +0.040 A 
ATOM     15  C   UNL     1     -10.603   4.829  -1.082  0.00  0.00    +0.124 A 
ATOM     16  C   UNL     1      -9.752   4.263  -0.147  0.00  0.00    +0.040 A 
ATOM     17  C   UNL     1      -8.559   3.697  -0.550  0.00  0.00    +0.030 A 
ATOM     18  F   UNL     1     -11.770   5.382  -0.685  0.00  0.00    -0.205 F 
ENDBRANCH   6  12
ENDBRANCH   1   3
BRANCH   1  19
ATOM     19  O   UNL     1      -3.973   4.193  -5.012  0.00  0.00    -0.451 OA
BRANCH  19  20
ATOM     20  C   UNL     1      -2.821   4.360  -5.880  0.00  0.00    +0.328 C 
BRANCH  20  22
ATOM     21  N   UNL     1      -1.998   6.012  -7.527  0.00  0.00    -0.281 N 
ATOM     22  C   UNL     1      -2.957   5.646  -6.653  0.00  0.00    +0.255 C 
ATOM     23  O   UNL     1      -3.929   6.353  -6.489  0.00  0.00    -0.272 OA
ATOM     24  H   UNL     1      -1.252   5.418  -7.706  0.00  0.00    +0.155 HD
BRANCH  21  28
ATOM     25  C   UNL     1      -2.236   9.694  -9.463  0.00  0.00    +0.002 A 
ATOM     26  C   UNL     1      -2.694   8.552 -10.094  0.00  0.00    +0.014 A 
ATOM     27  C   UNL     1      -2.611   7.329  -9.457  0.00  0.00    +0.077 A 
ATOM     28  C   UNL     1      -2.078   7.249  -8.177  0.00  0.00    +0.064 A 
ATOM     29  C   UNL     1      -1.620   8.399  -7.546  0.00  0.00    +0.063 A 
ATOM     30  C   UNL     1      -1.701   9.618  -8.191  0.00  0.00    +0.022 A 
ATOM     31 CL   UNL     1      -0.948   8.303  -5.948  0.00  0.00    -0.082 Cl
BRANCH  27  32
ATOM     32  C   UNL     1      -3.103   6.084 -10.148  0.00  0.00    +0.419 C 
ATOM     33  F   UNL     1      -3.591   6.416 -11.417  0.00  0.00    -0.166 F 
ATOM     34  F   UNL     1      -2.048   5.174 -10.278  0.00  0.00    -0.166 F 
ATOM     35  F   UNL     1      -4.128   5.505  -9.392  0.00  0.00    -0.166 F 
ENDBRANCH  27  32
ENDBRANCH  21  28
ENDBRANCH  20  22
ENDBRANCH  19  20
ENDBRANCH   1  19
TORSDOF 7
