REMARK  Name = ZINC38711789
REMARK  6 active torsions:
REMARK  status: ('A' for Active; 'I' for Inactive)
REMARK    1  A    between atoms: C_5  and  C_7
REMARK    2  A    between atoms: C_7  and  C_9
REMARK    3  A    between atoms: C_11  and  N_34
REMARK    4  A    between atoms: C_14  and  N_15
REMARK    5  A    between atoms: C_16  and  C_18
REMARK    6  A    between atoms: C_24  and  C_26
REMARK                            x       y       z     vdW  Elec       q    Type
REMARK                         _______ _______ _______ _____ _____    ______ ____
ROOT
ATOM      1  C   UNL     1      -0.271  -3.033  -0.781  0.00  0.00    +0.046 A 
ATOM      2  C   UNL     1      -1.482  -2.343  -0.897  0.00  0.00    +0.046 A 
ATOM      3  C   UNL     1      -2.632  -2.881  -0.363  0.00  0.00    +0.127 A 
ATOM      4  C   UNL     1      -2.597  -4.103   0.290  0.00  0.00    +0.034 A 
ATOM      5  C   UNL     1      -1.409  -4.796   0.413  0.00  0.00    +0.026 A 
ATOM      6  C   UNL     1      -0.240  -4.273  -0.124  0.00  0.00    +0.044 A 
ENDROOT
BRANCH   6   7
ATOM      7  N   UNL     1       0.958  -4.973  -0.006  0.00  0.00    -0.285 N 
ATOM      8  C   UNL     1       0.956  -6.321  -0.029  0.00  0.00    +0.221 C 
ATOM      9  O   UNL     1      -0.095  -6.925  -0.060  0.00  0.00    -0.275 OA
ATOM     10  H   UNL     1       1.793  -4.491   0.093  0.00  0.00    +0.155 HD
BRANCH   8  11
ATOM     11  C   UNL     1       2.260  -7.076  -0.018  0.00  0.00    +0.091 C 
ATOM     12  C   UNL     1       3.085  -6.697  -1.249  0.00  0.00    +0.040 C 
ATOM     13  C   UNL     1       4.255  -7.625  -1.393  0.00  0.00    -0.030 C 
ATOM     14  C   UNL     1       4.350  -8.771  -0.797  0.00  0.00    -0.030 C 
ATOM     15  C   UNL     1       3.307  -9.326   0.127  0.00  0.00    +0.040 C 
ATOM     16  C   UNL     1       1.982  -8.584  -0.060  0.00  0.00    +0.091 C 
BRANCH  16  17
ATOM     17  C   UNL     1       1.028  -8.955   1.046  0.00  0.00    +0.220 C 
ATOM     18  O   UNL     1       0.979  -8.284   2.055  0.00  0.00    -0.275 OA
ATOM     19  N   UNL     1       0.231 -10.034   0.915  0.00  0.00    -0.301 N 
ATOM     20  C   UNL     1       0.358 -10.922  -0.249  0.00  0.00    +0.108 C 
ATOM     21  C   UNL     1       0.544 -12.359   0.246  0.00  0.00    +0.019 C 
ATOM     22  C   UNL     1      -0.604 -12.722   1.191  0.00  0.00    +0.003 C 
ATOM     23  C   UNL     1      -0.584 -11.787   2.403  0.00  0.00    +0.019 C 
ATOM     24  C   UNL     1      -0.779 -10.347   1.935  0.00  0.00    +0.108 C 
ENDBRANCH  16  17
ENDBRANCH   8  11
ENDBRANCH   6   7
BRANCH   3  25
ATOM     25  N   UNL     1      -3.913  -2.148  -0.486  0.00  0.00    +0.056 N 
ATOM     26  O   UNL     1      -3.947  -1.082  -1.054  0.00  0.00    -0.126 OA
ATOM     27  O   UNL     1      -4.924  -2.617  -0.019  0.00  0.00    -0.126 OA
ENDBRANCH   3  25
BRANCH   1  28
ATOM     28  C   UNL     1       0.964  -2.464  -1.350  0.00  0.00    +0.196 C 
ATOM     29  O   UNL     1       1.527  -1.545  -0.786  0.00  0.00    -0.287 OA
BRANCH  28  34
ATOM     30  C   UNL     1       1.461  -4.641  -4.369  0.00  0.00    +0.001 A 
ATOM     31  C   UNL     1       2.559  -4.037  -4.959  0.00  0.00    +0.001 A 
ATOM     32  C   UNL     1       3.140  -2.924  -4.379  0.00  0.00    +0.021 A 
ATOM     33  C   UNL     1       2.627  -2.407  -3.205  0.00  0.00    +0.052 A 
ATOM     34  C   UNL     1       1.519  -3.011  -2.605  0.00  0.00    +0.041 A 
ATOM     35  C   UNL     1       0.938  -4.135  -3.198  0.00  0.00    +0.013 A 
ATOM     36 CL   UNL     1       3.357  -1.010  -2.478  0.00  0.00    -0.083 Cl
ENDBRANCH  28  34
ENDBRANCH   1  28
TORSDOF 6
