REMARK  Name = ZINC01422890
REMARK  11 active torsions:
REMARK  status: ('A' for Active; 'I' for Inactive)
REMARK    1  A    between atoms: C_1  and  C_2
REMARK    2  A    between atoms: C_2  and  O_3
REMARK    3  A    between atoms: O_3  and  C_4
REMARK    4  A    between atoms: C_4  and  C_6
REMARK    5  A    between atoms: C_7  and  C_22
REMARK    6  A    between atoms: C_12  and  C_14
REMARK    7  A    between atoms: C_16  and  C_21
REMARK    8  A    between atoms: C_19  and  C_20
REMARK    9  A    between atoms: C_22  and  S_23
REMARK   10  A    between atoms: S_23  and  C_24
REMARK   11  A    between atoms: N_34  and  C_35
REMARK                            x       y       z     vdW  Elec       q    Type
REMARK                         _______ _______ _______ _____ _____    ______ ____
ROOT
ATOM      1  C   UNL     1      -1.636   0.723   1.966  0.00  0.00    +0.079 C 
ATOM      2  C   UNL     1      -0.731   1.464   1.291  0.00  0.00    +0.034 C 
ATOM      3  N   UNL     1      -0.425   2.735   1.686  0.00  0.00    -0.272 N 
ATOM      4  C   UNL     1      -0.989   3.341   2.739  0.00  0.00    +0.304 C 
ATOM      5  O   UNL     1      -0.655   4.478   3.010  0.00  0.00    -0.252 OA
ATOM      6  N   UNL     1      -1.909   2.729   3.511  0.00  0.00    -0.288 N 
ATOM      7  C   UNL     1      -2.304   1.351   3.172  0.00  0.00    +0.144 C 
ATOM      8  H   UNL     1       0.234   3.228   1.173  0.00  0.00    +0.156 HD
ATOM      9  H   UNL     1      -2.301   3.185   4.271  0.00  0.00    +0.151 HD
ENDROOT
BRANCH   7  10
ATOM     10  C   UNL     1      -3.792   1.341   2.937  0.00  0.00    -0.019 A 
ATOM     11  C   UNL     1      -4.406   2.427   2.340  0.00  0.00    +0.009 A 
ATOM     12  C   UNL     1      -5.771   2.415   2.120  0.00  0.00    -0.050 A 
ATOM     13  C   UNL     1      -6.523   1.321   2.505  0.00  0.00    +0.003 A 
ATOM     14  C   UNL     1      -5.911   0.237   3.106  0.00  0.00    +0.004 A 
ATOM     15  C   UNL     1      -4.545   0.247   3.322  0.00  0.00    -0.045 A 
ATOM     16  C   UNL     1      -3.877  -0.934   3.977  0.00  0.00    +0.044 C 
ATOM     17  C   UNL     1      -6.438   3.596   1.465  0.00  0.00    +0.044 C 
ENDBRANCH   7  10
BRANCH   1  18
ATOM     18  C   UNL     1      -1.949  -0.596   1.561  0.00  0.00    +0.339 C 
ATOM     19  O   UNL     1      -2.936  -0.806   0.882  0.00  0.00    -0.245 OA
BRANCH  18  20
ATOM     20  O   UNL     1      -1.153  -1.622   1.929  0.00  0.00    -0.462 OA
BRANCH  20  22
ATOM     21  C   UNL     1      -0.389  -3.912   1.818  0.00  0.00    +0.048 C 
ATOM     22  C   UNL     1      -1.463  -2.909   1.392  0.00  0.00    +0.229 C 
ENDBRANCH  20  22
ENDBRANCH  18  20
ENDBRANCH   1  18
BRANCH   2  23
ATOM     23  C   UNL     1      -0.043   0.876   0.086  0.00  0.00    +0.128 C 
BRANCH  23  24
ATOM     24  S   UNL     1      -0.741   1.598  -1.420  0.00  0.00    -0.078 S 
BRANCH  24  25
ATOM     25  C   UNL     1       0.218   0.758  -2.636  0.00  0.00    +0.212 A 
ATOM     26  N   UNL     1       0.008   1.014  -3.921  0.00  0.00    -0.201 NA
ATOM     27  C   UNL     1       0.733   0.379  -4.837  0.00  0.00    +0.165 A 
ATOM     28  C   UNL     1       1.702  -0.547  -4.399  0.00  0.00    +0.138 A 
ATOM     29  C   UNL     1       2.339  -1.085  -5.614  0.00  0.00    +0.029 A 
ATOM     30  C   UNL     1       3.350  -2.017  -5.835  0.00  0.00    +0.012 A 
ATOM     31  C   UNL     1       3.735  -2.316  -7.124  0.00  0.00    +0.001 A 
ATOM     32  C   UNL     1       3.120  -1.692  -8.199  0.00  0.00    +0.002 A 
ATOM     33  C   UNL     1       2.119  -0.768  -7.994  0.00  0.00    +0.026 A 
ATOM     34  C   UNL     1       1.716  -0.452  -6.700  0.00  0.00    +0.053 A 
ATOM     35  N   UNL     1       0.758   0.419  -6.209  0.00  0.00    -0.327 N 
ATOM     36  C   UNL     1      -0.107   1.264  -7.036  0.00  0.00    +0.151 C 
ATOM     37  N   UNL     1       1.863  -0.758  -3.101  0.00  0.00    -0.143 NA
ATOM     38  N   UNL     1       1.142  -0.115  -2.248  0.00  0.00    -0.122 NA
ENDBRANCH  24  25
ENDBRANCH  23  24
ENDBRANCH   2  23
TORSDOF 7
