REMARK  Name = ZINC02205653
REMARK  17 active torsions:
REMARK  status: ('A' for Active; 'I' for Inactive)
REMARK    1  A    between atoms: C_1  and  C_2
REMARK    2  A    between atoms: C_2  and  C_3
REMARK    3  A    between atoms: C_2  and  C_4
REMARK    4  A    between atoms: C_4  and  N_5
REMARK    5  A    between atoms: N_5  and  C_6
REMARK    6  A    between atoms: N_5  and  C_10
REMARK    7  A    between atoms: C_6  and  C_7
REMARK    8  A    between atoms: C_7  and  C_8
REMARK    9  A    between atoms: C_7  and  C_9
REMARK   10  A    between atoms: C_10  and  C_11
REMARK   11  A    between atoms: C_11  and  C_13
REMARK   12  A    between atoms: C_11  and  O_33
REMARK   13  A    between atoms: C_13  and  N_14
REMARK   14  A    between atoms: N_14  and  C_15
REMARK   15  A    between atoms: N_14  and  S_21
REMARK   16  A    between atoms: S_21  and  C_24
REMARK   17  A    between atoms: C_29  and  N_30
REMARK                            x       y       z     vdW  Elec       q    Type
REMARK                         _______ _______ _______ _____ _____    ______ ____
ROOT
ATOM      1  N   UNL     1       5.807  -1.468  -5.140  0.00  0.00    -0.201 N 
ENDROOT
BRANCH   1   2
ATOM      2  C   UNL     1       6.506  -2.656  -4.912  0.00  0.00    +0.051 A 
ATOM      3  C   UNL     1       6.222  -3.427  -3.792  0.00  0.00    +0.025 A 
ATOM      4  C   UNL     1       6.914  -4.601  -3.570  0.00  0.00    +0.002 A 
ATOM      5  C   UNL     1       7.890  -5.009  -4.461  0.00  0.00    +0.000 A 
ATOM      6  C   UNL     1       8.176  -4.244  -5.577  0.00  0.00    +0.002 A 
ATOM      7  C   UNL     1       7.483  -3.071  -5.808  0.00  0.00    +0.025 A 
ENDBRANCH   1   2
BRANCH   1   8
ATOM      8  S   UNL     1       6.486  -0.272  -6.062  0.00  0.00    +0.077 S 
ATOM      9  O   UNL     1       5.813   0.933  -5.724  0.00  0.00    -0.150 OA
ATOM     10  O   UNL     1       7.895  -0.417  -5.943  0.00  0.00    -0.150 OA
BRANCH   8  11
ATOM     11  C   UNL     1       6.085  -0.618  -7.743  0.00  0.00    +0.139 A 
ATOM     12  C   UNL     1       5.121  -1.563  -8.043  0.00  0.00    +0.031 A 
ATOM     13  C   UNL     1       4.806  -1.835  -9.361  0.00  0.00    +0.002 A 
ATOM     14  C   UNL     1       5.455  -1.161 -10.379  0.00  0.00    +0.002 A 
ATOM     15  C   UNL     1       6.418  -0.216 -10.079  0.00  0.00    +0.035 A 
ATOM     16  C   UNL     1       6.730   0.059  -8.761  0.00  0.00    +0.153 A 
BRANCH  16  17
ATOM     17  N   UNL     1       7.757   1.075  -8.439  0.00  0.00    +0.058 N 
ATOM     18  O   UNL     1       8.413   1.572  -9.325  0.00  0.00    -0.126 OA
ATOM     19  O   UNL     1       7.940   1.407  -7.292  0.00  0.00    -0.126 OA
ENDBRANCH  16  17
ENDBRANCH   8  11
ENDBRANCH   1   8
BRANCH   1  20
ATOM     20  C   UNL     1       4.473  -1.281  -4.564  0.00  0.00    +0.161 C 
BRANCH  20  21
ATOM     21  C   UNL     1       4.606  -0.774  -3.126  0.00  0.00    +0.117 C 
BRANCH  21  22
ATOM     22  O   UNL     1       5.284   0.484  -3.125  0.00  0.00    -0.392 OA
ATOM     23  H   UNL     1       4.794   1.195  -3.560  0.00  0.00    +0.210 HD
ENDBRANCH  21  22
BRANCH  21  24
ATOM     24  C   UNL     1       3.214  -0.604  -2.515  0.00  0.00    -0.046 C 
BRANCH  24  25
ATOM     25  N   UNL     1       3.341  -0.132  -1.130  0.00  0.00    +0.382 N 
ATOM     26  H   UNL     1       3.913   0.699  -1.109  0.00  0.00    -0.082 HD
BRANCH  25  27
ATOM     27  C   UNL     1       2.009   0.177  -0.593  0.00  0.00    -0.076 C 
BRANCH  27  29
ATOM     28  C   UNL     1       2.491   2.627  -0.504  0.00  0.00    +0.005 C 
ATOM     29  C   UNL     1       2.099   1.400   0.322  0.00  0.00    -0.034 C 
ATOM     30  C   UNL     1       0.740   1.643   0.982  0.00  0.00    +0.005 C 
ENDBRANCH  27  29
ENDBRANCH  25  27
BRANCH  25  31
ATOM     31  C   UNL     1       3.969  -1.178  -0.312  0.00  0.00    -0.076 C 
BRANCH  31  32
ATOM     32  C   UNL     1       4.260  -0.627   1.085  0.00  0.00    -0.034 C 
ATOM     33  C   UNL     1       4.851  -1.736   1.958  0.00  0.00    +0.005 C 
ATOM     34  C   UNL     1       5.260   0.526   0.980  0.00  0.00    +0.005 C 
ENDBRANCH  31  32
ENDBRANCH  25  31
ENDBRANCH  24  25
ENDBRANCH  21  24
ENDBRANCH  20  21
ENDBRANCH   1  20
TORSDOF 13
