REMARK  Name = ZINC09739115
REMARK  6 active torsions:
REMARK  status: ('A' for Active; 'I' for Inactive)
REMARK    1  A    between atoms: C_3  and  C_6
REMARK    2  A    between atoms: C_9  and  C_28
REMARK    3  A    between atoms: C_12  and  C_14
REMARK    4  A    between atoms: C_14  and  N_54
REMARK    5  A    between atoms: N_17  and  S_20
REMARK    6  A    between atoms: S_20  and  C_23
REMARK                            x       y       z     vdW  Elec       q    Type
REMARK                         _______ _______ _______ _____ _____    ______ ____
ROOT
ATOM      1  C   UNL     1      -4.309   2.646   8.748  0.00  0.00    +0.172 C 
ATOM      2  C   UNL     1      -3.545   2.326  10.048  0.00  0.00    +0.090 C 
ATOM      3  C   UNL     1      -2.112   2.685   9.725  0.00  0.00    +0.075 C 
ATOM      4  N   UNL     1      -2.038   3.114   8.509  0.00  0.00    -0.180 NA
ATOM      5  N   UNL     1      -3.261   3.141   7.842  0.00  0.00    -0.184 N 
ATOM      6  C   UNL     1      -3.452   3.549   6.572  0.00  0.00    +0.219 C 
ATOM      7  O   UNL     1      -4.564   3.526   6.088  0.00  0.00    -0.276 OA
ENDROOT
BRANCH   1  10
ATOM      8  C   UNL     1      -7.263   4.774   9.321  0.00  0.00    +0.041 A 
ATOM      9  C   UNL     1      -6.673   3.510   9.094  0.00  0.00    +0.046 A 
ATOM     10  C   UNL     1      -5.347   3.711   8.992  0.00  0.00    +0.128 A 
ATOM     11  O   UNL     1      -5.103   5.023   9.149  0.00  0.00    -0.466 OA
ATOM     12  C   UNL     1      -6.262   5.673   9.343  0.00  0.00    +0.195 A 
ENDBRANCH   1  10
BRANCH   3  13
ATOM     13  C   UNL     1      -0.979   2.560  10.649  0.00  0.00    +0.035 A 
ATOM     14  C   UNL     1       0.356   2.857  10.437  0.00  0.00    +0.017 A 
ATOM     15  C   UNL     1       1.242   2.656  11.470  0.00  0.00    +0.008 A 
ATOM     16  C   UNL     1       0.785   2.167  12.652  0.00  0.00    +0.046 A 
ATOM     17  S   UNL     1      -0.962   1.976  12.336  0.00  0.00    -0.095 S 
ENDBRANCH   3  13
BRANCH   6  18
ATOM     18  C   UNL     1      -2.284   4.035   5.753  0.00  0.00    +0.021 C 
BRANCH  18  24
ATOM     19  C   UNL     1      -1.694   5.116   3.668  0.00  0.00    -0.061 C 
ATOM     20  C   UNL     1      -2.271   5.657   2.356  0.00  0.00    +0.091 C 
ATOM     21  N   UNL     1      -2.913   4.548   1.635  0.00  0.00    -0.180 NA
ATOM     22  C   UNL     1      -3.889   3.720   2.360  0.00  0.00    +0.091 C 
ATOM     23  C   UNL     1      -3.244   3.251   3.673  0.00  0.00    -0.061 C 
ATOM     24  N   UNL     1      -2.773   4.439   4.419  0.00  0.00    +0.387 N 
ATOM     25  H   UNL     1      -3.558   5.091   4.535  0.00  0.00    -0.081 HD
BRANCH  21  26
ATOM     26  S   UNL     1      -2.551   4.243   0.049  0.00  0.00    +0.067 S 
ATOM     27  O   UNL     1      -2.072   5.463  -0.500  0.00  0.00    -0.152 OA
ATOM     28  O   UNL     1      -3.664   3.547  -0.496  0.00  0.00    -0.152 OA
BRANCH  26  29
ATOM     29  C   UNL     1      -1.196   3.116   0.030  0.00  0.00    +0.143 A 
ATOM     30  C   UNL     1      -1.213   1.761   0.017  0.00  0.00    +0.036 A 
ATOM     31  C   UNL     1      -0.013   1.076   0.008  0.00  0.00    +0.010 A 
ATOM     32  C   UNL     1       1.146   1.780   0.001  0.00  0.00    +0.047 A 
ATOM     33  S   UNL     1       0.555   3.464   0.015  0.00  0.00    -0.077 S 
ENDBRANCH  26  29
ENDBRANCH  21  26
ENDBRANCH  18  24
ENDBRANCH   6  18
TORSDOF 6
