REMARK  Name = ZINC65425640
REMARK  4 active torsions:
REMARK  status: ('A' for Active; 'I' for Inactive)
REMARK    1  A    between atoms: C_9  and  C_11
REMARK    2  A    between atoms: C_11  and  C_12
REMARK    3  A    between atoms: C_12  and  N_13
REMARK    4  A    between atoms: N_17  and  C_20
REMARK                            x       y       z     vdW  Elec       q    Type
REMARK                         _______ _______ _______ _____ _____    ______ ____
ROOT
ATOM      1  C   UNL     1      -3.720   1.142   3.639  0.00  0.00    +0.001 A 
ATOM      2  C   UNL     1      -3.637  -0.245   3.566  0.00  0.00    +0.002 A 
ATOM      3  C   UNL     1      -3.573  -0.883   2.363  0.00  0.00    +0.028 A 
ATOM      4  C   UNL     1      -3.592  -0.131   1.180  0.00  0.00    +0.076 A 
ATOM      5  C   UNL     1      -3.677   1.280   1.257  0.00  0.00    +0.040 A 
ATOM      6  C   UNL     1      -3.746   1.903   2.508  0.00  0.00    +0.013 A 
ATOM      7  C   UNL     1      -3.695   2.016   0.047  0.00  0.00    +0.133 A 
ATOM      8  N   UNL     1      -3.630   1.345  -1.095  0.00  0.00    -0.217 NA
ATOM      9  C   UNL     1      -3.552   0.024  -1.117  0.00  0.00    +0.130 A 
ATOM     10  N   UNL     1      -3.531  -0.708  -0.030  0.00  0.00    -0.232 NA
ATOM     11  N   UNL     1      -3.777   3.392   0.056  0.00  0.00    -0.312 N 
ATOM     12  C   UNL     1      -2.565   4.213   0.190  0.00  0.00    +0.125 C 
ATOM     13  C   UNL     1      -2.501   5.189  -0.992  0.00  0.00    +0.124 C 
ATOM     14  N   UNL     1      -3.802   5.861  -1.116  0.00  0.00    -0.326 N 
ATOM     15  C   UNL     1      -5.014   5.040  -1.250  0.00  0.00    +0.124 C 
ATOM     16  C   UNL     1      -5.077   4.065  -0.074  0.00  0.00    +0.125 C 
ENDROOT
BRANCH  14  17
ATOM     17  C   UNL     1      -3.885   7.242  -1.107  0.00  0.00    +0.055 A 
ATOM     18  C   UNL     1      -5.144   7.881  -1.079  0.00  0.00    +0.156 A 
ATOM     19  N   UNL     1      -5.224   9.182  -1.070  0.00  0.00    -0.178 NA
ATOM     20  N   UNL     1      -4.071   9.974  -1.088  0.00  0.00    -0.243 N 
ATOM     21  C   UNL     1      -2.849   9.407  -1.114  0.00  0.00    +0.266 A 
ATOM     22  O   UNL     1      -1.848  10.106  -1.129  0.00  0.00    -0.266 OA
ATOM     23  C   UNL     1      -2.735   8.010  -1.119  0.00  0.00    +0.096 A 
ATOM     24  H   UNL     1      -4.153  10.941  -1.081  0.00  0.00    +0.192 HD
ENDBRANCH  14  17
BRANCH   9  25
ATOM     25  C   UNL     1      -3.482  -0.670  -2.453  0.00  0.00    +0.057 C 
BRANCH  25  26
ATOM     26  C   UNL     1      -2.019  -0.820  -2.875  0.00  0.00    -0.079 C 
BRANCH  26  27
ATOM     27  N   UNL     1      -1.951  -1.496  -4.177  0.00  0.00    +0.378 N 
ATOM     28  H   UNL     1      -2.375  -2.409  -4.104  0.00  0.00    -0.090 HD
ATOM     29  H   UNL     1      -2.445  -0.950  -4.866  0.00  0.00    -0.090 HD
ATOM     30  H   UNL     1      -0.986  -1.595  -4.455  0.00  0.00    -0.090 HD
ENDBRANCH  26  27
ENDBRANCH  25  26
ENDBRANCH   9  25
TORSDOF 4
