REMARK  Name = ZINC18200601
REMARK  3 active torsions:
REMARK  status: ('A' for Active; 'I' for Inactive)
REMARK    1  A    between atoms: C_3  and  C_6
REMARK    2  A    between atoms: C_11  and  C_20
REMARK    3  A    between atoms: C_23  and  C_26
REMARK                            x       y       z     vdW  Elec       q    Type
REMARK                         _______ _______ _______ _____ _____    ______ ____
ROOT
ATOM      1  C   UNL     1      -1.155  -0.969   0.007  0.00  0.00    +0.039 C 
ATOM      2  C   UNL     1      -2.001  -0.753   1.264  0.00  0.00    +0.060 C 
ATOM      3  C   UNL     1      -3.184  -1.692   1.248  0.00  0.00    +0.020 C 
ATOM      4  C   UNL     1      -3.748  -2.076   0.083  0.00  0.00    +0.041 C 
ATOM      5  C   UNL     1      -4.943  -3.002   0.036  0.00  0.00    +0.175 C 
ATOM      6  N   UNL     1      -5.137  -3.634   1.335  0.00  0.00    -0.219 N 
ATOM      7  C   UNL     1      -4.526  -3.211   2.469  0.00  0.00    +0.220 A 
ATOM      8  N   UNL     1      -4.916  -3.978   3.450  0.00  0.00    -0.180 NA
ATOM      9  C   UNL     1      -5.769  -4.902   2.985  0.00  0.00    +0.233 A 
ATOM     10  N   UNL     1      -5.930  -4.724   1.691  0.00  0.00    -0.132 NA
ATOM     11  N   UNL     1      -6.389  -5.892   3.749  0.00  0.00    -0.326 N 
ATOM     12  N   UNL     1      -3.651  -2.138   2.461  0.00  0.00    -0.287 N 
ATOM     13  C   UNL     1      -3.238  -1.626  -1.148  0.00  0.00    +0.164 C 
ATOM     14  O   UNL     1      -3.778  -1.977  -2.179  0.00  0.00    -0.292 OA
ATOM     15  C   UNL     1      -2.041  -0.720  -1.218  0.00  0.00    +0.088 C 
ATOM     16  H   UNL     1      -6.995  -6.521   3.329  0.00  0.00    +0.145 HD
ATOM     17  H   UNL     1      -6.212  -5.950   4.702  0.00  0.00    +0.145 HD
ATOM     18  H   UNL     1      -3.376  -1.713   3.289  0.00  0.00    +0.155 HD
ENDROOT
BRANCH   5  19
ATOM     19  C   UNL     1      -6.175  -2.212  -0.325  0.00  0.00    -0.018 A 
ATOM     20  C   UNL     1      -6.590  -1.175   0.490  0.00  0.00    +0.007 A 
ATOM     21  C   UNL     1      -7.713  -0.443   0.162  0.00  0.00    +0.015 A 
ATOM     22  C   UNL     1      -8.438  -0.760  -0.989  0.00  0.00    +0.063 A 
ATOM     23  C   UNL     1      -8.016  -1.813  -1.804  0.00  0.00    +0.015 A 
ATOM     24  C   UNL     1      -6.887  -2.531  -1.468  0.00  0.00    +0.007 A 
BRANCH  22  25
ATOM     25  C   UNL     1      -9.645   0.014  -1.342  0.00  0.00    +0.387 C 
ATOM     26  O   UNL     1     -10.274  -0.265  -2.344  0.00  0.00    -0.241 OA
ATOM     27  O   UNL     1     -10.050   1.028  -0.553  0.00  0.00    -0.241 OA
ENDBRANCH  22  25
ENDBRANCH   5  19
BRANCH   1  30
ATOM     28  C   UNL     1       2.223   0.790  -0.015  0.00  0.00    +0.008 A 
ATOM     29  C   UNL     1       1.332  -0.266  -0.012  0.00  0.00    +0.011 A 
ATOM     30  C   UNL     1       0.002  -0.004   0.002  0.00  0.00    -0.006 A 
ATOM     31  S   UNL     1      -0.022   1.781   0.012  0.00  0.00    -0.101 S 
ATOM     32  C   UNL     1       1.742   2.057  -0.004  0.00  0.00    +0.045 A 
ENDBRANCH   1  30
TORSDOF 3
