REMARK  Name = ZINC59645023
REMARK  8 active torsions:
REMARK  status: ('A' for Active; 'I' for Inactive)
REMARK    1  A    between atoms: C_1  and  C_2
REMARK    2  A    between atoms: C_4  and  N_9
REMARK    3  A    between atoms: C_10  and  C_27
REMARK    4  A    between atoms: C_12  and  C_15
REMARK    5  A    between atoms: C_13  and  C_14
REMARK    6  A    between atoms: N_16  and  N_17
REMARK    7  A    between atoms: C_18  and  C_20
REMARK    8  A    between atoms: C_20  and  C_21
REMARK                            x       y       z     vdW  Elec       q    Type
REMARK                         _______ _______ _______ _____ _____    ______ ____
ROOT
ATOM      1  N   UNL     1       0.028  -2.772  -2.422  0.00  0.00    -0.317 N 
ATOM      2  C   UNL     1      -0.989  -2.759  -3.334  0.00  0.00    +0.022 A 
ATOM      3  C   UNL     1      -0.645  -3.535  -4.378  0.00  0.00    +0.032 A 
ATOM      4  C   UNL     1       0.689  -4.067  -4.085  0.00  0.00    +0.016 A 
ATOM      5  C   UNL     1       1.046  -3.554  -2.870  0.00  0.00    +0.030 A 
ATOM      6  C   UNL     1       2.344  -3.814  -2.150  0.00  0.00    +0.064 C 
ATOM      7  C   UNL     1      -2.283  -2.001  -3.193  0.00  0.00    +0.064 C 
ENDROOT
BRANCH   1  11
ATOM      8  C   UNL     1      -0.018   1.503   0.010  0.00  0.00    +0.045 C 
ATOM      9  C   UNL     1       0.002  -0.004   0.002  0.00  0.00    -0.035 A 
ATOM     10  C   UNL     1       0.006  -0.688  -1.198  0.00  0.00    +0.030 A 
ATOM     11  C   UNL     1       0.025  -2.076  -1.205  0.00  0.00    +0.047 A 
ATOM     12  C   UNL     1       0.040  -2.773  -0.005  0.00  0.00    +0.027 A 
ATOM     13  C   UNL     1       0.036  -2.085   1.192  0.00  0.00    +0.016 A 
ATOM     14  C   UNL     1       0.023  -0.701   1.196  0.00  0.00    +0.016 A 
ATOM     15  I   UNL     1       0.027   0.339   3.015  0.00  0.00    -0.044 I 
ENDBRANCH   1  11
BRANCH   4  16
ATOM     16  C   UNL     1       1.487  -4.970  -4.933  0.00  0.00    +0.140 C 
ATOM     17  N   UNL     1       2.661  -5.362  -4.540  0.00  0.00    -0.188 NA
BRANCH  17  18
ATOM     18  N   UNL     1       3.420  -6.220  -5.346  0.00  0.00    -0.207 N 
ATOM     19  C   UNL     1       4.638  -6.626  -4.937  0.00  0.00    +0.238 C 
ATOM     20  O   UNL     1       5.078  -6.248  -3.871  0.00  0.00    -0.274 OA
ATOM     21  H   UNL     1       3.069  -6.521  -6.198  0.00  0.00    +0.177 HD
BRANCH  19  22
ATOM     22  C   UNL     1       5.455  -7.549  -5.805  0.00  0.00    +0.153 C 
BRANCH  22  23
ATOM     23  C   UNL     1       6.766  -7.849  -5.124  0.00  0.00    +0.059 A 
ATOM     24  C   UNL     1       7.168  -9.121  -4.893  0.00  0.00    +0.072 A 
ATOM     25  S   UNL     1       8.737  -8.835  -4.092  0.00  0.00    -0.061 S 
ATOM     26  C   UNL     1       8.717  -7.153  -4.134  0.00  0.00    +0.156 A 
ATOM     27  N   UNL     1       7.576  -6.882  -4.732  0.00  0.00    -0.230 NA
ATOM     28  N   UNL     1       9.673  -6.268  -3.660  0.00  0.00    -0.338 N 
ATOM     29  H   UNL     1      10.479  -6.604  -3.239  0.00  0.00    +0.144 HD
ATOM     30  H   UNL     1       9.535  -5.312  -3.749  0.00  0.00    +0.144 HD
ENDBRANCH  22  23
ENDBRANCH  19  22
ENDBRANCH  17  18
ENDBRANCH   4  16
TORSDOF 5
