REMARK  Name = ZINC20710066
REMARK  9 active torsions:
REMARK  status: ('A' for Active; 'I' for Inactive)
REMARK    1  A    between atoms: C_1  and  C_2
REMARK    2  A    between atoms: C_2  and  C_3
REMARK    3  A    between atoms: C_3  and  C_5
REMARK    4  A    between atoms: C_3  and  N_6
REMARK    5  A    between atoms: N_6  and  S_7
REMARK    6  A    between atoms: S_7  and  C_10
REMARK    7  A    between atoms: C_23  and  C_26
REMARK    8  A    between atoms: C_28  and  N_33
REMARK    9  A    between atoms: C_31  and  O_32
REMARK                            x       y       z     vdW  Elec       q    Type
REMARK                         _______ _______ _______ _____ _____    ______ ____
ROOT
ATOM      1  C   UNL     1      -2.318  -0.896  -1.810  0.00  0.00    +0.106 A 
ATOM      2  C   UNL     1      -1.531   0.241  -1.767  0.00  0.00    +0.030 A 
ATOM      3  C   UNL     1      -1.794   1.288  -2.627  0.00  0.00    +0.025 A 
ATOM      4  C   UNL     1      -2.844   1.198  -3.531  0.00  0.00    +0.031 A 
ATOM      5  C   UNL     1      -3.635   0.060  -3.580  0.00  0.00    -0.018 A 
ATOM      6  C   UNL     1      -3.358  -0.988  -2.712  0.00  0.00    +0.034 A 
ATOM      7  C   UNL     1      -4.773  -0.083  -4.539  0.00  0.00    +0.049 C 
ATOM      8  C   UNL     1      -6.105   0.076  -3.845  0.00  0.00    -0.023 C 
ATOM      9  C   UNL     1      -6.954   0.696  -4.628  0.00  0.00    -0.030 C 
ATOM     10  C   UNL     1      -6.304   1.030  -5.956  0.00  0.00    +0.033 C 
ATOM     11  C   UNL     1      -4.793   1.018  -5.617  0.00  0.00    +0.029 C 
ATOM     12  C   UNL     1      -4.449   2.371  -4.988  0.00  0.00    +0.108 C 
ATOM     13  N   UNL     1      -3.101   2.270  -4.393  0.00  0.00    -0.336 N 
ATOM     14  H   UNL     1      -2.336   3.024  -4.632  0.00  0.00    +0.147 HD
ENDROOT
BRANCH  12  15
ATOM     15  C   UNL     1      -5.474   2.715  -3.937  0.00  0.00    +0.017 A 
ATOM     16  C   UNL     1      -6.771   3.011  -4.308  0.00  0.00    +0.041 A 
ATOM     17  C   UNL     1      -7.713   3.321  -3.344  0.00  0.00    +0.127 A 
ATOM     18  C   UNL     1      -7.356   3.346  -2.008  0.00  0.00    +0.036 A 
ATOM     19  C   UNL     1      -6.059   3.056  -1.633  0.00  0.00    +0.048 A 
ATOM     20  C   UNL     1      -5.114   2.739  -2.598  0.00  0.00    +0.122 A 
BRANCH  17  21
ATOM     21  N   UNL     1      -9.104   3.633  -3.744  0.00  0.00    +0.056 N 
ATOM     22  O   UNL     1      -9.933   3.912  -2.896  0.00  0.00    -0.126 OA
ATOM     23  O   UNL     1      -9.419   3.611  -4.920  0.00  0.00    -0.126 OA
ENDBRANCH  17  21
BRANCH  20  24
ATOM     24  O   UNL     1      -3.837   2.453  -2.231  0.00  0.00    -0.506 OA
ATOM     25  H   UNL     1      -3.552   2.472  -1.169  0.00  0.00    +0.292 HD
ENDBRANCH  20  24
ENDBRANCH  12  15
BRANCH   1  26
ATOM     26  S   UNL     1      -1.987  -2.235  -0.714  0.00  0.00    +0.059 S 
ATOM     27  O   UNL     1      -2.522  -3.401  -1.324  0.00  0.00    -0.153 OA
ATOM     28  O   UNL     1      -0.619  -2.128  -0.344  0.00  0.00    -0.153 OA
BRANCH  26  29
ATOM     29  N   UNL     1      -2.871  -1.971   0.662  0.00  0.00    -0.187 NA
ATOM     30  H   UNL     1      -2.360  -1.623   1.571  0.00  0.00    +0.148 HD
BRANCH  29  31
ATOM     31  C   UNL     1      -4.335  -1.990   0.606  0.00  0.00    +0.073 C 
ATOM     32  C   UNL     1      -4.857  -0.562   0.435  0.00  0.00    +0.025 C 
BRANCH  31  34
ATOM     33  C   UNL     1      -4.468  -4.050   2.013  0.00  0.00    +0.005 C 
ATOM     34  C   UNL     1      -4.887  -2.583   1.904  0.00  0.00    +0.017 C 
ENDBRANCH  31  34
ENDBRANCH  29  31
ENDBRANCH  26  29
ENDBRANCH   1  26
TORSDOF 7
