REMARK  Name = ZINC39923076
REMARK  8 active torsions:
REMARK  status: ('A' for Active; 'I' for Inactive)
REMARK    1  A    between atoms: C_4  and  O_25
REMARK    2  A    between atoms: C_5  and  C_7
REMARK    3  A    between atoms: C_9  and  C_13
REMARK    4  A    between atoms: N_15  and  N_16
REMARK    5  A    between atoms: C_17  and  C_18
REMARK    6  A    between atoms: C_22  and  O_24
REMARK    7  A    between atoms: O_25  and  C_26
REMARK    8  A    between atoms: C_26  and  C_27
REMARK                            x       y       z     vdW  Elec       q    Type
REMARK                         _______ _______ _______ _____ _____    ______ ____
ROOT
ATOM      1  C   UNL     1       0.425  -3.924  -1.088  0.00  0.00    +0.095 C 
ATOM      2  C   UNL     1       1.667  -4.425  -0.937  0.00  0.00    +0.041 C 
ATOM      3  C   UNL     1       1.430  -5.851  -0.471  0.00  0.00    +0.240 C 
ATOM      4  N   UNL     1      -0.038  -5.949  -0.425  0.00  0.00    -0.170 NA
ATOM      5  N   UNL     1      -0.506  -4.861  -0.769  0.00  0.00    -0.153 NA
ENDROOT
BRANCH   1  10
ATOM      6  C   UNL     1      -1.486  -0.838  -2.066  0.00  0.00    +0.001 A 
ATOM      7  C   UNL     1      -0.457   0.038  -2.366  0.00  0.00    +0.004 A 
ATOM      8  C   UNL     1       0.859  -0.368  -2.253  0.00  0.00    +0.046 A 
ATOM      9  C   UNL     1       1.155  -1.656  -1.837  0.00  0.00    +0.130 A 
ATOM     10  C   UNL     1       0.118  -2.543  -1.533  0.00  0.00    +0.044 A 
ATOM     11  C   UNL     1      -1.205  -2.124  -1.651  0.00  0.00    +0.014 A 
BRANCH   9  12
ATOM     12  O   UNL     1       2.449  -2.056  -1.726  0.00  0.00    -0.487 OA
BRANCH  12  13
ATOM     13  C   UNL     1       3.455  -1.096  -2.053  0.00  0.00    +0.264 C 
BRANCH  13  14
ATOM     14  C   UNL     1       4.817  -1.714  -1.872  0.00  0.00    -0.010 A 
ATOM     15  C   UNL     1       5.456  -1.631  -0.648  0.00  0.00    +0.008 A 
ATOM     16  C   UNL     1       6.706  -2.198  -0.481  0.00  0.00    +0.020 A 
ATOM     17  C   UNL     1       7.317  -2.849  -1.538  0.00  0.00    +0.041 A 
ATOM     18  C   UNL     1       6.677  -2.931  -2.762  0.00  0.00    +0.020 A 
ATOM     19  C   UNL     1       5.426  -2.369  -2.927  0.00  0.00    +0.008 A 
ATOM     20 CL   UNL     1       8.887  -3.560  -1.329  0.00  0.00    -0.084 Cl
ENDBRANCH  13  14
ENDBRANCH  12  13
ENDBRANCH   9  12
ENDBRANCH   1  10
BRANCH   3  21
ATOM     21  C   UNL     1       2.025  -6.069   0.896  0.00  0.00    +0.263 C 
ATOM     22  O   UNL     1       1.314  -6.040   1.878  0.00  0.00    -0.271 OA
ATOM     23  N   UNL     1       3.347  -6.298   1.027  0.00  0.00    -0.205 N 
ATOM     24  H   UNL     1       3.915  -6.321   0.241  0.00  0.00    +0.177 HD
BRANCH  23  25
ATOM     25  N   UNL     1       3.900  -6.501   2.298  0.00  0.00    -0.188 NA
ATOM     26  C   UNL     1       5.147  -6.837   2.416  0.00  0.00    +0.138 C 
BRANCH  26  27
ATOM     27  C   UNL     1       6.067  -6.671   1.276  0.00  0.00    -0.002 A 
ATOM     28  C   UNL     1       5.733  -5.814   0.224  0.00  0.00    +0.010 A 
ATOM     29  C   UNL     1       6.596  -5.661  -0.841  0.00  0.00    +0.004 A 
ATOM     30  C   UNL     1       7.793  -6.354  -0.872  0.00  0.00    +0.045 A 
ATOM     31  C   UNL     1       8.134  -7.208   0.168  0.00  0.00    +0.117 A 
ATOM     32  C   UNL     1       7.278  -7.365   1.245  0.00  0.00    +0.054 A 
BRANCH  31  33
ATOM     33  O   UNL     1       9.311  -7.886   0.131  0.00  0.00    -0.507 OA
ATOM     34  H   UNL     1      10.050  -7.414   0.539  0.00  0.00    +0.292 HD
ENDBRANCH  31  33
ENDBRANCH  26  27
ENDBRANCH  23  25
ENDBRANCH   3  21
TORSDOF 8
