REMARK  Name = ZINC39480864
REMARK  6 active torsions:
REMARK  status: ('A' for Active; 'I' for Inactive)
REMARK    1  A    between atoms: C_1  and  C_2
REMARK    2  A    between atoms: C_5  and  N_22
REMARK    3  A    between atoms: C_6  and  N_8
REMARK    4  A    between atoms: C_12  and  C_15
REMARK    5  A    between atoms: C_20  and  O_21
REMARK    6  A    between atoms: N_22  and  S_23
REMARK                            x       y       z     vdW  Elec       q    Type
REMARK                         _______ _______ _______ _____ _____    ______ ____
ROOT
ATOM      1  N   UNL     1       0.052  -2.793   2.400  0.00  0.00    -0.331 N 
ATOM      2  C   UNL     1       1.322  -3.153   3.050  0.00  0.00    +0.086 C 
ATOM      3  C   UNL     1       1.258  -2.713   4.517  0.00  0.00    -0.063 C 
ATOM      4  N   UNL     1       0.068  -3.295   5.150  0.00  0.00    +0.386 N 
ATOM      5  C   UNL     1      -1.146  -2.755   4.523  0.00  0.00    -0.020 C 
ATOM      6  C   UNL     1      -1.201  -3.191   3.059  0.00  0.00    +0.094 C 
ATOM      7  H   UNL     1       0.085  -4.297   5.038  0.00  0.00    -0.085 HD
ATOM      8  H   UNL     1       0.066  -3.067   6.133  0.00  0.00    -0.085 HD
ENDROOT
BRANCH   1  14
ATOM      9  C   UNL     1      -0.018   1.503   0.010  0.00  0.00    +0.044 C 
ATOM     10  C   UNL     1       0.002  -0.004   0.002  0.00  0.00    -0.049 A 
ATOM     11  C   UNL     1       0.006  -0.687  -1.200  0.00  0.00    +0.005 A 
ATOM     12  C   UNL     1       0.025  -2.069  -1.215  0.00  0.00    +0.027 A 
ATOM     13  C   UNL     1       0.040  -2.775  -0.021  0.00  0.00    +0.071 A 
ATOM     14  C   UNL     1       0.037  -2.086   1.192  0.00  0.00    +0.053 A 
ATOM     15  C   UNL     1       0.023  -0.700   1.197  0.00  0.00    +0.028 A 
BRANCH  13  16
ATOM     16  N   UNL     1       0.059  -4.175  -0.034  0.00  0.00    -0.193 N 
ATOM     17  H   UNL     1      -0.413  -4.672   0.652  0.00  0.00    +0.176 HD
BRANCH  16  18
ATOM     18  S   UNL     1       0.886  -4.982  -1.220  0.00  0.00    +0.194 S 
ATOM     19  O   UNL     1       0.618  -6.399  -1.032  0.00  0.00    -0.124 OA
ATOM     20  O   UNL     1       0.377  -4.497  -2.494  0.00  0.00    -0.124 OA
ATOM     21  O   UNL     1       2.295  -4.666  -1.042  0.00  0.00    -0.029 OA
ENDBRANCH  16  18
ENDBRANCH  13  16
ENDBRANCH   1  14
BRANCH   5  22
ATOM     22  C   UNL     1      -2.360  -3.273   5.250  0.00  0.00    -0.018 A 
ATOM     23  C   UNL     1      -2.264  -4.404   6.037  0.00  0.00    +0.005 A 
ATOM     24  C   UNL     1      -3.377  -4.880   6.704  0.00  0.00    +0.000 A 
ATOM     25  C   UNL     1      -4.590  -4.225   6.585  0.00  0.00    +0.004 A 
ATOM     26  C   UNL     1      -4.691  -3.093   5.800  0.00  0.00    +0.045 A 
ATOM     27  C   UNL     1      -3.573  -2.611   5.134  0.00  0.00    +0.118 A 
BRANCH  27  28
ATOM     28  O   UNL     1      -3.669  -1.494   4.365  0.00  0.00    -0.507 OA
ATOM     29  H   UNL     1      -3.902  -1.670   3.443  0.00  0.00    +0.292 HD
ENDBRANCH  27  28
ENDBRANCH   5  22
TORSDOF 5
