REMARK  Name = ZINC39665398
REMARK  11 active torsions:
REMARK  status: ('A' for Active; 'I' for Inactive)
REMARK    1  A    between atoms: C_1  and  C_2
REMARK    2  A    between atoms: C_2  and  C_3
REMARK    3  A    between atoms: C_3  and  C_5
REMARK    4  A    between atoms: C_3  and  C_6
REMARK    5  A    between atoms: C_6  and  C_7
REMARK    6  A    between atoms: C_11  and  C_20
REMARK    7  A    between atoms: N_22  and  C_23
REMARK    8  A    between atoms: C_23  and  C_24
REMARK    9  A    between atoms: C_24  and  C_26
REMARK   10  A    between atoms: C_24  and  O_27
REMARK   11  A    between atoms: O_27  and  C_28
REMARK                            x       y       z     vdW  Elec       q    Type
REMARK                         _______ _______ _______ _____ _____    ______ ____
ROOT
ATOM      1  C   UNL     1       1.213  -2.485  -2.578  0.00  0.00    +0.216 C 
ATOM      2  O   UNL     1       1.655  -1.677  -3.367  0.00  0.00    -0.276 OA
ATOM      3  N   UNL     1       1.244  -3.800  -2.872  0.00  0.00    -0.300 N 
ATOM      4  C   UNL     1       0.750  -4.927  -2.046  0.00  0.00    +0.121 C 
ATOM      5  C   UNL     1       0.102  -5.898  -3.058  0.00  0.00    +0.100 C 
ATOM      6  C   UNL     1       0.782  -5.579  -4.400  0.00  0.00    -0.004 C 
ATOM      7  C   UNL     1       1.774  -4.445  -4.097  0.00  0.00    +0.115 C 
ATOM      8  C   UNL     1       1.524  -6.806  -4.921  0.00  0.00    -0.010 C 
ATOM      9  C   UNL     1       2.144  -6.481  -6.283  0.00  0.00    -0.082 C 
ATOM     10  N   UNL     1       1.087  -6.088  -7.223  0.00  0.00    +0.379 N 
ATOM     11  C   UNL     1       0.441  -4.854  -6.761  0.00  0.00    -0.082 C 
ATOM     12  C   UNL     1      -0.252  -5.110  -5.419  0.00  0.00    -0.010 C 
ATOM     13  H   UNL     1       1.490  -5.934  -8.135  0.00  0.00    -0.086 HD
ATOM     14  H   UNL     1       0.401  -6.824  -7.282  0.00  0.00    -0.086 HD
ENDROOT
BRANCH   5  15
ATOM     15  C   UNL     1       0.367  -7.327  -2.659  0.00  0.00    +0.218 C 
ATOM     16  O   UNL     1       1.418  -7.623  -2.131  0.00  0.00    -0.275 OA
ATOM     17  N   UNL     1      -0.563  -8.275  -2.889  0.00  0.00    -0.312 N 
ATOM     18  H   UNL     1      -1.403  -8.037  -3.311  0.00  0.00    +0.149 HD
BRANCH  17  19
ATOM     19  C   UNL     1      -0.304  -9.664  -2.501  0.00  0.00    +0.148 C 
BRANCH  19  20
ATOM     20  C   UNL     1      -1.511 -10.529  -2.870  0.00  0.00    +0.187 C 
ATOM     21  C   UNL     1      -1.241 -11.979  -2.465  0.00  0.00    +0.053 C 
BRANCH  20  22
ATOM     22  O   UNL     1      -2.669 -10.050  -2.183  0.00  0.00    -0.488 OA
BRANCH  22  23
ATOM     23  C   UNL     1      -3.876 -10.321  -2.746  0.00  0.00    +0.121 A 
ATOM     24  C   UNL     1      -5.033  -9.785  -2.200  0.00  0.00    +0.045 A 
ATOM     25  C   UNL     1      -6.259 -10.062  -2.774  0.00  0.00    +0.004 A 
ATOM     26  C   UNL     1      -6.333 -10.873  -3.892  0.00  0.00    +0.000 A 
ATOM     27  C   UNL     1      -5.181 -11.409  -4.437  0.00  0.00    +0.004 A 
ATOM     28  C   UNL     1      -3.952 -11.130  -3.870  0.00  0.00    +0.045 A 
ENDBRANCH  22  23
ENDBRANCH  20  22
ENDBRANCH  19  20
ENDBRANCH  17  19
ENDBRANCH   5  15
BRANCH   1  29
ATOM     29  C   UNL     1       0.628  -2.019  -1.270  0.00  0.00    +0.099 C 
BRANCH  29  30
ATOM     30  C   UNL     1       0.716  -0.493  -1.187  0.00  0.00    -0.006 C 
ATOM     31  C   UNL     1       2.185  -0.068  -1.149  0.00  0.00    +0.008 C 
BRANCH  30  33
ATOM     32  C   UNL     1      -0.011   1.519   0.103  0.00  0.00    +0.004 C 
ATOM     33  C   UNL     1       0.011  -0.011   0.082  0.00  0.00    +0.000 C 
ENDBRANCH  30  33
ENDBRANCH  29  30
ENDBRANCH   1  29
TORSDOF 8
