REMARK  Name = ZINC57372177
REMARK  6 active torsions:
REMARK  status: ('A' for Active; 'I' for Inactive)
REMARK    1  A    between atoms: C_1  and  C_2
REMARK    2  A    between atoms: C_2  and  N_3
REMARK    3  A    between atoms: C_6  and  N_9
REMARK    4  A    between atoms: N_9  and  C_10
REMARK    5  A    between atoms: C_13  and  C_15
REMARK    6  A    between atoms: N_18  and  C_20
REMARK                            x       y       z     vdW  Elec       q    Type
REMARK                         _______ _______ _______ _____ _____    ______ ____
ROOT
ATOM      1  N   UNL     1      -5.089  -2.077  -1.145  0.00  0.00    -0.290 N 
ATOM      2  C   UNL     1      -5.614  -1.958   0.090  0.00  0.00    +0.267 C 
ATOM      3  O   UNL     1      -4.916  -1.592   1.016  0.00  0.00    -0.268 OA
ENDROOT
BRANCH   2   4
ATOM      4  C   UNL     1      -7.039  -2.274   0.320  0.00  0.00    +0.151 A 
ATOM      5  C   UNL     1      -7.922  -1.590   1.187  0.00  0.00    +0.006 A 
ATOM      6  C   UNL     1      -9.110  -2.222   1.075  0.00  0.00    +0.049 A 
ATOM      7  N   UNL     1      -8.940  -3.234   0.182  0.00  0.00    -0.233 N 
ATOM      8  N   UNL     1      -7.729  -3.242  -0.249  0.00  0.00    -0.161 NA
ATOM      9  C   UNL     1     -10.137  -1.565   1.969  0.00  0.00    +0.056 C 
ATOM     10  C   UNL     1      -9.316  -0.717   2.966  0.00  0.00    +0.011 C 
ATOM     11  C   UNL     1      -8.022  -0.446   2.166  0.00  0.00    +0.040 C 
BRANCH   7  12
ATOM     12  C   UNL     1      -9.940  -4.132  -0.215  0.00  0.00    +0.101 A 
ATOM     13  C   UNL     1     -11.176  -4.121   0.417  0.00  0.00    +0.031 A 
ATOM     14  C   UNL     1     -12.160  -5.007   0.024  0.00  0.00    +0.002 A 
ATOM     15  C   UNL     1     -11.916  -5.905  -0.999  0.00  0.00    +0.003 A 
ATOM     16  C   UNL     1     -10.687  -5.921  -1.631  0.00  0.00    +0.040 A 
ATOM     17  C   UNL     1      -9.699  -5.033  -1.247  0.00  0.00    +0.149 A 
ATOM     18  F   UNL     1      -8.499  -5.044  -1.869  0.00  0.00    -0.203 F 
ENDBRANCH   7  12
ENDBRANCH   2   4
BRANCH   1  22
ATOM     19  N   UNL     1      -1.020  -2.388  -0.091  0.00  0.00    +0.380 N 
ATOM     20  C   UNL     1      -1.419  -1.188  -0.836  0.00  0.00    -0.077 C 
ATOM     21  C   UNL     1      -2.933  -0.996  -0.728  0.00  0.00    +0.004 C 
ATOM     22  C   UNL     1      -3.641  -2.221  -1.314  0.00  0.00    +0.073 C 
ATOM     23  C   UNL     1      -3.161  -3.475  -0.579  0.00  0.00    +0.004 C 
ATOM     24  C   UNL     1      -1.638  -3.576  -0.692  0.00  0.00    -0.077 C 
ATOM     25  H   UNL     1      -1.321  -2.302   0.868  0.00  0.00    -0.082 HD
BRANCH  19  27
ATOM     26  C   UNL     1       1.086  -1.349   0.604  0.00  0.00    -0.017 C 
ATOM     27  C   UNL     1       0.442  -2.525  -0.133  0.00  0.00    -0.082 C 
ENDBRANCH  19  27
ENDBRANCH   1  22
BRANCH   1  28
ATOM     28  C   UNL     1      -5.965  -2.062  -2.318  0.00  0.00    +0.077 C 
ATOM     29  C   UNL     1      -7.472  -1.958  -2.074  0.00  0.00    +0.024 C 
ATOM     30  C   UNL     1      -6.864  -3.280  -2.545  0.00  0.00    +0.024 C 
ENDBRANCH   1  28
TORSDOF 5
