REMARK  Name = ZINC02074763
REMARK  10 active torsions:
REMARK  status: ('A' for Active; 'I' for Inactive)
REMARK    1  A    between atoms: C_1  and  C_2
REMARK    2  A    between atoms: C_3  and  C_21
REMARK    3  A    between atoms: C_4  and  C_12
REMARK    4  A    between atoms: C_6  and  C_10
REMARK    5  A    between atoms: C_7  and  N_9
REMARK    6  A    between atoms: C_21  and  O_23
REMARK    7  A    between atoms: O_23  and  C_24
REMARK    8  A    between atoms: C_24  and  C_25
REMARK    9  A    between atoms: C_25  and  O_26
REMARK   10  A    between atoms: O_26  and  C_27
REMARK                            x       y       z     vdW  Elec       q    Type
REMARK                         _______ _______ _______ _____ _____    ______ ____
ROOT
ATOM      1  C   UNL     1      -0.018   1.503   0.010  0.00  0.00    +0.087 C 
ATOM      2  C   UNL     1       0.002  -0.004   0.002  0.00  0.00    +0.115 C 
ATOM      3  C   UNL     1      -1.160  -0.670   0.004  0.00  0.00    +0.087 C 
ATOM      4  C   UNL     1      -1.196  -2.174  -0.004  0.00  0.00    +0.105 C 
ATOM      5  C   UNL     1       0.151  -2.721   0.381  0.00  0.00    +0.098 C 
ATOM      6  C   UNL     1       1.254  -1.933   0.357  0.00  0.00    +0.198 C 
ATOM      7  O   UNL     1       1.184  -0.639  -0.013  0.00  0.00    -0.445 OA
ENDROOT
BRANCH   4   8
ATOM      8  C   UNL     1      -1.555  -2.658  -1.385  0.00  0.00    -0.031 A 
ATOM      9  C   UNL     1      -0.745  -2.340  -2.460  0.00  0.00    +0.008 A 
ATOM     10  C   UNL     1      -1.070  -2.782  -3.729  0.00  0.00    +0.050 A 
ATOM     11  C   UNL     1      -2.209  -3.546  -3.927  0.00  0.00    +0.166 A 
ATOM     12  C   UNL     1      -3.024  -3.866  -2.844  0.00  0.00    +0.167 A 
ATOM     13  C   UNL     1      -2.690  -3.424  -1.575  0.00  0.00    +0.054 A 
ATOM     14  O   UNL     1      -4.071  -4.617  -3.294  0.00  0.00    -0.453 OA
ATOM     15  C   UNL     1      -4.109  -4.410  -4.719  0.00  0.00    +0.466 C 
ATOM     16  O   UNL     1      -2.745  -4.096  -5.055  0.00  0.00    -0.453 OA
ENDBRANCH   4   8
BRANCH   6  17
ATOM     17  N   UNL     1       2.467  -2.465   0.715  0.00  0.00    -0.328 N 
ATOM     18  H   UNL     1       2.529  -3.396   0.980  0.00  0.00    +0.145 HD
ATOM     19  H   UNL     1       3.263  -1.911   0.702  0.00  0.00    +0.145 HD
ENDBRANCH   6  17
BRANCH   5  20
ATOM     20  C   UNL     1       0.271  -4.092   0.777  0.00  0.00    +0.101 C 
ATOM     21  N   UNL     1       0.365  -5.180   1.091  0.00  0.00    -0.191 NA
ENDBRANCH   5  20
BRANCH   3  22
ATOM     22  C   UNL     1      -2.377   0.055   0.015  0.00  0.00    +0.339 C 
ATOM     23  O   UNL     1      -2.361   1.271   0.022  0.00  0.00    -0.245 OA
BRANCH  22  24
ATOM     24  O   UNL     1      -3.554  -0.604   0.017  0.00  0.00    -0.459 OA
BRANCH  24  25
ATOM     25  C   UNL     1      -4.742   0.191   0.028  0.00  0.00    +0.260 C 
BRANCH  25  26
ATOM     26  C   UNL     1      -5.968  -0.725   0.028  0.00  0.00    +0.200 C 
BRANCH  26  27
ATOM     27  O   UNL     1      -6.003  -1.473   1.245  0.00  0.00    -0.380 OA
ATOM     28  C   UNL     1      -7.115  -2.364   1.348  0.00  0.00    +0.194 C 
ENDBRANCH  26  27
ENDBRANCH  25  26
ENDBRANCH  24  25
ENDBRANCH  22  24
ENDBRANCH   3  22
TORSDOF 8
