REMARK  Name = ZINC39696151
REMARK  7 active torsions:
REMARK  status: ('A' for Active; 'I' for Inactive)
REMARK    1  A    between atoms: C_1  and  C_2
REMARK    2  A    between atoms: C_2  and  C_3
REMARK    3  A    between atoms: C_6  and  C_9
REMARK    4  A    between atoms: C_9  and  C_11
REMARK    5  A    between atoms: C_9  and  N_12
REMARK    6  A    between atoms: C_13  and  C_15
REMARK    7  A    between atoms: C_26  and  C_28
REMARK                            x       y       z     vdW  Elec       q    Type
REMARK                         _______ _______ _______ _____ _____    ______ ____
ROOT
ATOM      1  C   UNL     1       2.926  -0.122   7.805  0.00  0.00    +0.100 C 
ATOM      2  C   UNL     1       2.392   1.326   7.739  0.00  0.00    +0.121 C 
ATOM      3  N   UNL     1       2.750   1.917   9.050  0.00  0.00    -0.296 N 
ATOM      4  C   UNL     1       4.101   1.381   9.340  0.00  0.00    +0.115 C 
ATOM      5  C   UNL     1       4.049  -0.081   8.856  0.00  0.00    -0.004 C 
ATOM      6  C   UNL     1       5.380  -0.475   8.223  0.00  0.00    -0.010 C 
ATOM      7  C   UNL     1       6.469  -0.484   9.300  0.00  0.00    -0.082 C 
ATOM      8  N   UNL     1       6.106  -1.435  10.357  0.00  0.00    +0.379 N 
ATOM      9  C   UNL     1       4.874  -0.998  11.023  0.00  0.00    -0.082 C 
ATOM     10  C   UNL     1       3.717  -1.011  10.020  0.00  0.00    -0.010 C 
ATOM     11  C   UNL     1       2.012   2.753   9.809  0.00  0.00    +0.248 C 
ATOM     12  O   UNL     1       0.870   3.017   9.488  0.00  0.00    -0.270 OA
ATOM     13  H   UNL     1       5.963  -2.348   9.952  0.00  0.00    -0.086 HD
ATOM     14  H   UNL     1       6.853  -1.485  11.034  0.00  0.00    -0.086 HD
ENDROOT
BRANCH  11  15
ATOM     15  C   UNL     1       2.593   3.349  11.030  0.00  0.00    +0.055 A 
ATOM     16  C   UNL     1       3.982   3.418  11.198  0.00  0.00    +0.016 A 
ATOM     17  C   UNL     1       4.474   3.985  12.360  0.00  0.00    +0.020 A 
ATOM     18  C   UNL     1       3.588   4.462  13.309  0.00  0.00    +0.111 A 
ATOM     19  N   UNL     1       2.284   4.384  13.124  0.00  0.00    -0.263 NA
ATOM     20  C   UNL     1       1.767   3.857  12.033  0.00  0.00    +0.123 A 
ENDBRANCH  11  15
BRANCH   1  22
ATOM     21  N   UNL     1       3.456  -1.838   6.104  0.00  0.00    -0.308 N 
ATOM     22  C   UNL     1       3.477  -0.540   6.466  0.00  0.00    +0.219 C 
ATOM     23  O   UNL     1       3.938   0.292   5.714  0.00  0.00    -0.275 OA
ATOM     24  H   UNL     1       3.087  -2.503   6.706  0.00  0.00    +0.149 HD
BRANCH  21  25
ATOM     25  C   UNL     1       3.991  -2.244   4.802  0.00  0.00    +0.100 C 
ATOM     26  C   UNL     1       5.503  -2.451   4.914  0.00  0.00    +0.033 C 
BRANCH  25  30
ATOM     27  C   UNL     1       2.143  -5.896   3.578  0.00  0.00    -0.048 A 
ATOM     28  C   UNL     1       2.382  -4.897   2.652  0.00  0.00    +0.004 A 
ATOM     29  C   UNL     1       2.979  -3.716   3.048  0.00  0.00    +0.006 A 
ATOM     30  C   UNL     1       3.338  -3.532   4.370  0.00  0.00    -0.027 A 
ATOM     31  C   UNL     1       3.099  -4.530   5.297  0.00  0.00    +0.006 A 
ATOM     32  C   UNL     1       2.497  -5.710   4.901  0.00  0.00    +0.004 A 
BRANCH  27  34
ATOM     33  C   UNL     1      -0.028  -7.053   3.268  0.00  0.00    +0.009 C 
ATOM     34  C   UNL     1       1.491  -7.184   3.146  0.00  0.00    +0.032 C 
ENDBRANCH  27  34
ENDBRANCH  25  30
ENDBRANCH  21  25
ENDBRANCH   1  22
TORSDOF 5
