REMARK  Name = ZINC39356268
REMARK  4 active torsions:
REMARK  status: ('A' for Active; 'I' for Inactive)
REMARK    1  A    between atoms: C_1  and  O_2
REMARK    2  A    between atoms: O_2  and  C_3
REMARK    3  A    between atoms: C_3  and  C_4
REMARK    4  A    between atoms: C_12  and  C_16
REMARK                            x       y       z     vdW  Elec       q    Type
REMARK                         _______ _______ _______ _____ _____    ______ ____
ROOT
ATOM      1  C   UNL     1      -1.769  -2.033  -0.195  0.00  0.00    +0.151 C 
ATOM      2  N   UNL     1      -0.557  -2.474  -0.348  0.00  0.00    -0.254 NA
ATOM      3  C   UNL     1      -0.674  -3.929  -0.446  0.00  0.00    +0.195 C 
ATOM      4  C   UNL     1       0.185  -4.768   0.465  0.00  0.00    +0.229 C 
ATOM      5  C   UNL     1      -0.884  -5.435   1.412  0.00  0.00    +0.139 C 
ATOM      6  C   UNL     1      -2.082  -5.613   0.556  0.00  0.00    +0.092 C 
ATOM      7  C   UNL     1      -2.127  -4.163   0.015  0.00  0.00    +0.058 C 
ATOM      8  N   UNL     1      -2.676  -3.023  -0.026  0.00  0.00    -0.236 NA
ATOM      9  N   UNL     1      -0.082  -6.054   2.365  0.00  0.00    -0.336 N 
ATOM     10  C   UNL     1       1.018  -5.300   2.425  0.00  0.00    +0.254 C 
ATOM     11  O   UNL     1       0.986  -4.244   1.515  0.00  0.00    -0.459 OA
ATOM     12  N   UNL     1       2.072  -5.540   3.272  0.00  0.00    -0.315 N 
ATOM     13  H   UNL     1       2.046  -6.298   3.876  0.00  0.00    +0.147 HD
ATOM     14  H   UNL     1       2.844  -4.952   3.265  0.00  0.00    +0.147 HD
ATOM     15  H   UNL     1      -0.278  -6.857   2.874  0.00  0.00    +0.164 HD
ENDROOT
BRANCH   6  16
ATOM     16  C   UNL     1      -1.847  -6.623  -0.537  0.00  0.00    -0.037 A 
ATOM     17  C   UNL     1      -1.078  -7.745  -0.288  0.00  0.00    +0.006 A 
ATOM     18  C   UNL     1      -0.862  -8.672  -1.290  0.00  0.00    +0.020 A 
ATOM     19  C   UNL     1      -1.416  -8.477  -2.543  0.00  0.00    +0.041 A 
ATOM     20  C   UNL     1      -2.185  -7.354  -2.792  0.00  0.00    +0.020 A 
ATOM     21  C   UNL     1      -2.405  -6.431  -1.787  0.00  0.00    +0.006 A 
ATOM     22 CL   UNL     1      -1.145  -9.641  -3.803  0.00  0.00    -0.084 Cl
ENDBRANCH   6  16
BRANCH   1  23
ATOM     23  C   UNL     1      -2.127  -0.569  -0.199  0.00  0.00    +0.235 C 
BRANCH  23  25
ATOM     24  C   UNL     1      -1.175   1.620  -0.419  0.00  0.00    +0.194 C 
ATOM     25  O   UNL     1      -0.946   0.210  -0.399  0.00  0.00    -0.375 OA
ENDBRANCH  23  25
ENDBRANCH   1  23
TORSDOF 3
