REMARK  Name = ZINC35768012
REMARK  16 active torsions:
REMARK  status: ('A' for Active; 'I' for Inactive)
REMARK    1  A    between atoms: C_1  and  C_2
REMARK    2  A    between atoms: C_2  and  C_3
REMARK    3  A    between atoms: C_3  and  C_4
REMARK    4  A    between atoms: C_4  and  C_5
REMARK    5  A    between atoms: C_5  and  C_7
REMARK    6  A    between atoms: C_5  and  C_9
REMARK    7  A    between atoms: C_7  and  C_8
REMARK    8  A    between atoms: N_11  and  C_12
REMARK    9  A    between atoms: N_11  and  C_18
REMARK   10  A    between atoms: C_12  and  C_13
REMARK   11  A    between atoms: C_13  and  C_14
REMARK   12  A    between atoms: C_14  and  O_15
REMARK   13  A    between atoms: O_15  and  C_16
REMARK   14  A    between atoms: C_16  and  C_17
REMARK   15  A    between atoms: C_18  and  C_19
REMARK   16  A    between atoms: C_29  and  C_31
REMARK                            x       y       z     vdW  Elec       q    Type
REMARK                         _______ _______ _______ _____ _____    ______ ____
ROOT
ATOM      1  C   UNL     1       2.573  -0.941  -4.615  0.00  0.00    +0.203 C 
ENDROOT
BRANCH   1   2
ATOM      2  C   UNL     1       2.122   0.469  -4.333  0.00  0.00    +0.234 C 
ATOM      3  O   UNL     1       2.477   1.028  -3.317  0.00  0.00    -0.274 OA
ATOM      4  N   UNL     1       1.323   1.108  -5.210  0.00  0.00    -0.289 N 
ATOM      5  C   UNL     1       0.880   0.438  -6.442  0.00  0.00    +0.114 C 
ATOM      6  C   UNL     1       1.480   1.188  -7.641  0.00  0.00    +0.062 C 
ATOM      7  C   UNL     1       1.347   2.657  -7.402  0.00  0.00    -0.003 A 
ATOM      8  C   UNL     1       1.088   3.293  -6.227  0.00  0.00    -0.012 A 
ATOM      9  C   UNL     1       1.022   4.685  -6.271  0.00  0.00    +0.013 A 
ATOM     10  C   UNL     1       1.206   5.335  -7.443  0.00  0.00    +0.046 A 
ATOM     11  S   UNL     1       1.490   3.981  -8.573  0.00  0.00    -0.101 S 
ATOM     12  C   UNL     1       0.876   2.483  -4.945  0.00  0.00    +0.137 C 
BRANCH  12  13
ATOM     13  C   UNL     1      -0.584   2.482  -4.572  0.00  0.00    -0.023 A 
ATOM     14  C   UNL     1      -0.975   2.885  -3.309  0.00  0.00    +0.006 A 
ATOM     15  C   UNL     1      -2.314   2.884  -2.967  0.00  0.00    +0.000 A 
ATOM     16  C   UNL     1      -3.263   2.482  -3.889  0.00  0.00    +0.000 A 
ATOM     17  C   UNL     1      -2.872   2.081  -5.153  0.00  0.00    +0.000 A 
ATOM     18  C   UNL     1      -1.533   2.085  -5.496  0.00  0.00    +0.006 A 
ENDBRANCH  12  13
ENDBRANCH   1   2
BRANCH   1  21
ATOM     19  C   UNL     1       2.874  -1.997  -2.439  0.00  0.00    +0.219 C 
ATOM     20  O   UNL     1       3.568  -2.293  -1.490  0.00  0.00    -0.275 OA
ATOM     21  N   UNL     1       3.426  -1.409  -3.519  0.00  0.00    -0.292 N 
BRANCH  19  22
ATOM     22  C   UNL     1       1.395  -2.285  -2.412  0.00  0.00    +0.075 C 
BRANCH  22  23
ATOM     23  C   UNL     1       1.160  -3.768  -2.705  0.00  0.00    +0.009 C 
ATOM     24  C   UNL     1       1.607  -4.083  -4.134  0.00  0.00    +0.004 C 
ENDBRANCH  22  23
BRANCH  22  25
ATOM     25  C   UNL     1       0.835  -1.943  -1.030  0.00  0.00    +0.013 C 
BRANCH  25  26
ATOM     26  C   UNL     1       0.958  -0.438  -0.788  0.00  0.00    +0.000 C 
BRANCH  26  28
ATOM     27  C   UNL     1       0.520   1.410   0.836  0.00  0.00    +0.004 C 
ATOM     28  C   UNL     1       0.397  -0.095   0.594  0.00  0.00    -0.003 C 
ENDBRANCH  26  28
ENDBRANCH  25  26
ENDBRANCH  22  25
ENDBRANCH  19  22
BRANCH  21  29
ATOM     29  C   UNL     1       4.879  -1.238  -3.598  0.00  0.00    +0.110 C 
BRANCH  29  30
ATOM     30  C   UNL     1       5.502  -2.466  -4.266  0.00  0.00    +0.047 C 
BRANCH  30  31
ATOM     31  C   UNL     1       7.019  -2.287  -4.348  0.00  0.00    +0.161 C 
BRANCH  31  32
ATOM     32  O   UNL     1       7.601  -3.434  -4.972  0.00  0.00    -0.380 OA
BRANCH  32  33
ATOM     33  C   UNL     1       9.022  -3.368  -5.098  0.00  0.00    +0.156 C 
ATOM     34  C   UNL     1       9.533  -4.641  -5.776  0.00  0.00    +0.034 C 
ENDBRANCH  32  33
ENDBRANCH  31  32
ENDBRANCH  30  31
ENDBRANCH  29  30
ENDBRANCH  21  29
ENDBRANCH   1  21
TORSDOF 13
