REMARK  Name = ZINC09885630
REMARK  8 active torsions:
REMARK  status: ('A' for Active; 'I' for Inactive)
REMARK    1  A    between atoms: C_1  and  C_2
REMARK    2  A    between atoms: C_2  and  C_3
REMARK    3  A    between atoms: C_2  and  C_4
REMARK    4  A    between atoms: C_4  and  N_71
REMARK    5  A    between atoms: C_8  and  C_11
REMARK    6  A    between atoms: C_11  and  N_12
REMARK    7  A    between atoms: N_18  and  S_21
REMARK    8  A    between atoms: S_21  and  C_24
REMARK                            x       y       z     vdW  Elec       q    Type
REMARK                         _______ _______ _______ _____ _____    ______ ____
ROOT
ATOM      1  N   UNL     1      -4.053  -3.856  -5.395  0.00  0.00    -0.297 N 
ATOM      2  C   UNL     1      -4.193  -2.744  -4.647  0.00  0.00    +0.302 C 
ATOM      3  O   UNL     1      -5.094  -1.962  -4.882  0.00  0.00    -0.253 OA
ATOM      4  N   UNL     1      -3.333  -2.498  -3.638  0.00  0.00    -0.283 N 
ATOM      5  C   UNL     1      -2.299  -3.479  -3.281  0.00  0.00    +0.126 C 
ATOM      6  C   UNL     1      -2.439  -3.820  -1.792  0.00  0.00    +0.128 C 
ATOM      7  N   UNL     1      -2.519  -2.566  -1.030  0.00  0.00    -0.174 NA
ATOM      8  C   UNL     1      -3.557  -1.587  -1.383  0.00  0.00    +0.128 C 
ATOM      9  C   UNL     1      -3.413  -1.244  -2.875  0.00  0.00    +0.126 C 
ATOM     10  H   UNL     1      -3.381  -4.515  -5.164  0.00  0.00    +0.150 HD
ENDROOT
BRANCH   7  11
ATOM     11  S   UNL     1      -1.463  -2.265   0.210  0.00  0.00    +0.061 S 
ATOM     12  O   UNL     1      -1.004  -3.529   0.669  0.00  0.00    -0.153 OA
ATOM     13  O   UNL     1      -2.101  -1.329   1.068  0.00  0.00    -0.153 OA
BRANCH  11  14
ATOM     14  C   UNL     1      -0.067  -1.443  -0.483  0.00  0.00    +0.106 A 
ATOM     15  C   UNL     1       1.009  -2.176  -0.947  0.00  0.00    +0.029 A 
ATOM     16  C   UNL     1       2.100  -1.525  -1.486  0.00  0.00    +0.006 A 
ATOM     17  C   UNL     1       2.126  -0.139  -1.565  0.00  0.00    -0.044 A 
ATOM     18  C   UNL     1       1.052   0.591  -1.107  0.00  0.00    -0.042 A 
ATOM     19  C   UNL     1      -0.044  -0.066  -0.564  0.00  0.00    +0.032 A 
ATOM     20  C   UNL     1       1.009   2.095  -1.169  0.00  0.00    +0.035 C 
ATOM     21  C   UNL     1       2.411   2.666  -1.369  0.00  0.00    +0.005 C 
ATOM     22  C   UNL     1       3.060   1.949  -2.559  0.00  0.00    +0.005 C 
ATOM     23  C   UNL     1       3.354   0.507  -2.151  0.00  0.00    +0.035 C 
ENDBRANCH  11  14
ENDBRANCH   7  11
BRANCH   1  24
ATOM     24  C   UNL     1      -4.918  -4.069  -6.559  0.00  0.00    +0.135 C 
BRANCH  24  28
ATOM     25  C   UNL     1      -5.392  -7.957  -8.166  0.00  0.00    -0.050 C 
ATOM     26  C   UNL     1      -4.573  -7.767  -6.886  0.00  0.00    +0.141 C 
ATOM     27  O   UNL     1      -4.850  -6.476  -6.337  0.00  0.00    -0.379 OA
ATOM     28  C   UNL     1      -4.555  -5.396  -7.228  0.00  0.00    +0.119 C 
ATOM     29  C   UNL     1      -5.372  -5.562  -8.511  0.00  0.00    -0.045 C 
ATOM     30  N   UNL     1      -5.051  -6.873  -9.112  0.00  0.00    +0.383 N 
ATOM     31  H   UNL     1      -4.045  -6.910  -9.314  0.00  0.00    -0.082 HD
BRANCH  30  32
ATOM     32  C   UNL     1      -5.801  -7.049 -10.374  0.00  0.00    -0.076 C 
BRANCH  32  34
ATOM     33  C   UNL     1      -6.233  -8.613 -12.274  0.00  0.00    +0.005 C 
ATOM     34  C   UNL     1      -5.435  -8.403 -10.986  0.00  0.00    -0.034 C 
ATOM     35  C   UNL     1      -3.939  -8.433 -11.302  0.00  0.00    +0.005 C 
ENDBRANCH  32  34
ENDBRANCH  30  32
ENDBRANCH  24  28
ENDBRANCH   1  24
TORSDOF 6
