REMARK  Name = ZINC36585095
REMARK  13 active torsions:
REMARK  status: ('A' for Active; 'I' for Inactive)
REMARK    1  A    between atoms: C_1  and  C_2
REMARK    2  A    between atoms: C_2  and  C_3
REMARK    3  A    between atoms: C_2  and  C_4
REMARK    4  A    between atoms: C_2  and  N_5
REMARK    5  A    between atoms: C_6  and  C_8
REMARK    6  A    between atoms: C_8  and  C_10
REMARK    7  A    between atoms: C_8  and  N_17
REMARK    8  A    between atoms: C_13  and  O_16
REMARK    9  A    between atoms: N_17  and  C_27
REMARK   10  A    between atoms: C_18  and  C_20
REMARK   11  A    between atoms: C_27  and  C_28
REMARK   12  A    between atoms: C_27  and  C_29
REMARK   13  A    between atoms: C_27  and  C_30
REMARK                            x       y       z     vdW  Elec       q    Type
REMARK                         _______ _______ _______ _____ _____    ______ ____
ROOT
ATOM      1  C   UNL     1       6.431  -0.324  -0.174  0.00  0.00    +0.193 C 
ENDROOT
BRANCH   1   2
ATOM      2  C   UNL     1       7.520  -0.031   0.826  0.00  0.00    -0.018 A 
ATOM      3  C   UNL     1       8.123   1.213   0.844  0.00  0.00    +0.009 A 
ATOM      4  C   UNL     1       9.122   1.485   1.759  0.00  0.00    +0.046 A 
ATOM      5  C   UNL     1       9.518   0.508   2.661  0.00  0.00    +0.117 A 
ATOM      6  C   UNL     1       8.911  -0.739   2.641  0.00  0.00    +0.046 A 
ATOM      7  C   UNL     1       7.909  -1.004   1.728  0.00  0.00    +0.009 A 
BRANCH   5   8
ATOM      8  O   UNL     1      10.501   0.772   3.562  0.00  0.00    -0.507 OA
ATOM      9  H   UNL     1      10.180   1.135   4.399  0.00  0.00    +0.292 HD
ENDBRANCH   5   8
ENDBRANCH   1   2
BRANCH   1  11
ATOM     10  N   UNL     1       5.024  -1.675   1.347  0.00  0.00    -0.309 N 
ATOM     11  C   UNL     1       5.139  -0.591   0.554  0.00  0.00    +0.239 C 
ATOM     12  O   UNL     1       4.203   0.170   0.427  0.00  0.00    -0.273 OA
ATOM     13  H   UNL     1       5.772  -2.283   1.449  0.00  0.00    +0.149 HD
BRANCH  10  15
ATOM     14  C   UNL     1       2.634  -2.096   1.040  0.00  0.00    +0.031 C 
ATOM     15  C   UNL     1       3.767  -1.934   2.055  0.00  0.00    +0.026 C 
ATOM     16  C   UNL     1       3.455  -0.761   2.985  0.00  0.00    +0.031 C 
ATOM     17  C   UNL     1       3.902  -3.216   2.878  0.00  0.00    +0.031 C 
ENDBRANCH  10  15
ENDBRANCH   1  11
BRANCH   1  18
ATOM     18  N   UNL     1       6.261   0.828  -1.063  0.00  0.00    -0.277 N 
ATOM     19  C   UNL     1       6.123   2.064  -0.546  0.00  0.00    +0.248 C 
ATOM     20  O   UNL     1       5.749   2.204   0.602  0.00  0.00    -0.270 OA
BRANCH  19  21
ATOM     21  C   UNL     1       6.427   3.251  -1.374  0.00  0.00    +0.038 A 
ATOM     22  C   UNL     1       5.776   3.438  -2.595  0.00  0.00    +0.013 A 
ATOM     23  C   UNL     1       6.063   4.548  -3.363  0.00  0.00    +0.002 A 
ATOM     24  C   UNL     1       6.995   5.473  -2.927  0.00  0.00    +0.020 A 
ATOM     25  C   UNL     1       7.644   5.293  -1.718  0.00  0.00    +0.042 A 
ATOM     26  C   UNL     1       7.362   4.190  -0.937  0.00  0.00    +0.033 A 
ATOM     27 CL   UNL     1       8.811   6.460  -1.179  0.00  0.00    -0.084 Cl
ENDBRANCH  19  21
BRANCH  18  28
ATOM     28  C   UNL     1       6.242   0.635  -2.516  0.00  0.00    +0.030 C 
ATOM     29  C   UNL     1       6.851  -0.726  -2.858  0.00  0.00    +0.031 C 
ATOM     30  C   UNL     1       4.798   0.688  -3.018  0.00  0.00    +0.031 C 
ATOM     31  C   UNL     1       7.057   1.742  -3.188  0.00  0.00    +0.031 C 
ENDBRANCH  18  28
ENDBRANCH   1  18
TORSDOF 7
