REMARK  Name = ZINC36497402
REMARK  16 active torsions:
REMARK  status: ('A' for Active; 'I' for Inactive)
REMARK    1  A    between atoms: C_1  and  C_2
REMARK    2  A    between atoms: C_2  and  C_4
REMARK    3  A    between atoms: C_2  and  C_10
REMARK    4  A    between atoms: C_10  and  C_12
REMARK    5  A    between atoms: C_10  and  N_23
REMARK    6  A    between atoms: N_14  and  C_15
REMARK    7  A    between atoms: C_15  and  C_16
REMARK    8  A    between atoms: C_15  and  C_17
REMARK    9  A    between atoms: C_15  and  C_18
REMARK   10  A    between atoms: C_18  and  C_19
REMARK   11  A    between atoms: C_19  and  C_20
REMARK   12  A    between atoms: C_19  and  C_21
REMARK   13  A    between atoms: C_19  and  C_22
REMARK   14  A    between atoms: N_23  and  C_24
REMARK   15  A    between atoms: C_24  and  C_25
REMARK   16  A    between atoms: C_30  and  C_32
REMARK                            x       y       z     vdW  Elec       q    Type
REMARK                         _______ _______ _______ _____ _____    ______ ____
ROOT
ATOM      1  C   UNL     1      -1.351  -1.570   0.162  0.00  0.00    +0.170 C 
ENDROOT
BRANCH   1   2
ATOM      2  C   UNL     1      -0.609  -2.830  -0.204  0.00  0.00    +0.235 C 
ATOM      3  O   UNL     1      -0.312  -3.045  -1.360  0.00  0.00    -0.274 OA
ATOM      4  N   UNL     1      -0.277  -3.719   0.753  0.00  0.00    -0.309 N 
ATOM      5  H   UNL     1      -0.550  -3.567   1.671  0.00  0.00    +0.149 HD
BRANCH   4   6
ATOM      6  C   UNL     1       0.498  -4.913   0.407  0.00  0.00    +0.030 C 
ATOM      7  C   UNL     1      -0.429  -5.961  -0.211  0.00  0.00    +0.031 C 
ATOM      8  C   UNL     1       1.589  -4.539  -0.599  0.00  0.00    +0.031 C 
BRANCH   6   9
ATOM      9  C   UNL     1       1.145  -5.485   1.670  0.00  0.00    +0.031 C 
BRANCH   9  10
ATOM     10  C   UNL     1       1.863  -4.366   2.428  0.00  0.00    -0.036 C 
ATOM     11  C   UNL     1       1.135  -3.041   2.190  0.00  0.00    +0.010 C 
ATOM     12  C   UNL     1       1.868  -4.684   3.924  0.00  0.00    +0.010 C 
ATOM     13  C   UNL     1       3.304  -4.253   1.925  0.00  0.00    +0.010 C 
ENDBRANCH   9  10
ENDBRANCH   6   9
ENDBRANCH   4   6
ENDBRANCH   1   2
BRANCH   1  14
ATOM     14  N   UNL     1      -1.371  -0.664  -0.989  0.00  0.00    -0.278 N 
ATOM     15  C   UNL     1      -0.816   0.561  -0.891  0.00  0.00    +0.248 C 
ATOM     16  O   UNL     1      -0.307   0.916   0.154  0.00  0.00    -0.270 OA
BRANCH  15  17
ATOM     17  C   UNL     1      -0.828   1.472  -2.055  0.00  0.00    +0.037 A 
ATOM     18  C   UNL     1      -1.899   1.451  -2.951  0.00  0.00    +0.014 A 
ATOM     19  C   UNL     1      -1.905   2.304  -4.034  0.00  0.00    +0.021 A 
ATOM     20  C   UNL     1      -0.851   3.181  -4.234  0.00  0.00    +0.041 A 
ATOM     21  C   UNL     1       0.213   3.207  -3.349  0.00  0.00    +0.021 A 
ATOM     22  C   UNL     1       0.228   2.362  -2.259  0.00  0.00    +0.014 A 
ATOM     23 CL   UNL     1      -0.865   4.251  -5.601  0.00  0.00    -0.084 Cl
ENDBRANCH  15  17
BRANCH  14  24
ATOM     24  C   UNL     1      -1.992  -1.088  -2.246  0.00  0.00    +0.183 C 
BRANCH  24  25
ATOM     25  C   UNL     1      -3.447  -1.399  -2.006  0.00  0.00    +0.122 A 
ATOM     26  C   UNL     1      -4.460  -0.514  -2.058  0.00  0.00    +0.046 A 
ATOM     27  C   UNL     1      -5.644  -1.230  -1.771  0.00  0.00    +0.041 A 
ATOM     28  C   UNL     1      -5.285  -2.510  -1.561  0.00  0.00    +0.195 A 
ATOM     29  O   UNL     1      -3.954  -2.607  -1.710  0.00  0.00    -0.466 OA
ENDBRANCH  24  25
ENDBRANCH  14  24
ENDBRANCH   1  14
BRANCH   1  31
ATOM     30  C   UNL     1      -3.551  -0.638   0.889  0.00  0.00    +0.015 C 
ATOM     31  C   UNL     1      -2.786  -1.921   0.559  0.00  0.00    +0.045 C 
BRANCH  31  32
ATOM     32  C   UNL     1      -2.767  -2.820   1.769  0.00  0.00    -0.042 A 
ATOM     33  C   UNL     1      -2.150  -2.400   2.932  0.00  0.00    +0.004 A 
ATOM     34  C   UNL     1      -2.132  -3.224   4.042  0.00  0.00    +0.000 A 
ATOM     35  C   UNL     1      -2.733  -4.468   3.988  0.00  0.00    +0.000 A 
ATOM     36  C   UNL     1      -3.351  -4.888   2.825  0.00  0.00    +0.000 A 
ATOM     37  C   UNL     1      -3.372  -4.061   1.717  0.00  0.00    +0.004 A 
ENDBRANCH  31  32
ENDBRANCH   1  31
TORSDOF 10
