REMARK  Name = ZINC47963858
REMARK  8 active torsions:
REMARK  status: ('A' for Active; 'I' for Inactive)
REMARK    1  A    between atoms: C_1  and  C_2
REMARK    2  A    between atoms: C_7  and  N_27
REMARK    3  A    between atoms: C_12  and  C_14
REMARK    4  A    between atoms: N_16  and  C_17
REMARK    5  A    between atoms: C_17  and  C_18
REMARK    6  A    between atoms: C_18  and  C_19
REMARK    7  A    between atoms: C_18  and  C_20
REMARK    8  A    between atoms: C_18  and  N_21
REMARK                            x       y       z     vdW  Elec       q    Type
REMARK                         _______ _______ _______ _____ _____    ______ ____
ROOT
ATOM      1  C   UNL     1       1.635  -2.964   1.232  0.00  0.00    +0.029 C 
ATOM      2  C   UNL     1       1.662  -1.541   0.672  0.00  0.00    +0.083 C 
ATOM      3  C   UNL     1       1.649  -1.572  -0.865  0.00  0.00    +0.059 C 
ATOM      4  C   UNL     1       0.381  -0.843  -1.249  0.00  0.00    -0.022 A 
ATOM      5  C   UNL     1      -0.161  -0.558  -2.487  0.00  0.00    +0.038 A 
ATOM      6  C   UNL     1      -1.353   0.135  -2.581  0.00  0.00    +0.127 A 
ATOM      7  C   UNL     1      -2.004   0.543  -1.431  0.00  0.00    +0.034 A 
ATOM      8  C   UNL     1      -1.467   0.262  -0.193  0.00  0.00    +0.026 A 
ATOM      9  C   UNL     1      -0.263  -0.438  -0.090  0.00  0.00    +0.040 A 
ATOM     10  N   UNL     1       0.445  -0.820   1.054  0.00  0.00    -0.260 N 
ATOM     11  C   UNL     1       0.064  -0.565   2.321  0.00  0.00    +0.306 C 
ATOM     12  O   UNL     1      -1.019  -0.062   2.540  0.00  0.00    -0.265 OA
ENDROOT
BRANCH  11  13
ATOM     13  C   UNL     1       0.975  -0.900   3.457  0.00  0.00    +0.300 C 
ATOM     14  O   UNL     1       2.096  -1.310   3.235  0.00  0.00    -0.265 OA
ATOM     15  N   UNL     1       0.552  -0.749   4.727  0.00  0.00    -0.306 N 
ATOM     16  H   UNL     1      -0.344  -0.421   4.904  0.00  0.00    +0.149 HD
BRANCH  15  17
ATOM     17  C   UNL     1       1.445  -1.078   5.841  0.00  0.00    +0.126 C 
BRANCH  17  18
ATOM     18  C   UNL     1       0.772  -0.703   7.163  0.00  0.00    +0.032 C 
ATOM     19  C   UNL     1      -0.461  -1.582   7.374  0.00  0.00    +0.029 C 
ATOM     20  C   UNL     1       1.756  -0.917   8.315  0.00  0.00    +0.029 C 
BRANCH  18  21
ATOM     21  N   UNL     1       0.366   0.709   7.122  0.00  0.00    -0.291 NA
ATOM     22  C   UNL     1       1.496   1.572   6.749  0.00  0.00    +0.113 C 
ATOM     23  C   UNL     1       1.016   3.023   6.661  0.00  0.00    +0.175 C 
ATOM     24  O   UNL     1       0.434   3.404   7.910  0.00  0.00    -0.377 OA
ATOM     25  C   UNL     1      -0.670   2.584   8.304  0.00  0.00    +0.175 C 
ATOM     26  C   UNL     1      -0.207   1.129   8.409  0.00  0.00    +0.113 C 
ENDBRANCH  18  21
ENDBRANCH  17  18
ENDBRANCH  15  17
ENDBRANCH  11  13
BRANCH   6  27
ATOM     27  N   UNL     1      -1.933   0.439  -3.909  0.00  0.00    +0.056 N 
ATOM     28  O   UNL     1      -1.363   0.081  -4.913  0.00  0.00    -0.126 OA
ATOM     29  O   UNL     1      -2.976   1.045  -3.988  0.00  0.00    -0.126 OA
ENDBRANCH   6  27
TORSDOF 5
