REMARK  Name = ZINC09631195
REMARK  9 active torsions:
REMARK  status: ('A' for Active; 'I' for Inactive)
REMARK    1  A    between atoms: C_1  and  C_2
REMARK    2  A    between atoms: C_2  and  C_3
REMARK    3  A    between atoms: C_3  and  C_5
REMARK    4  A    between atoms: C_3  and  N_6
REMARK    5  A    between atoms: C_15  and  S_16
REMARK    6  A    between atoms: S_16  and  C_17
REMARK    7  A    between atoms: C_17  and  C_18
REMARK    8  A    between atoms: N_20  and  C_21
REMARK    9  A    between atoms: C_24  and  C_27
REMARK                            x       y       z     vdW  Elec       q    Type
REMARK                         _______ _______ _______ _____ _____    ______ ____
ROOT
ATOM      1  N   UNL     1       4.083   1.570  -0.747  0.00  0.00    -0.284 N 
ATOM      2  C   UNL     1       3.171   0.571  -0.701  0.00  0.00    +0.263 A 
ATOM      3  O   UNL     1       3.487  -0.600  -0.821  0.00  0.00    -0.267 OA
ATOM      4  C   UNL     1       1.810   0.974  -0.501  0.00  0.00    +0.076 A 
ATOM      5  C   UNL     1       0.649   0.103  -0.416  0.00  0.00    -0.023 A 
ATOM      6  C   UNL     1      -0.547   0.704  -0.225  0.00  0.00    -0.004 A 
ATOM      7  S   UNL     1      -0.190   2.441  -0.149  0.00  0.00    -0.073 S 
ATOM      8  C   UNL     1       1.559   2.359  -0.374  0.00  0.00    +0.117 A 
ATOM      9  N   UNL     1       2.502   3.292  -0.428  0.00  0.00    -0.216 NA
ATOM     10  C   UNL     1       3.750   2.884  -0.614  0.00  0.00    +0.173 A 
ATOM     11  C   UNL     1      -1.885   0.042  -0.104  0.00  0.00    +0.043 C 
ATOM     12  C   UNL     1      -1.759  -1.406  -0.598  0.00  0.00    +0.005 C 
ATOM     13  C   UNL     1      -0.524  -2.038   0.051  0.00  0.00    +0.005 C 
ATOM     14  C   UNL     1       0.745  -1.416  -0.532  0.00  0.00    +0.037 C 
ENDROOT
BRANCH   1  15
ATOM     15  C   UNL     1       5.491   1.222  -0.948  0.00  0.00    +0.089 C 
ATOM     16  C   UNL     1       5.967   0.334   0.203  0.00  0.00    +0.031 C 
BRANCH  15  18
ATOM     17  C   UNL     1       5.224   1.377  -3.428  0.00  0.00    +0.006 C 
ATOM     18  C   UNL     1       5.646   0.469  -2.271  0.00  0.00    +0.021 C 
ENDBRANCH  15  18
ENDBRANCH   1  15
BRANCH  10  19
ATOM     19  S   UNL     1       5.031   4.091  -0.690  0.00  0.00    -0.078 S 
BRANCH  19  20
ATOM     20  C   UNL     1       4.056   5.599  -0.463  0.00  0.00    +0.173 C 
BRANCH  20  21
ATOM     21  C   UNL     1       4.969   6.798  -0.494  0.00  0.00    +0.227 C 
ATOM     22  O   UNL     1       6.161   6.647  -0.654  0.00  0.00    -0.275 OA
ATOM     23  N   UNL     1       4.460   8.037  -0.344  0.00  0.00    -0.285 N 
ATOM     24  H   UNL     1       3.516   8.153  -0.150  0.00  0.00    +0.155 HD
BRANCH  23  25
ATOM     25  C   UNL     1       5.289   9.151  -0.467  0.00  0.00    +0.033 A 
ATOM     26  C   UNL     1       6.600   9.094  -0.005  0.00  0.00    +0.024 A 
ATOM     27  C   UNL     1       7.423  10.191  -0.129  0.00  0.00    +0.015 A 
ATOM     28  C   UNL     1       6.937  11.365  -0.711  0.00  0.00    +0.037 A 
ATOM     29  C   UNL     1       5.618  11.420  -1.169  0.00  0.00    +0.015 A 
ATOM     30  C   UNL     1       4.802  10.318  -1.047  0.00  0.00    +0.024 A 
BRANCH  28  31
ATOM     31  C   UNL     1       7.815  12.544  -0.841  0.00  0.00    +0.242 C 
ATOM     32  O   UNL     1       7.391  13.565  -1.347  0.00  0.00    -0.270 OA
ATOM     33  N   UNL     1       9.087  12.489  -0.398  0.00  0.00    -0.325 N 
ATOM     34  H   UNL     1       9.425  11.675   0.006  0.00  0.00    +0.145 HD
ATOM     35  H   UNL     1       9.664  13.264  -0.484  0.00  0.00    +0.145 HD
ENDBRANCH  28  31
ENDBRANCH  23  25
ENDBRANCH  20  21
ENDBRANCH  19  20
ENDBRANCH  10  19
TORSDOF 7
