REMARK  Name = ZINC12711614
REMARK  9 active torsions:
REMARK  status: ('A' for Active; 'I' for Inactive)
REMARK    1  A    between atoms: C_1  and  O_2
REMARK    2  A    between atoms: O_2  and  C_3
REMARK    3  A    between atoms: C_6  and  C_10
REMARK    4  A    between atoms: C_10  and  N_55
REMARK    5  A    between atoms: C_16  and  C_18
REMARK    6  A    between atoms: C_18  and  C_19
REMARK    7  A    between atoms: N_21  and  C_22
REMARK    8  A    between atoms: C_22  and  C_23
REMARK    9  A    between atoms: C_23  and  C_24
REMARK                            x       y       z     vdW  Elec       q    Type
REMARK                         _______ _______ _______ _____ _____    ______ ____
ROOT
ATOM      1  C   UNL     1      -6.249   7.963  -5.678  0.00  0.00    -0.058 C 
ATOM      2  C   UNL     1      -7.343   8.937  -5.235  0.00  0.00    +0.085 C 
ATOM      3  N   UNL     1      -8.220   8.295  -4.261  0.00  0.00    -0.318 N 
ATOM      4  C   UNL     1      -7.874   7.194  -3.586  0.00  0.00    +0.200 C 
ATOM      5  O   UNL     1      -8.652   6.742  -2.772  0.00  0.00    -0.278 OA
ATOM      6  C   UNL     1      -6.562   6.492  -3.793  0.00  0.00    +0.028 C 
ATOM      7  H   UNL     1      -9.093   8.684  -4.096  0.00  0.00    +0.149 HD
ATOM      8  N   UNL     1      -5.617   7.403  -4.467  0.00  0.00    +0.391 N 
ATOM      9  H   UNL     1      -5.378   8.170  -3.828  0.00  0.00    -0.080 HD
ENDROOT
BRANCH   8  10
ATOM     10  C   UNL     1      -4.381   6.674  -4.830  0.00  0.00    -0.039 C 
BRANCH  10  14
ATOM     11  C   UNL     1      -1.830   9.272  -7.069  0.00  0.00    +0.123 A 
ATOM     12  C   UNL     1      -1.666   9.149  -5.696  0.00  0.00    +0.046 A 
ATOM     13  C   UNL     1      -2.491   8.308  -4.975  0.00  0.00    +0.008 A 
ATOM     14  C   UNL     1      -3.482   7.590  -5.619  0.00  0.00    -0.028 A 
ATOM     15  C   UNL     1      -3.644   7.706  -6.989  0.00  0.00    +0.128 A 
ATOM     16  C   UNL     1      -2.822   8.551  -7.714  0.00  0.00    +0.084 A 
ATOM     17  F   UNL     1      -4.608   6.998  -7.617  0.00  0.00    -0.205 F 
BRANCH  11  19
ATOM     18  C   UNL     1      -1.244  10.176  -9.188  0.00  0.00    +0.277 C 
ATOM     19  O   UNL     1      -1.018  10.099  -7.779  0.00  0.00    -0.495 OA
ENDBRANCH  11  19
ENDBRANCH  10  14
ENDBRANCH   8  10
BRANCH   6  20
ATOM     20  C   UNL     1      -5.981   6.088  -2.436  0.00  0.00    +0.089 C 
BRANCH  20  21
ATOM     21  C   UNL     1      -5.708   7.325  -1.619  0.00  0.00    +0.212 C 
ATOM     22  O   UNL     1      -5.856   8.423  -2.113  0.00  0.00    -0.276 OA
ATOM     23  N   UNL     1      -5.298   7.210  -0.341  0.00  0.00    -0.315 N 
ATOM     24  H   UNL     1      -5.179   6.332   0.054  0.00  0.00    +0.149 HD
BRANCH  23  25
ATOM     25  C   UNL     1      -5.032   8.412   0.453  0.00  0.00    +0.109 C 
BRANCH  25  26
ATOM     26  C   UNL     1      -4.584   8.006   1.859  0.00  0.00    +0.055 C 
BRANCH  26  27
ATOM     27  C   UNL     1      -4.310   9.243   2.676  0.00  0.00    -0.028 A 
ATOM     28  C   UNL     1      -3.024   9.743   2.762  0.00  0.00    +0.005 A 
ATOM     29  C   UNL     1      -2.772  10.875   3.515  0.00  0.00    +0.000 A 
ATOM     30  C   UNL     1      -3.807  11.512   4.174  0.00  0.00    +0.001 A 
ATOM     31  C   UNL     1      -5.094  11.016   4.083  0.00  0.00    +0.020 A 
ATOM     32  C   UNL     1      -5.346   9.881   3.334  0.00  0.00    +0.044 A 
ATOM     33 CL   UNL     1      -6.962   9.257   3.220  0.00  0.00    -0.083 Cl
ENDBRANCH  26  27
ENDBRANCH  25  26
ENDBRANCH  23  25
ENDBRANCH  20  21
ENDBRANCH   6  20
TORSDOF 8
