REMARK  Name = ZINC04222553
REMARK  13 active torsions:
REMARK  status: ('A' for Active; 'I' for Inactive)
REMARK    1  A    between atoms: C_1  and  C_2
REMARK    2  A    between atoms: C_5  and  O_38
REMARK    3  A    between atoms: C_7  and  C_35
REMARK    4  A    between atoms: C_7  and  C_36
REMARK    5  A    between atoms: N_16  and  C_17
REMARK    6  A    between atoms: C_17  and  C_18
REMARK    7  A    between atoms: C_20  and  C_22
REMARK    8  A    between atoms: C_22  and  C_23
REMARK    9  A    between atoms: N_25  and  C_26
REMARK   10  A    between atoms: C_26  and  C_27
REMARK   11  A    between atoms: C_30  and  O_33
REMARK   12  A    between atoms: O_33  and  C_34
REMARK   13  A    between atoms: C_36  and  O_37
REMARK                            x       y       z     vdW  Elec       q    Type
REMARK                         _______ _______ _______ _____ _____    ______ ____
ROOT
ATOM      1  C   UNL     1      -1.625  -2.027  -2.230  0.00  0.00    +0.012 C 
ATOM      2  C   UNL     1      -0.938  -2.640  -1.008  0.00  0.00    -0.019 C 
ATOM      3  C   UNL     1       0.535  -2.221  -0.982  0.00  0.00    +0.010 C 
ATOM      4  C   UNL     1       0.654  -0.705  -0.843  0.00  0.00    +0.032 C 
ATOM      5  C   UNL     1      -0.001  -0.279   0.475  0.00  0.00    +0.123 C 
ATOM      6  C   UNL     1      -1.481  -0.654   0.431  0.00  0.00    +0.021 C 
ATOM      7  C   UNL     1      -1.642  -2.169   0.267  0.00  0.00    +0.011 C 
ATOM      8  C   UNL     1      -3.151  -2.454   0.139  0.00  0.00    +0.049 C 
ATOM      9  C   UNL     1      -3.342  -3.840  -0.370  0.00  0.00    +0.015 A 
ATOM     10  C   UNL     1      -2.413  -4.652  -0.934  0.00  0.00    +0.058 A 
ATOM     11  N   UNL     1      -2.842  -5.855  -1.312  0.00  0.00    -0.229 NA
ATOM     12  C   UNL     1      -4.092  -6.238  -1.147  0.00  0.00    +0.159 A 
ATOM     13  S   UNL     1      -4.805  -4.840  -0.399  0.00  0.00    -0.057 S 
ATOM     14  N   UNL     1      -4.685  -7.445  -1.482  0.00  0.00    -0.320 N 
ATOM     15  C   UNL     1      -0.980  -4.171  -1.100  0.00  0.00    +0.054 C 
ATOM     16  C   UNL     1      -2.155  -0.212   1.731  0.00  0.00    +0.016 C 
ATOM     17  H   UNL     1      -4.158  -8.145  -1.899  0.00  0.00    +0.148 HD
ENDROOT
BRANCH   5  18
ATOM     18  O   UNL     1       0.130   1.134   0.640  0.00  0.00    -0.391 OA
ATOM     19  H   UNL     1       1.045   1.444   0.665  0.00  0.00    +0.210 HD
ENDBRANCH   5  18
BRANCH  14  20
ATOM     20  C   UNL     1      -6.107  -7.664  -1.207  0.00  0.00    +0.130 C 
BRANCH  20  21
ATOM     21  C   UNL     1      -6.500  -9.045  -1.664  0.00  0.00    -0.016 C 
ATOM     22  C   UNL     1      -7.067  -9.876  -0.824  0.00  0.00    +0.005 C 
ENDBRANCH  20  21
ENDBRANCH  14  20
BRANCH  15  23
ATOM     23  C   UNL     1      -0.448  -4.615  -2.464  0.00  0.00    +0.106 C 
BRANCH  23  24
ATOM     24  C   UNL     1      -0.302  -6.115  -2.483  0.00  0.00    +0.214 C 
ATOM     25  O   UNL     1      -0.594  -6.765  -1.502  0.00  0.00    -0.276 OA
ATOM     26  N   UNL     1       0.154  -6.733  -3.591  0.00  0.00    -0.311 N 
ATOM     27  H   UNL     1       0.387  -6.213  -4.375  0.00  0.00    +0.149 HD
BRANCH  26  28
ATOM     28  C   UNL     1       0.296  -8.191  -3.609  0.00  0.00    +0.139 C 
BRANCH  28  29
ATOM     29  C   UNL     1       0.820  -8.628  -4.953  0.00  0.00    -0.030 A 
ATOM     30  C   UNL     1      -0.064  -8.938  -5.970  0.00  0.00    +0.009 A 
ATOM     31  C   UNL     1       0.413  -9.333  -7.205  0.00  0.00    +0.046 A 
ATOM     32  C   UNL     1       1.780  -9.430  -7.420  0.00  0.00    +0.120 A 
ATOM     33  C   UNL     1       2.665  -9.124  -6.396  0.00  0.00    +0.046 A 
ATOM     34  C   UNL     1       2.182  -8.724  -5.165  0.00  0.00    +0.009 A 
BRANCH  32  35
ATOM     35  O   UNL     1       2.253  -9.825  -8.632  0.00  0.00    -0.495 OA
ATOM     36  C   UNL     1       1.284 -10.124  -9.639  0.00  0.00    +0.277 C 
ENDBRANCH  32  35
ENDBRANCH  28  29
ENDBRANCH  26  28
ENDBRANCH  23  24
ENDBRANCH  15  23
BRANCH   6  37
ATOM     37  C   UNL     1      -2.149   0.057  -0.748  0.00  0.00    +0.165 C 
BRANCH  37  38
ATOM     38  O   UNL     1      -2.159   1.466  -0.511  0.00  0.00    -0.394 OA
ATOM     39  H   UNL     1      -2.569   1.981  -1.219  0.00  0.00    +0.209 HD
ENDBRANCH  37  38
ENDBRANCH   6  37
TORSDOF 10
