REMARK  Name = ZINC44973545
REMARK  7 active torsions:
REMARK  status: ('A' for Active; 'I' for Inactive)
REMARK    1  A    between atoms: C_1  and  C_2
REMARK    2  A    between atoms: C_2  and  C_3
REMARK    3  A    between atoms: C_3  and  S_4
REMARK    4  A    between atoms: S_4  and  C_5
REMARK    5  A    between atoms: C_14  and  C_16
REMARK    6  A    between atoms: C_25  and  C_27
REMARK    7  A    between atoms: C_25  and  C_28
REMARK                            x       y       z     vdW  Elec       q    Type
REMARK                         _______ _______ _______ _____ _____    ______ ____
ROOT
ATOM      1  C   UNL     1      -3.112  -2.797   0.017  0.00  0.00    +0.192 A 
ATOM      2  N   UNL     1      -4.031  -1.842   0.025  0.00  0.00    -0.207 NA
ATOM      3  C   UNL     1      -5.328  -2.142   0.034  0.00  0.00    +0.126 A 
ATOM      4  C   UNL     1      -5.709  -3.482   0.034  0.00  0.00    +0.044 A 
ATOM      5  C   UNL     1      -4.718  -4.453   0.028  0.00  0.00    +0.133 A 
ATOM      6  N   UNL     1      -3.441  -4.081   0.013  0.00  0.00    -0.206 NA
ATOM      7  N   UNL     1      -5.068  -5.792   0.037  0.00  0.00    -0.302 N 
ATOM      8  C   UNL     1      -6.320  -6.180   0.429  0.00  0.00    +0.017 C 
ATOM      9  C   UNL     1      -7.347  -5.304   0.447  0.00  0.00    +0.024 C 
ATOM     10  C   UNL     1      -7.158  -3.865   0.037  0.00  0.00    +0.091 C 
ATOM     11  C   UNL     1      -8.634  -5.706   0.846  0.00  0.00    +0.162 C 
ATOM     12  O   UNL     1      -9.531  -4.888   0.872  0.00  0.00    -0.292 OA
ATOM     13  C   UNL     1      -8.922  -7.128   1.240  0.00  0.00    +0.086 C 
ATOM     14  C   UNL     1      -7.947  -8.056   0.508  0.00  0.00    -0.023 C 
ATOM     15  C   UNL     1      -6.519  -7.618   0.844  0.00  0.00    +0.058 C 
ATOM     16  C   UNL     1      -8.174  -7.955  -1.002  0.00  0.00    +0.011 C 
ATOM     17  C   UNL     1      -8.165  -9.499   0.967  0.00  0.00    +0.011 C 
ATOM     18  N   UNL     1      -6.284  -1.139   0.042  0.00  0.00    -0.343 N 
ATOM     19  H   UNL     1      -4.421  -6.461  -0.237  0.00  0.00    +0.153 HD
ATOM     20  H   UNL     1      -6.010  -0.208   0.041  0.00  0.00    +0.144 HD
ATOM     21  H   UNL     1      -7.226  -1.367   0.048  0.00  0.00    +0.144 HD
ENDROOT
BRANCH  10  22
ATOM     22  C   UNL     1      -7.722  -3.669  -1.347  0.00  0.00    -0.032 A 
ATOM     23  C   UNL     1      -7.204  -4.362  -2.430  0.00  0.00    +0.024 A 
ATOM     24  C   UNL     1      -7.747  -4.157  -3.684  0.00  0.00    +0.111 A 
ATOM     25  N   UNL     1      -8.745  -3.313  -3.856  0.00  0.00    -0.263 NA
ATOM     26  C   UNL     1      -9.263  -2.636  -2.850  0.00  0.00    +0.111 A 
ATOM     27  C   UNL     1      -8.776  -2.795  -1.566  0.00  0.00    +0.024 A 
ENDBRANCH  10  22
BRANCH   1  28
ATOM     28  S   UNL     1      -1.409  -2.348   0.003  0.00  0.00    -0.086 S 
BRANCH  28  29
ATOM     29  C   UNL     1      -1.433  -0.534   0.013  0.00  0.00    +0.077 C 
BRANCH  29  31
ATOM     30  C   UNL     1      -0.019   1.526   0.010  0.00  0.00    +0.004 C 
ATOM     31  C   UNL     1       0.002  -0.004   0.002  0.00  0.00    +0.008 C 
ENDBRANCH  29  31
ENDBRANCH  28  29
ENDBRANCH   1  28
TORSDOF 4
