REMARK  Name = ZINC08923116
REMARK  6 active torsions:
REMARK  status: ('A' for Active; 'I' for Inactive)
REMARK    1  A    between atoms: C_1  and  C_2
REMARK    2  A    between atoms: C_2  and  C_3
REMARK    3  A    between atoms: C_2  and  N_51
REMARK    4  A    between atoms: C_11  and  O_28
REMARK    5  A    between atoms: C_13  and  C_16
REMARK    6  A    between atoms: C_19  and  C_21
REMARK                            x       y       z     vdW  Elec       q    Type
REMARK                         _______ _______ _______ _____ _____    ______ ____
ROOT
ATOM      1  C   UNL     1      -5.095   8.194   2.745  0.00  0.00    -0.073 C 
ATOM      2  C   UNL     1      -3.606   8.169   2.391  0.00  0.00    +0.018 C 
ATOM      3  C   UNL     1      -3.431   7.337   1.125  0.00  0.00    -0.027 A 
ATOM      4  C   UNL     1      -4.415   6.493   0.730  0.00  0.00    -0.021 A 
ATOM      5  S   UNL     1      -3.804   5.746  -0.756  0.00  0.00    -0.080 S 
ATOM      6  C   UNL     1      -2.286   6.532  -0.844  0.00  0.00    +0.080 A 
ATOM      7  C   UNL     1      -2.258   7.376   0.274  0.00  0.00    +0.067 A 
ATOM      8  C   UNL     1      -1.046   8.215   0.460  0.00  0.00    +0.220 C 
ATOM      9  N   UNL     1      -0.002   7.941  -0.272  0.00  0.00    -0.220 NA
ATOM     10  C   UNL     1       0.086   6.832  -1.214  0.00  0.00    +0.260 C 
ATOM     11  N   UNL     1      -1.242   6.456  -1.734  0.00  0.00    -0.311 N 
ATOM     12  C   UNL     1      -5.722   6.264   1.422  0.00  0.00    -0.035 C 
ATOM     13  H   UNL     1      -1.371   6.172  -2.652  0.00  0.00    +0.149 HD
ATOM     14  N   UNL     1      -5.610   6.810   2.796  0.00  0.00    +0.384 N 
ATOM     15  H   UNL     1      -4.957   6.230   3.334  0.00  0.00    -0.081 HD
ENDROOT
BRANCH  10  16
ATOM     16  C   UNL     1       0.696   5.643  -0.518  0.00  0.00    +0.148 A 
ATOM     17  C   UNL     1       1.571   5.695   0.506  0.00  0.00    +0.049 A 
ATOM     18  C   UNL     1       1.879   4.365   0.854  0.00  0.00    +0.050 A 
ATOM     19  C   UNL     1       1.174   3.566   0.009  0.00  0.00    +0.137 A 
ATOM     20  O   UNL     1       0.459   4.355  -0.815  0.00  0.00    -0.456 OA
BRANCH  19  21
ATOM     21  C   UNL     1       1.185   2.088   0.002  0.00  0.00    +0.036 A 
ATOM     22  C   UNL     1       2.398   1.396  -0.013  0.00  0.00    +0.013 A 
ATOM     23  C   UNL     1       2.402   0.017  -0.021  0.00  0.00    +0.001 A 
ATOM     24  C   UNL     1       1.208  -0.682  -0.013  0.00  0.00    +0.001 A 
ATOM     25  C   UNL     1       0.002  -0.004   0.002  0.00  0.00    +0.021 A 
ATOM     26  C   UNL     1      -0.017   1.377   0.010  0.00  0.00    +0.052 A 
ATOM     27 CL   UNL     1      -1.530   2.227   0.021  0.00  0.00    -0.083 Cl
ENDBRANCH  19  21
ENDBRANCH  10  16
BRANCH  14  29
ATOM     28  C   UNL     1      -7.939   7.628   2.672  0.00  0.00    -0.014 C 
ATOM     29  C   UNL     1      -6.932   6.786   3.458  0.00  0.00    -0.074 C 
ATOM     30  C   UNL     1      -7.425   5.340   3.534  0.00  0.00    -0.014 C 
ENDBRANCH  14  29
BRANCH   8  31
ATOM     31  O   UNL     1      -1.026   9.227   1.359  0.00  0.00    -0.492 OA
ATOM     32  H   UNL     1      -0.185   9.704   1.394  0.00  0.00    +0.294 HD
ENDBRANCH   8  31
TORSDOF 4
