REMARK  Name = ZINC13211462
REMARK  10 active torsions:
REMARK  status: ('A' for Active; 'I' for Inactive)
REMARK    1  A    between atoms: C_1  and  C_2
REMARK    2  A    between atoms: C_2  and  C_4
REMARK    3  A    between atoms: C_2  and  C_27
REMARK    4  A    between atoms: C_4  and  N_5
REMARK    5  A    between atoms: N_5  and  C_6
REMARK    6  A    between atoms: C_9  and  S_15
REMARK    7  A    between atoms: C_11  and  N_12
REMARK    8  A    between atoms: S_15  and  N_18
REMARK    9  A    between atoms: N_18  and  C_19
REMARK   10  A    between atoms: C_22  and  C_25
REMARK                            x       y       z     vdW  Elec       q    Type
REMARK                         _______ _______ _______ _____ _____    ______ ____
ROOT
ATOM      1  C   UNL     1      -1.462   2.659   0.261  0.00  0.00    +0.058 A 
ATOM      2  C   UNL     1      -0.336   1.852   0.152  0.00  0.00    +0.027 A 
ATOM      3  C   UNL     1       0.923   2.407   0.267  0.00  0.00    +0.031 A 
ATOM      4  C   UNL     1       1.064   3.763   0.495  0.00  0.00    +0.111 A 
ATOM      5  C   UNL     1      -0.054   4.569   0.609  0.00  0.00    +0.063 A 
ATOM      6  C   UNL     1      -1.317   4.020   0.495  0.00  0.00    +0.149 A 
ENDROOT
BRANCH   6   7
ATOM      7  N   UNL     1      -2.513   4.883   0.616  0.00  0.00    +0.058 N 
ATOM      8  O   UNL     1      -2.506   6.004   0.141  0.00  0.00    -0.126 OA
ATOM      9  O   UNL     1      -3.505   4.471   1.191  0.00  0.00    -0.126 OA
ENDBRANCH   6   7
BRANCH   4  10
ATOM     10  S   UNL     1       2.673   4.467   0.641  0.00  0.00    +0.072 S 
ATOM     11  O   UNL     1       2.510   5.723   1.286  0.00  0.00    -0.150 OA
ATOM     12  O   UNL     1       3.517   3.448   1.160  0.00  0.00    -0.150 OA
BRANCH  10  13
ATOM     13  N   UNL     1       3.207   4.789  -0.893  0.00  0.00    -0.216 N 
ATOM     14  H   UNL     1       4.004   4.351  -1.231  0.00  0.00    +0.174 HD
BRANCH  13  15
ATOM     15  C   UNL     1       2.514   5.688  -1.696  0.00  0.00    +0.048 A 
ATOM     16  C   UNL     1       1.739   5.219  -2.753  0.00  0.00    +0.025 A 
ATOM     17  C   UNL     1       1.050   6.102  -3.545  0.00  0.00    +0.017 A 
ATOM     18  C   UNL     1       1.135   7.475  -3.295  0.00  0.00    +0.063 A 
ATOM     19  C   UNL     1       1.919   7.943  -2.236  0.00  0.00    +0.017 A 
ATOM     20  C   UNL     1       2.601   7.054  -1.445  0.00  0.00    +0.025 A 
BRANCH  18  21
ATOM     21  C   UNL     1       0.401   8.427  -4.147  0.00  0.00    +0.387 C 
ATOM     22  O   UNL     1       0.475   9.620  -3.929  0.00  0.00    -0.241 OA
ATOM     23  O   UNL     1      -0.354   7.975  -5.168  0.00  0.00    -0.241 OA
ENDBRANCH  18  21
ENDBRANCH  13  15
ENDBRANCH  10  13
ENDBRANCH   4  10
BRANCH   1  24
ATOM     24  N   UNL     1      -2.737   2.102   0.140  0.00  0.00    -0.342 N 
ATOM     25  H   UNL     1      -3.519   2.676   0.137  0.00  0.00    +0.146 HD
BRANCH  24  26
ATOM     26  C   UNL     1      -2.894   0.650   0.018  0.00  0.00    +0.109 C 
BRANCH  26  28
ATOM     27  C   UNL     1      -5.095   0.682   1.199  0.00  0.00    +0.014 C 
ATOM     28  C   UNL     1      -4.380   0.306  -0.100  0.00  0.00    +0.033 C 
BRANCH  28  29
ATOM     29  C   UNL     1      -4.534  -1.173  -0.349  0.00  0.00    -0.043 A 
ATOM     30  C   UNL     1      -4.048  -2.083   0.571  0.00  0.00    +0.004 A 
ATOM     31  C   UNL     1      -4.194  -3.439   0.345  0.00  0.00    +0.000 A 
ATOM     32  C   UNL     1      -4.818  -3.885  -0.805  0.00  0.00    +0.000 A 
ATOM     33  C   UNL     1      -5.300  -2.974  -1.727  0.00  0.00    +0.000 A 
ATOM     34  C   UNL     1      -5.158  -1.618  -1.499  0.00  0.00    +0.004 A 
ENDBRANCH  28  29
ENDBRANCH  26  28
ENDBRANCH  24  26
ENDBRANCH   1  24
TORSDOF 9
