REMARK  Name = ZINC11139797
REMARK  4 active torsions:
REMARK  status: ('A' for Active; 'I' for Inactive)
REMARK    1  A    between atoms: C_3  and  N_22
REMARK    2  A    between atoms: C_6  and  N_7
REMARK    3  A    between atoms: C_8  and  C_10
REMARK    4  A    between atoms: C_10  and  C_11
REMARK                            x       y       z     vdW  Elec       q    Type
REMARK                         _______ _______ _______ _____ _____    ______ ____
ROOT
ATOM      1  C   UNL     1       1.088   2.018   0.914  0.00  0.00    +0.025 A 
ATOM      2  C   UNL     1      -0.099   1.315   0.985  0.00  0.00    +0.027 A 
ATOM      3  C   UNL     1      -1.216   1.768   0.296  0.00  0.00    +0.055 A 
ATOM      4  C   UNL     1      -1.143   2.935  -0.455  0.00  0.00    +0.064 A 
ATOM      5  C   UNL     1       0.044   3.638  -0.525  0.00  0.00    +0.045 A 
ATOM      6  C   UNL     1       1.162   3.181   0.160  0.00  0.00    +0.035 A 
ATOM      7 CL   UNL     1      -2.542   3.506  -1.311  0.00  0.00    -0.082 Cl
ENDROOT
BRANCH   3   8
ATOM      8  N   UNL     1      -2.419   1.052   0.363  0.00  0.00    -0.270 N 
ATOM      9  C   UNL     1      -2.799  -0.016  -0.568  0.00  0.00    +0.114 C 
ATOM     10  C   UNL     1      -3.943  -0.785   0.135  0.00  0.00    +0.029 C 
ATOM     11  C   UNL     1      -4.526   0.304   1.065  0.00  0.00    +0.098 C 
ATOM     12  C   UNL     1      -3.375   1.260   1.286  0.00  0.00    +0.220 C 
ATOM     13  O   UNL     1      -3.321   2.092   2.167  0.00  0.00    -0.275 OA
ENDBRANCH   3   8
BRANCH   6  14
ATOM     14  N   UNL     1       2.366   3.893   0.089  0.00  0.00    -0.285 N 
ATOM     15  C   UNL     1       2.349   5.237  -0.018  0.00  0.00    +0.217 C 
ATOM     16  O   UNL     1       1.297   5.837   0.044  0.00  0.00    -0.275 OA
ATOM     17  H   UNL     1       3.212   3.420   0.117  0.00  0.00    +0.155 HD
BRANCH  15  18
ATOM     18  C   UNL     1       3.638   5.994  -0.214  0.00  0.00    +0.100 C 
BRANCH  18  19
ATOM     19  C   UNL     1       3.340   7.492  -0.304  0.00  0.00    +0.001 C 
ATOM     20  C   UNL     1       2.821   8.021   1.053  0.00  0.00    +0.007 C 
ATOM     21  C   UNL     1       3.869   9.091   1.486  0.00  0.00    -0.010 C 
ATOM     22  C   UNL     1       5.143   8.266   1.846  0.00  0.00    +0.004 C 
ATOM     23  C   UNL     1       5.662   7.737   0.489  0.00  0.00    +0.004 C 
ATOM     24  C   UNL     1       4.653   8.292  -0.562  0.00  0.00    -0.007 C 
ATOM     25  C   UNL     1       4.285   9.672   0.089  0.00  0.00    +0.007 C 
ENDBRANCH  18  19
ENDBRANCH  15  18
ENDBRANCH   6  14
TORSDOF 4
