REMARK  Name = ZINC35714397
REMARK  8 active torsions:
REMARK  status: ('A' for Active; 'I' for Inactive)
REMARK    1  A    between atoms: C_1  and  C_2
REMARK    2  A    between atoms: C_2  and  C_3
REMARK    3  A    between atoms: C_2  and  N_4
REMARK    4  A    between atoms: N_4  and  C_5
REMARK    5  A    between atoms: N_4  and  C_14
REMARK    6  A    between atoms: C_5  and  C_6
REMARK    7  A    between atoms: C_14  and  C_15
REMARK    8  A    between atoms: C_17  and  C_20
REMARK                            x       y       z     vdW  Elec       q    Type
REMARK                         _______ _______ _______ _____ _____    ______ ____
ROOT
ATOM      1  N   UNL     1      -1.778  -0.331   0.065  0.00  0.00    +0.390 N 
ATOM      2  H   UNL     1      -2.294   0.073   0.832  0.00  0.00    -0.080 HD
ENDROOT
BRANCH   1   4
ATOM      3  C   UNL     1       0.162   0.090  -1.370  0.00  0.00    -0.013 C 
ATOM      4  C   UNL     1      -0.421   0.231   0.037  0.00  0.00    -0.074 C 
ATOM      5  C   UNL     1      -0.474   1.711   0.421  0.00  0.00    -0.013 C 
ENDBRANCH   1   4
BRANCH   1   6
ATOM      6  C   UNL     1      -1.701  -1.787   0.238  0.00  0.00    -0.041 C 
BRANCH   6   7
ATOM      7  C   UNL     1      -1.102  -2.102   1.585  0.00  0.00    -0.046 A 
ATOM      8  C   UNL     1       0.210  -2.528   1.675  0.00  0.00    +0.004 A 
ATOM      9  C   UNL     1       0.760  -2.816   2.909  0.00  0.00    +0.020 A 
ATOM     10  C   UNL     1      -0.002  -2.678   4.056  0.00  0.00    +0.042 A 
ATOM     11  C   UNL     1      -1.314  -2.252   3.967  0.00  0.00    +0.040 A 
ATOM     12  C   UNL     1      -1.863  -1.959   2.731  0.00  0.00    +0.044 A 
ATOM     13 CL   UNL     1      -3.509  -1.417   2.619  0.00  0.00    -0.083 Cl
ATOM     14 CL   UNL     1       0.690  -3.042   5.606  0.00  0.00    -0.083 Cl
ENDBRANCH   6   7
ENDBRANCH   1   6
BRANCH   1  15
ATOM     15  C   UNL     1      -2.460  -0.023  -1.200  0.00  0.00    +0.020 C 
BRANCH  15  16
ATOM     16  C   UNL     1      -2.695   1.462  -1.296  0.00  0.00    +0.179 A 
ATOM     17  N   UNL     1      -1.970   2.296  -1.979  0.00  0.00    -0.210 NA
ATOM     18  C   UNL     1      -2.487   3.545  -1.826  0.00  0.00    +0.164 A 
ATOM     19  C   UNL     1      -3.571   3.431  -1.010  0.00  0.00    +0.230 A 
ATOM     20  O   UNL     1      -3.689   2.131  -0.694  0.00  0.00    -0.449 OA
BRANCH  18  21
ATOM     21  C   UNL     1      -1.972   4.787  -2.429  0.00  0.00    +0.268 C 
ATOM     22  O   UNL     1      -2.529   5.845  -2.212  0.00  0.00    -0.268 OA
ATOM     23  N   UNL     1      -0.882   4.749  -3.221  0.00  0.00    -0.296 N 
ATOM     24  C   UNL     1      -0.118   3.543  -3.571  0.00  0.00    +0.108 C 
ATOM     25  C   UNL     1       1.052   3.987  -4.473  0.00  0.00    +0.020 C 
ATOM     26  C   UNL     1       1.212   5.490  -4.120  0.00  0.00    +0.020 C 
ATOM     27  C   UNL     1      -0.262   5.910  -3.885  0.00  0.00    +0.108 C 
ENDBRANCH  18  21
ENDBRANCH  15  16
ENDBRANCH   1  15
TORSDOF 6
