REMARK  Name = ZINC00781334
REMARK  11 active torsions:
REMARK  status: ('A' for Active; 'I' for Inactive)
REMARK    1  A    between atoms: C_1  and  C_2
REMARK    2  A    between atoms: C_2  and  O_3
REMARK    3  A    between atoms: O_3  and  C_4
REMARK    4  A    between atoms: C_4  and  C_6
REMARK    5  A    between atoms: C_7  and  C_37
REMARK    6  A    between atoms: C_11  and  C_13
REMARK    7  A    between atoms: C_24  and  C_27
REMARK    8  A    between atoms: C_30  and  O_35
REMARK    9  A    between atoms: C_31  and  O_33
REMARK   10  A    between atoms: O_33  and  C_34
REMARK   11  A    between atoms: O_35  and  C_36
REMARK                            x       y       z     vdW  Elec       q    Type
REMARK                         _______ _______ _______ _____ _____    ______ ____
ROOT
ATOM      1  C   UNL     1       3.677   2.076  -0.456  0.00  0.00    +0.065 C 
ATOM      2  C   UNL     1       3.509   3.408  -0.385  0.00  0.00    +0.016 C 
ATOM      3  N   UNL     1       2.322   3.934   0.045  0.00  0.00    -0.321 N 
ATOM      4  C   UNL     1       1.179   3.182   0.028  0.00  0.00    +0.016 C 
ATOM      5  C   UNL     1       1.246   1.835  -0.024  0.00  0.00    +0.024 C 
ATOM      6  C   UNL     1       2.580   1.131  -0.061  0.00  0.00    +0.096 C 
ATOM      7  C   UNL     1       0.080   1.050  -0.043  0.00  0.00    +0.162 C 
ATOM      8  O   UNL     1       0.176  -0.160  -0.104  0.00  0.00    -0.292 OA
ATOM      9  C   UNL     1      -1.284   1.681   0.006  0.00  0.00    +0.088 C 
ATOM     10  C   UNL     1      -1.187   3.012   0.764  0.00  0.00    +0.032 C 
ATOM     11  C   UNL     1      -0.151   3.893   0.062  0.00  0.00    +0.059 C 
ATOM     12  C   UNL     1       4.636   4.327  -0.781  0.00  0.00    +0.061 C 
ATOM     13  H   UNL     1       2.280   4.972   0.408  0.00  0.00    +0.152 HD
ENDROOT
BRANCH   6  14
ATOM     14  C   UNL     1       2.880   0.567   1.304  0.00  0.00    +0.018 A 
ATOM     15  C   UNL     1       2.979   1.412   2.396  0.00  0.00    +0.129 A 
ATOM     16  C   UNL     1       3.250   0.891   3.650  0.00  0.00    +0.039 A 
ATOM     17  C   UNL     1       3.432  -0.469   3.809  0.00  0.00    +0.004 A 
ATOM     18  C   UNL     1       3.338  -1.312   2.718  0.00  0.00    +0.020 A 
ATOM     19  C   UNL     1       3.063  -0.794   1.465  0.00  0.00    +0.048 A 
ATOM     20 CL   UNL     1       2.947  -1.854   0.094  0.00  0.00    -0.083 Cl
ATOM     21  F   UNL     1       2.806   2.742   2.239  0.00  0.00    -0.205 F 
ENDBRANCH   6  14
BRANCH  10  22
ATOM     22  C   UNL     1      -2.528   3.700   0.752  0.00  0.00    -0.040 A 
ATOM     23  C   UNL     1      -3.127   4.022  -0.452  0.00  0.00    +0.008 A 
ATOM     24  C   UNL     1      -4.357   4.652  -0.469  0.00  0.00    +0.049 A 
ATOM     25  C   UNL     1      -4.993   4.963   0.723  0.00  0.00    +0.161 A 
ATOM     26  C   UNL     1      -4.390   4.639   1.934  0.00  0.00    +0.162 A 
ATOM     27  C   UNL     1      -3.159   4.002   1.944  0.00  0.00    +0.053 A 
BRANCH  26  28
ATOM     28  O   UNL     1      -5.010   4.941   3.106  0.00  0.00    -0.491 OA
ATOM     29  C   UNL     1      -4.333   4.579   4.311  0.00  0.00    +0.277 C 
ENDBRANCH  26  28
BRANCH  25  30
ATOM     30  O   UNL     1      -6.204   5.582   0.708  0.00  0.00    -0.491 OA
ATOM     31  C   UNL     1      -6.762   5.884  -0.573  0.00  0.00    +0.277 C 
ENDBRANCH  25  30
ENDBRANCH  10  22
BRANCH   1  32
ATOM     32  C   UNL     1       4.910   1.556  -0.911  0.00  0.00    +0.338 C 
ATOM     33  O   UNL     1       5.769   2.307  -1.333  0.00  0.00    -0.245 OA
BRANCH  32  34
ATOM     34  O   UNL     1       5.135   0.225  -0.878  0.00  0.00    -0.462 OA
BRANCH  34  36
ATOM     35  C   UNL     1       6.473  -1.754  -1.239  0.00  0.00    +0.048 C 
ATOM     36  C   UNL     1       6.403  -0.231  -1.354  0.00  0.00    +0.229 C 
ENDBRANCH  34  36
ENDBRANCH  32  34
ENDBRANCH   1  32
TORSDOF 7
