REMARK  Name = ZINC63560493
REMARK  7 active torsions:
REMARK  status: ('A' for Active; 'I' for Inactive)
REMARK    1  A    between atoms: C_1  and  C_2
REMARK    2  A    between atoms: C_4  and  C_26
REMARK    3  A    between atoms: N_6  and  C_13
REMARK    4  A    between atoms: C_13  and  C_14
REMARK    5  A    between atoms: C_14  and  C_15
REMARK    6  A    between atoms: C_18  and  O_24
REMARK    7  A    between atoms: O_24  and  C_25
REMARK                            x       y       z     vdW  Elec       q    Type
REMARK                         _______ _______ _______ _____ _____    ______ ____
ROOT
ATOM      1  C   UNL     1      -0.043  -3.900   2.465  0.00  0.00    +0.067 C 
ATOM      2  C   UNL     1      -0.662  -2.710   1.778  0.00  0.00    +0.064 C 
ATOM      3  C   UNL     1      -0.842  -2.610   0.488  0.00  0.00    +0.013 C 
ATOM      4  C   UNL     1      -1.026  -3.100  -0.929  0.00  0.00    +0.140 C 
ATOM      5  N   UNL     1      -2.304  -2.464  -1.337  0.00  0.00    -0.288 N 
ATOM      6  C   UNL     1      -2.519  -1.348  -0.586  0.00  0.00    +0.247 C 
ATOM      7  O   UNL     1      -3.498  -0.634  -0.628  0.00  0.00    -0.273 OA
ATOM      8  C   UNL     1      -1.325  -1.163   0.300  0.00  0.00    +0.243 C 
ATOM      9  N   UNL     1      -1.550  -0.719   1.662  0.00  0.00    -0.170 NA
ATOM     10  N   UNL     1      -1.113  -1.601   2.419  0.00  0.00    -0.158 NA
ENDROOT
BRANCH   4  11
ATOM     11  C   UNL     1      -1.139  -4.602  -0.964  0.00  0.00    +0.012 A 
ATOM     12  C   UNL     1      -2.364  -5.208  -0.756  0.00  0.00    +0.008 A 
ATOM     13  C   UNL     1      -2.467  -6.587  -0.788  0.00  0.00    +0.001 A 
ATOM     14  C   UNL     1      -1.347  -7.360  -1.029  0.00  0.00    +0.003 A 
ATOM     15  C   UNL     1      -0.122  -6.756  -1.238  0.00  0.00    +0.039 A 
ATOM     16  C   UNL     1      -0.018  -5.375  -1.211  0.00  0.00    +0.129 A 
ATOM     17  F   UNL     1       1.179  -4.783  -1.421  0.00  0.00    -0.205 F 
ENDBRANCH   4  11
BRANCH   5  18
ATOM     18  C   UNL     1      -3.197  -2.960  -2.387  0.00  0.00    +0.113 C 
BRANCH  18  19
ATOM     19  C   UNL     1      -2.787  -2.358  -3.732  0.00  0.00    +0.052 C 
BRANCH  19  20
ATOM     20  C   UNL     1      -3.776  -2.772  -4.790  0.00  0.00    -0.040 C 
ATOM     21  C   UNL     1      -4.845  -2.066  -5.225  0.00  0.00    +0.002 A 
ATOM     22  C   UNL     1      -5.387  -0.753  -4.858  0.00  0.00    +0.055 A 
ATOM     23  C   UNL     1      -6.500  -0.294  -5.479  0.00  0.00    +0.121 A 
ATOM     24  C   UNL     1      -7.164  -1.033  -6.473  0.00  0.00    +0.047 A 
ATOM     25  C   UNL     1      -6.742  -2.250  -6.878  0.00  0.00    +0.029 A 
ATOM     26  C   UNL     1      -5.546  -2.844  -6.273  0.00  0.00    +0.043 A 
ATOM     27  N   UNL     1      -4.935  -3.985  -6.477  0.00  0.00    -0.380 N 
ATOM     28  C   UNL     1      -3.772  -4.058  -5.586  0.00  0.00    +0.144 C 
ATOM     29  H   UNL     1      -5.205  -4.665  -7.113  0.00  0.00    +0.160 HD
BRANCH  23  30
ATOM     30  O   UNL     1      -6.991   0.924  -5.128  0.00  0.00    -0.495 OA
ATOM     31  C   UNL     1      -8.166   1.370  -5.809  0.00  0.00    +0.277 C 
ENDBRANCH  23  30
ENDBRANCH  19  20
ENDBRANCH  18  19
ENDBRANCH   5  18
TORSDOF 5
