REMARK  Name = ZINC46254697
REMARK  10 active torsions:
REMARK  status: ('A' for Active; 'I' for Inactive)
REMARK    1  A    between atoms: C_1  and  C_2
REMARK    2  A    between atoms: N_5  and  C_8
REMARK    3  A    between atoms: C_8  and  C_10
REMARK    4  A    between atoms: C_8  and  C_24
REMARK    5  A    between atoms: C_10  and  N_11
REMARK    6  A    between atoms: N_14  and  N_15
REMARK    7  A    between atoms: N_15  and  C_16
REMARK    8  A    between atoms: C_16  and  C_23
REMARK    9  A    between atoms: C_24  and  C_25
REMARK   10  A    between atoms: C_24  and  C_26
REMARK                            x       y       z     vdW  Elec       q    Type
REMARK                         _______ _______ _______ _____ _____    ______ ____
ROOT
ATOM      1  N   UNL     1       1.881  -3.914   2.387  0.00  0.00    -0.300 N 
ATOM      2  C   UNL     1       2.393  -4.255   3.586  0.00  0.00    +0.313 C 
ATOM      3  O   UNL     1       3.411  -4.917   3.647  0.00  0.00    -0.252 OA
ATOM      4  N   UNL     1       1.776  -3.863   4.718  0.00  0.00    -0.234 N 
ATOM      5  H   UNL     1       1.069  -3.386   2.338  0.00  0.00    +0.150 HD
ATOM      6  H   UNL     1       2.144  -4.108   5.581  0.00  0.00    +0.171 HD
ENDROOT
BRANCH   4   7
ATOM      7  N   UNL     1       0.632  -3.119   4.650  0.00  0.00    -0.232 NA
ATOM      8  H   UNL     1       0.779  -2.279   4.111  0.00  0.00    +0.145 HD
BRANCH   7   9
ATOM      9  C   UNL     1       0.129  -2.802   5.993  0.00  0.00    +0.054 C 
ATOM     10  C   UNL     1      -0.074  -4.108   6.761  0.00  0.00    +0.047 C 
ATOM     11  C   UNL     1      -1.198  -3.940   7.821  0.00  0.00    +0.168 C 
ATOM     12  S   UNL     1      -2.384  -2.909   6.852  0.00  0.00    -0.029 S 
ATOM     13  O   UNL     1      -3.055  -2.018   7.732  0.00  0.00    -0.174 OA
ATOM     14  O   UNL     1      -3.140  -3.750   5.992  0.00  0.00    -0.174 OA
ATOM     15  C   UNL     1      -1.157  -1.965   5.854  0.00  0.00    +0.189 C 
ATOM     16  C   UNL     1       1.182  -1.966   6.724  0.00  0.00    +0.031 C 
ENDBRANCH   7   9
ENDBRANCH   4   7
BRANCH   1  17
ATOM     17  C   UNL     1       2.552  -4.341   1.156  0.00  0.00    +0.091 C 
BRANCH  17  18
ATOM     18  C   UNL     1       1.883  -3.673  -0.047  0.00  0.00    -0.048 C 
BRANCH  18  23
ATOM     19  C   UNL     1       3.545   1.676   1.024  0.00  0.00    +0.007 C 
ATOM     20  C   UNL     1       3.297   0.170   1.131  0.00  0.00    -0.018 C 
ATOM     21  C   UNL     1       1.790  -0.104   1.109  0.00  0.00    -0.016 C 
ATOM     22  C   UNL     1       1.552  -1.615   1.136  0.00  0.00    -0.078 C 
ATOM     23  N   UNL     1       2.181  -2.235  -0.036  0.00  0.00    +0.383 N 
ATOM     24  C   UNL     1       3.634  -2.038   0.016  0.00  0.00    -0.078 C 
ATOM     25  C   UNL     1       3.953  -0.543  -0.055  0.00  0.00    -0.016 C 
ATOM     26  H   UNL     1       1.815  -1.812  -0.876  0.00  0.00    -0.081 HD
ENDBRANCH  18  23
BRANCH  18  27
ATOM     27  C   UNL     1       2.418  -4.295  -1.338  0.00  0.00    -0.029 C 
ATOM     28  C   UNL     1       2.003  -5.766  -1.406  0.00  0.00    +0.005 C 
ATOM     29  C   UNL     1       1.842  -3.547  -2.542  0.00  0.00    +0.005 C 
ENDBRANCH  18  27
ENDBRANCH  17  18
ENDBRANCH   1  17
TORSDOF 6
