REMARK  Name = ZINC21129036
REMARK  7 active torsions:
REMARK  status: ('A' for Active; 'I' for Inactive)
REMARK    1  A    between atoms: C_1  and  C_2
REMARK    2  A    between atoms: N_10  and  N_14
REMARK    3  A    between atoms: C_15  and  C_17
REMARK    4  A    between atoms: C_17  and  O_18
REMARK    5  A    between atoms: O_18  and  C_19
REMARK    6  A    between atoms: C_19  and  C_21
REMARK    7  A    between atoms: C_22  and  C_23
REMARK                            x       y       z     vdW  Elec       q    Type
REMARK                         _______ _______ _______ _____ _____    ______ ____
ROOT
ATOM      1  N   UNL     1      -3.237  13.326   0.095  0.00  0.00    -0.221 N 
ATOM      2  C   UNL     1      -2.989  12.001   0.086  0.00  0.00    +0.267 C 
ATOM      3  O   UNL     1      -3.910  11.212   0.092  0.00  0.00    -0.271 OA
ATOM      4  H   UNL     1      -2.402  14.042   0.090  0.00  0.00    +0.174 HD
ENDROOT
BRANCH   1  14
ATOM      5  C   UNL     1     -10.647  16.096   0.738  0.00  0.00    +0.007 C 
ATOM      6  C   UNL     1      -9.239  15.739   1.219  0.00  0.00    -0.014 C 
ATOM      7  C   UNL     1      -9.004  14.238   1.042  0.00  0.00    +0.006 C 
ATOM      8  C   UNL     1      -7.599  13.881   1.535  0.00  0.00    +0.035 C 
ATOM      9  C   UNL     1      -6.564  14.671   0.742  0.00  0.00    +0.114 C 
ATOM     10  C   UNL     1      -6.800  16.170   0.888  0.00  0.00    +0.035 C 
ATOM     11  C   UNL     1      -8.208  16.517   0.398  0.00  0.00    +0.006 C 
ATOM     12  C   UNL     1      -5.167  14.311   1.196  0.00  0.00    +0.263 C 
ATOM     13  O   UNL     1      -4.694  14.458   2.302  0.00  0.00    -0.271 OA
ATOM     14  N   UNL     1      -4.558  13.791   0.109  0.00  0.00    -0.137 N 
ATOM     15  C   UNL     1      -5.372  13.781  -0.954  0.00  0.00    +0.326 C 
ATOM     16  O   UNL     1      -5.048  13.365  -2.049  0.00  0.00    -0.251 OA
ATOM     17  N   UNL     1      -6.591  14.280  -0.673  0.00  0.00    -0.284 N 
ATOM     18  H   UNL     1      -7.505  14.427  -1.267  0.00  0.00    +0.151 HD
ENDBRANCH   1  14
BRANCH   2  19
ATOM     19  C   UNL     1      -1.567  11.501   0.070  0.00  0.00    +0.329 C 
BRANCH  19  20
ATOM     20  O   UNL     1      -1.566  10.049   0.064  0.00  0.00    -0.452 OA
BRANCH  20  21
ATOM     21  C   UNL     1      -0.363   9.438   0.050  0.00  0.00    +0.332 C 
ATOM     22  O   UNL     1       0.655  10.102   0.043  0.00  0.00    -0.246 OA
BRANCH  21  23
ATOM     23  C   UNL     1      -0.285   7.975   0.043  0.00  0.00    +0.093 C 
ATOM     24  C   UNL     1       0.916   7.365   0.028  0.00  0.00    +0.035 C 
BRANCH  24  25
ATOM     25  C   UNL     1       0.996   5.893   0.021  0.00  0.00    +0.065 A 
ATOM     26  C   UNL     1       2.257   5.272   0.006  0.00  0.00    +0.028 A 
ATOM     27  C   UNL     1       2.343   3.911  -0.000  0.00  0.00    +0.012 A 
ATOM     28  C   UNL     1       1.147   3.167   0.008  0.00  0.00    +0.000 A 
ATOM     29  C   UNL     1       1.163   1.763   0.000  0.00  0.00    +0.010 A 
ATOM     30  C   UNL     1      -0.013   1.076   0.008  0.00  0.00    +0.001 A 
ATOM     31  C   UNL     1      -1.234   1.747   0.017  0.00  0.00    +0.002 A 
ATOM     32  C   UNL     1      -1.289   3.106   0.031  0.00  0.00    +0.028 A 
ATOM     33  C   UNL     1      -0.095   3.853   0.023  0.00  0.00    +0.072 A 
ATOM     34  N   UNL     1      -0.121   5.186   0.029  0.00  0.00    -0.247 NA
ENDBRANCH  24  25
ENDBRANCH  21  23
ENDBRANCH  20  21
ENDBRANCH  19  20
ENDBRANCH   2  19
TORSDOF 6
