REMARK  Name = ZINC43741697
REMARK  11 active torsions:
REMARK  status: ('A' for Active; 'I' for Inactive)
REMARK    1  A    between atoms: C_1  and  C_2
REMARK    2  A    between atoms: N_6  and  O_7
REMARK    3  A    between atoms: O_7  and  C_8
REMARK    4  A    between atoms: C_8  and  C_9
REMARK    5  A    between atoms: N_11  and  C_12
REMARK    6  A    between atoms: C_12  and  C_13
REMARK    7  A    between atoms: C_13  and  C_14
REMARK    8  A    between atoms: C_17  and  O_20
REMARK    9  A    between atoms: C_31  and  C_40
REMARK   10  A    between atoms: C_36  and  C_37
REMARK   11  A    between atoms: C_36  and  O_39
REMARK                            x       y       z     vdW  Elec       q    Type
REMARK                         _______ _______ _______ _____ _____    ______ ____
ROOT
ATOM      1  C   UNL     1      -0.019   1.525   0.010  0.00  0.00    +0.016 C 
ATOM      2  C   UNL     1       0.002  -0.004   0.002  0.00  0.00    -0.007 C 
ATOM      3  C   UNL     1       0.749  -0.489  -1.247  0.00  0.00    +0.017 C 
ATOM      4  C   UNL     1       2.187   0.028  -1.241  0.00  0.00    +0.059 C 
ATOM      5  C   UNL     1       2.858  -0.371   0.050  0.00  0.00    +0.080 C 
ATOM      6  N   UNL     1       4.149  -0.473   0.106  0.00  0.00    -0.089 NA
ATOM      7  C   UNL     1       2.048  -0.642   1.243  0.00  0.00    +0.026 C 
ATOM      8  C   UNL     1       0.735  -0.487   1.230  0.00  0.00    -0.062 C 
ATOM      9  C   UNL     1      -0.087  -0.807   2.454  0.00  0.00    +0.031 C 
ATOM     10  C   UNL     1      -1.013  -1.971   2.113  0.00  0.00    +0.008 C 
ATOM     11  C   UNL     1      -1.507  -1.924   0.685  0.00  0.00    -0.003 C 
ATOM     12  C   UNL     1      -1.408  -0.572  -0.012  0.00  0.00    +0.002 C 
ATOM     13  C   UNL     1      -2.492   0.407   0.386  0.00  0.00    +0.005 C 
ATOM     14  C   UNL     1      -3.889  -0.203   0.134  0.00  0.00    +0.011 C 
ATOM     15  C   UNL     1      -4.001  -1.471   0.946  0.00  0.00    +0.011 C 
ATOM     16  C   UNL     1      -2.904  -2.461   0.514  0.00  0.00    +0.002 C 
ATOM     17  C   UNL     1      -3.289  -3.721   1.300  0.00  0.00    +0.008 C 
ATOM     18  C   UNL     1      -4.839  -3.742   1.166  0.00  0.00    +0.049 C 
ATOM     19  C   UNL     1      -5.261  -2.322   0.705  0.00  0.00    +0.132 C 
ATOM     20  C   UNL     1      -3.982  -1.129   2.434  0.00  0.00    +0.015 C 
ENDROOT
BRANCH  19  21
ATOM     21  C   UNL     1      -6.370  -1.821   1.526  0.00  0.00    -0.070 C 
ATOM     22  C   UNL     1      -7.257  -1.420   2.183  0.00  0.00    +0.007 C 
ENDBRANCH  19  21
BRANCH  19  23
ATOM     23  O   UNL     1      -5.603  -2.319  -0.677  0.00  0.00    -0.376 OA
ATOM     24  H   UNL     1      -6.389  -2.840  -0.889  0.00  0.00    +0.211 HD
ENDBRANCH  19  23
BRANCH   6  25
ATOM     25  O   UNL     1       4.778  -0.848   1.318  0.00  0.00    -0.384 OA
BRANCH  25  26
ATOM     26  C   UNL     1       6.203  -0.921   1.235  0.00  0.00    +0.358 C 
BRANCH  26  27
ATOM     27  C   UNL     1       6.764  -1.326   2.574  0.00  0.00    +0.253 C 
ATOM     28  O   UNL     1       6.017  -1.531   3.508  0.00  0.00    -0.272 OA
ATOM     29  N   UNL     1       8.095  -1.459   2.735  0.00  0.00    -0.312 N 
ATOM     30  H   UNL     1       8.693  -1.295   1.988  0.00  0.00    +0.149 HD
BRANCH  29  31
ATOM     31  C   UNL     1       8.640  -1.853   4.036  0.00  0.00    +0.109 C 
BRANCH  31  32
ATOM     32  C   UNL     1      10.166  -1.931   3.948  0.00  0.00    +0.054 C 
BRANCH  32  33
ATOM     33  C   UNL     1      10.727  -2.336   5.287  0.00  0.00    -0.046 A 
ATOM     34  C   UNL     1      11.056  -1.368   6.218  0.00  0.00    +0.007 A 
ATOM     35  C   UNL     1      11.571  -1.736   7.446  0.00  0.00    +0.045 A 
ATOM     36  C   UNL     1      11.757  -3.078   7.744  0.00  0.00    +0.117 A 
ATOM     37  C   UNL     1      11.425  -4.047   6.809  0.00  0.00    +0.045 A 
ATOM     38  C   UNL     1      10.906  -3.674   5.584  0.00  0.00    +0.007 A 
BRANCH  36  39
ATOM     39  O   UNL     1      12.264  -3.442   8.952  0.00  0.00    -0.507 OA
ATOM     40  H   UNL     1      11.592  -3.587   9.632  0.00  0.00    +0.292 HD
ENDBRANCH  36  39
ENDBRANCH  32  33
ENDBRANCH  31  32
ENDBRANCH  29  31
ENDBRANCH  26  27
ENDBRANCH  25  26
ENDBRANCH   6  25
TORSDOF 9
