REMARK  Name = ZINC36545562
REMARK  8 active torsions:
REMARK  status: ('A' for Active; 'I' for Inactive)
REMARK    1  A    between atoms: C_1  and  C_2
REMARK    2  A    between atoms: C_3  and  C_4
REMARK    3  A    between atoms: C_4  and  C_6
REMARK    4  A    between atoms: C_4  and  N_15
REMARK    5  A    between atoms: N_8  and  C_9
REMARK    6  A    between atoms: N_15  and  C_16
REMARK    7  A    between atoms: C_23  and  C_25
REMARK    8  A    between atoms: C_25  and  C_26
REMARK                            x       y       z     vdW  Elec       q    Type
REMARK                         _______ _______ _______ _____ _____    ______ ____
ROOT
ATOM      1  N   UNL     1       0.003  -3.076  -0.014  0.00  0.00    -0.254 N 
ATOM      2  C   UNL     1       0.408  -3.191   1.266  0.00  0.00    +0.225 C 
ATOM      3  O   UNL     1       1.337  -2.524   1.671  0.00  0.00    -0.275 OA
ENDROOT
BRANCH   1   4
ATOM      4  C   UNL     1      -1.069  -3.847  -0.481  0.00  0.00    +0.056 A 
ATOM      5  C   UNL     1      -0.852  -5.145  -0.922  0.00  0.00    +0.025 A 
ATOM      6  C   UNL     1      -1.911  -5.903  -1.383  0.00  0.00    +0.002 A 
ATOM      7  C   UNL     1      -3.187  -5.370  -1.404  0.00  0.00    +0.002 A 
ATOM      8  C   UNL     1      -3.407  -4.077  -0.966  0.00  0.00    +0.022 A 
ATOM      9  C   UNL     1      -2.353  -3.316  -0.498  0.00  0.00    +0.062 A 
ATOM     10 CL   UNL     1      -2.631  -1.696   0.059  0.00  0.00    -0.082 Cl
ENDBRANCH   1   4
BRANCH   1  11
ATOM     11  C   UNL     1       0.683  -2.145  -0.917  0.00  0.00    +0.190 C 
BRANCH  11  12
ATOM     12  C   UNL     1       2.117  -2.575  -1.096  0.00  0.00    +0.238 C 
ATOM     13  O   UNL     1       2.606  -3.385  -0.337  0.00  0.00    -0.273 OA
ATOM     14  N   UNL     1       2.855  -2.060  -2.099  0.00  0.00    -0.311 N 
ATOM     15  H   UNL     1       2.464  -1.412  -2.706  0.00  0.00    +0.149 HD
BRANCH  14  16
ATOM     16  C   UNL     1       4.248  -2.479  -2.273  0.00  0.00    +0.073 C 
ATOM     17  C   UNL     1       5.151  -1.634  -1.371  0.00  0.00    +0.022 C 
ATOM     18  C   UNL     1       6.606  -2.071  -1.553  0.00  0.00    +0.002 C 
ATOM     19  C   UNL     1       7.018  -1.877  -3.013  0.00  0.00    +0.000 C 
ATOM     20  C   UNL     1       6.115  -2.721  -3.915  0.00  0.00    +0.002 C 
ATOM     21  C   UNL     1       4.660  -2.284  -3.733  0.00  0.00    +0.022 C 
ENDBRANCH  14  16
ENDBRANCH  11  12
BRANCH  11  24
ATOM     22  C   UNL     1       0.025   0.825   1.423  0.00  0.00    +0.035 C 
ATOM     23  C   UNL     1      -0.045  -0.526   0.759  0.00  0.00    -0.032 C 
ATOM     24  C   UNL     1       0.645  -0.757  -0.330  0.00  0.00    +0.000 C 
ENDBRANCH  11  24
ENDBRANCH   1  11
BRANCH   2  25
ATOM     25  C   UNL     1      -0.292  -4.149   2.195  0.00  0.00    +0.133 C 
BRANCH  25  26
ATOM     26  C   UNL     1       0.349  -4.087   3.557  0.00  0.00    -0.019 A 
ATOM     27  C   UNL     1       1.339  -4.990   3.897  0.00  0.00    +0.005 A 
ATOM     28  C   UNL     1       1.928  -4.934   5.146  0.00  0.00    +0.002 A 
ATOM     29  C   UNL     1       1.527  -3.975   6.058  0.00  0.00    +0.021 A 
ATOM     30  C   UNL     1       0.536  -3.071   5.720  0.00  0.00    +0.060 A 
ATOM     31  C   UNL     1      -0.049  -3.123   4.466  0.00  0.00    +0.063 A 
ATOM     32 CL   UNL     1      -1.287  -1.984   4.037  0.00  0.00    -0.082 Cl
ATOM     33 CL   UNL     1       0.032  -1.867   6.864  0.00  0.00    -0.082 Cl
ENDBRANCH  25  26
ENDBRANCH   2  25
TORSDOF 7
