REMARK  Name = ZINC28852970
REMARK  7 active torsions:
REMARK  status: ('A' for Active; 'I' for Inactive)
REMARK    1  A    between atoms: C_1  and  N_2
REMARK    2  A    between atoms: C_11  and  S_12
REMARK    3  A    between atoms: S_12  and  C_13
REMARK    4  A    between atoms: C_13  and  C_14
REMARK    5  A    between atoms: C_17  and  C_19
REMARK    6  A    between atoms: C_22  and  O_25
REMARK    7  A    between atoms: O_25  and  C_26
REMARK                            x       y       z     vdW  Elec       q    Type
REMARK                         _______ _______ _______ _____ _____    ______ ____
ROOT
ATOM      1  C   UNL     1       2.449  -4.161  -0.043  0.00  0.00    +0.230 C 
ATOM      2  O   UNL     1       1.409  -4.785  -0.036  0.00  0.00    -0.274 OA
ATOM      3  N   UNL     1       2.426  -2.813  -0.036  0.00  0.00    -0.252 N 
ATOM      4  C   UNL     1       1.248  -2.159  -0.021  0.00  0.00    +0.250 C 
ATOM      5  O   UNL     1       0.206  -2.785  -0.014  0.00  0.00    -0.270 OA
ATOM      6  H   UNL     1       3.369  -2.247  -0.042  0.00  0.00    +0.158 HD
ENDROOT
BRANCH   4   7
ATOM      7  C   UNL     1       1.223  -0.684  -0.013  0.00  0.00    +0.037 A 
ATOM      8  C   UNL     1       0.002  -0.004   0.002  0.00  0.00    +0.016 A 
ATOM      9  C   UNL     1      -0.017   1.373   0.010  0.00  0.00    +0.046 A 
ATOM     10  C   UNL     1       1.177   2.086   0.002  0.00  0.00    +0.127 A 
ATOM     11  C   UNL     1       2.393   1.413  -0.013  0.00  0.00    +0.046 A 
ATOM     12  C   UNL     1       2.421   0.037  -0.021  0.00  0.00    +0.016 A 
BRANCH  10  13
ATOM     13  O   UNL     1       1.154   3.443   0.009  0.00  0.00    -0.434 OA
BRANCH  13  14
ATOM     14  C   UNL     1       2.416   4.113   0.001  0.00  0.00    +0.541 C 
ATOM     15  F   UNL     1       3.148   3.743   1.134  0.00  0.00    -0.166 F 
ATOM     16  F   UNL     1       3.126   3.755  -1.150  0.00  0.00    -0.166 F 
ENDBRANCH  13  14
ENDBRANCH  10  13
ENDBRANCH   4   7
BRANCH   1  17
ATOM     17  C   UNL     1       3.766  -4.892  -0.059  0.00  0.00    +0.173 C 
BRANCH  17  18
ATOM     18  S   UNL     1       3.466  -6.677  -0.065  0.00  0.00    -0.078 S 
BRANCH  18  29
ATOM     19  C   UNL     1       4.230  -9.540  -0.075  0.00  0.00    +0.154 C 
ATOM     20  N   UNL     1       5.363  -8.611  -0.088  0.00  0.00    -0.290 N 
ATOM     21  C   UNL     1       6.617  -9.099  -0.107  0.00  0.00    +0.263 A 
ATOM     22  O   UNL     1       6.811 -10.302  -0.114  0.00  0.00    -0.267 OA
ATOM     23  C   UNL     1       7.719  -8.187  -0.113  0.00  0.00    +0.072 A 
ATOM     24  C   UNL     1       9.144  -8.467  -0.128  0.00  0.00    +0.023 A 
ATOM     25  C   UNL     1      10.013  -7.446  -0.131  0.00  0.00    +0.048 A 
ATOM     26  S   UNL     1       8.960  -6.007  -0.114  0.00  0.00    -0.077 S 
ATOM     27  C   UNL     1       7.383  -6.820  -0.104  0.00  0.00    +0.116 A 
ATOM     28  N   UNL     1       6.122  -6.405  -0.090  0.00  0.00    -0.216 NA
ATOM     29  C   UNL     1       5.126  -7.267  -0.084  0.00  0.00    +0.173 A 
ENDBRANCH  18  29
ENDBRANCH  17  18
ENDBRANCH   1  17
TORSDOF 6
