REMARK  Name = ZINC22057468
REMARK  9 active torsions:
REMARK  status: ('A' for Active; 'I' for Inactive)
REMARK    1  A    between atoms: C_1  and  C_2
REMARK    2  A    between atoms: C_2  and  C_3
REMARK    3  A    between atoms: C_2  and  C_4
REMARK    4  A    between atoms: C_4  and  C_6
REMARK    5  A    between atoms: C_4  and  N_13
REMARK    6  A    between atoms: C_14  and  C_16
REMARK    7  A    between atoms: C_16  and  N_17
REMARK    8  A    between atoms: N_20  and  C_23
REMARK    9  A    between atoms: C_26  and  O_29
REMARK                            x       y       z     vdW  Elec       q    Type
REMARK                         _______ _______ _______ _____ _____    ______ ____
ROOT
ATOM      1  C   UNL     1       2.462   0.920  -0.017  0.00  0.00    +0.019 C 
ENDROOT
BRANCH   1   2
ATOM      2  N   UNL     1       3.565   1.890  -0.022  0.00  0.00    +0.387 N 
ATOM      3  C   UNL     1       3.584   2.660  -1.273  0.00  0.00    -0.059 C 
ATOM      4  C   UNL     1       4.695   3.710  -1.207  0.00  0.00    +0.086 C 
ATOM      5  N   UNL     1       5.984   3.042  -0.984  0.00  0.00    -0.333 N 
ATOM      6  C   UNL     1       5.966   2.271   0.267  0.00  0.00    +0.086 C 
ATOM      7  C   UNL     1       4.855   1.221   0.201  0.00  0.00    -0.059 C 
ATOM      8  H   UNL     1       3.400   2.593   0.808  0.00  0.00    -0.081 HD
BRANCH   5   9
ATOM      9  C   UNL     1       7.036   3.965  -0.989  0.00  0.00    +0.030 A 
ATOM     10  C   UNL     1       7.885   4.058   0.106  0.00  0.00    +0.026 A 
ATOM     11  C   UNL     1       8.925   4.965   0.097  0.00  0.00    +0.047 A 
ATOM     12  C   UNL     1       9.115   5.793  -0.999  0.00  0.00    +0.117 A 
ATOM     13  C   UNL     1       8.264   5.706  -2.091  0.00  0.00    +0.047 A 
ATOM     14  C   UNL     1       7.227   4.794  -2.087  0.00  0.00    +0.026 A 
BRANCH  12  15
ATOM     15  O   UNL     1      10.137   6.691  -1.004  0.00  0.00    -0.507 OA
ATOM     16  H   UNL     1      10.288   7.348  -1.873  0.00  0.00    +0.292 HD
ENDBRANCH  12  15
ENDBRANCH   5   9
ENDBRANCH   1   2
BRANCH   1  18
ATOM     17  N   UNL     1      -0.011   0.966   0.007  0.00  0.00    -0.310 N 
ATOM     18  C   UNL     1       1.147   1.655   0.000  0.00  0.00    +0.197 C 
ATOM     19  O   UNL     1       1.130   2.868   0.007  0.00  0.00    -0.278 OA
ATOM     20  H   UNL     1       0.004  -0.134   0.006  0.00  0.00    +0.149 HD
BRANCH  17  21
ATOM     21  C   UNL     1      -1.290   1.681   0.017  0.00  0.00    +0.106 C 
BRANCH  21  22
ATOM     22  C   UNL     1      -2.354   0.799   0.618  0.00  0.00    -0.027 A 
ATOM     23  C   UNL     1      -2.387  -0.549   0.313  0.00  0.00    +0.008 A 
ATOM     24  C   UNL     1      -3.359  -1.360   0.868  0.00  0.00    +0.038 A 
ATOM     25  C   UNL     1      -4.307  -0.819   1.720  0.00  0.00    +0.123 A 
ATOM     26  C   UNL     1      -4.276   0.532   2.020  0.00  0.00    +0.038 A 
ATOM     27  C   UNL     1      -3.300   1.340   1.469  0.00  0.00    +0.008 A 
ATOM     28  F   UNL     1      -5.262  -1.609   2.258  0.00  0.00    -0.205 F 
ENDBRANCH  21  22
BRANCH  21  30
ATOM     29  C   UNL     1      -0.600   2.943  -2.026  0.00  0.00    +0.009 C 
ATOM     30  C   UNL     1      -1.680   2.047  -1.416  0.00  0.00    +0.008 C 
ATOM     31  C   UNL     1      -1.816   0.772  -2.250  0.00  0.00    +0.009 C 
ENDBRANCH  21  30
ENDBRANCH  17  21
ENDBRANCH   1  18
TORSDOF 7
