REMARK  Name = ZINC29897922
REMARK  6 active torsions:
REMARK  status: ('A' for Active; 'I' for Inactive)
REMARK    1  A    between atoms: N_12  and  C_15
REMARK    2  A    between atoms: C_15  and  C_16
REMARK    3  A    between atoms: N_18  and  C_19
REMARK    4  A    between atoms: C_19  and  C_20
REMARK    5  A    between atoms: C_20  and  C_22
REMARK    6  A    between atoms: C_20  and  N_27
REMARK                            x       y       z     vdW  Elec       q    Type
REMARK                         _______ _______ _______ _____ _____    ______ ____
ROOT
ATOM      1  C   UNL     1      -2.283   1.852   1.128  0.00  0.00    +0.233 C 
ATOM      2  O   UNL     1      -1.599   1.298   1.962  0.00  0.00    -0.274 OA
ATOM      3  N   UNL     1      -3.211   2.753   1.508  0.00  0.00    -0.315 N 
ATOM      4  H   UNL     1      -3.831   3.256   0.752  0.00  0.00    +0.149 HD
ENDROOT
BRANCH   1   5
ATOM      5  C   UNL     1      -2.096   1.534  -0.333  0.00  0.00    +0.222 C 
BRANCH   5  17
ATOM      6  C   UNL     1       3.703  -3.922  -1.183  0.00  0.00    +0.001 A 
ATOM      7  C   UNL     1       2.846  -5.009  -1.092  0.00  0.00    +0.004 A 
ATOM      8  C   UNL     1       1.492  -4.823  -0.913  0.00  0.00    +0.047 A 
ATOM      9  C   UNL     1       0.972  -3.537  -0.821  0.00  0.00    +0.138 A 
ATOM     10  C   UNL     1       1.841  -2.438  -0.913  0.00  0.00    +0.046 A 
ATOM     11  C   UNL     1       3.207  -2.639  -1.095  0.00  0.00    +0.014 A 
ATOM     12  C   UNL     1       0.990  -1.245  -0.780  0.00  0.00    +0.124 A 
ATOM     13  C   UNL     1      -0.307  -1.723  -0.621  0.00  0.00    +0.219 A 
ATOM     14  O   UNL     1      -0.283  -3.071  -0.649  0.00  0.00    -0.448 OA
ATOM     15  C   UNL     1      -1.349  -0.781  -0.467  0.00  0.00    +0.297 A 
ATOM     16  O   UNL     1      -2.504  -1.146  -0.325  0.00  0.00    -0.264 OA
ATOM     17  N   UNL     1      -1.037   0.533  -0.483  0.00  0.00    -0.287 N 
ATOM     18  C   UNL     1       0.249   0.933  -0.643  0.00  0.00    +0.203 A 
ATOM     19  N   UNL     1       1.222   0.077  -0.785  0.00  0.00    -0.233 NA
ENDBRANCH   5  17
ENDBRANCH   1   5
BRANCH   3  20
ATOM     20  C   UNL     1      -3.392   3.063   2.928  0.00  0.00    +0.096 C 
BRANCH  20  21
ATOM     21  C   UNL     1      -4.582   4.010   3.096  0.00  0.00    +0.016 C 
BRANCH  21  22
ATOM     22  N   UNL     1      -4.392   5.191   2.243  0.00  0.00    +0.387 N 
ATOM     23  C   UNL     1      -3.149   5.893   2.586  0.00  0.00    -0.078 C 
ATOM     24  C   UNL     1      -2.909   7.028   1.587  0.00  0.00    -0.019 C 
ATOM     25  C   UNL     1      -4.094   7.997   1.630  0.00  0.00    -0.004 C 
ATOM     26  C   UNL     1      -5.382   7.231   1.317  0.00  0.00    -0.019 C 
ATOM     27  C   UNL     1      -5.550   6.090   2.323  0.00  0.00    -0.078 C 
ATOM     28  H   UNL     1      -4.306   4.847   1.201  0.00  0.00    -0.081 HD
ENDBRANCH  21  22
BRANCH  21  29
ATOM     29  C   UNL     1      -5.850   3.300   2.695  0.00  0.00    +0.093 A 
ATOM     30  C   UNL     1      -6.740   2.745   3.537  0.00  0.00    +0.043 A 
ATOM     31  C   UNL     1      -7.769   2.193   2.740  0.00  0.00    +0.041 A 
ATOM     32  C   UNL     1      -7.445   2.443   1.458  0.00  0.00    +0.195 A 
ATOM     33  O   UNL     1      -6.285   3.119   1.438  0.00  0.00    -0.469 OA
ENDBRANCH  21  29
ENDBRANCH  20  21
ENDBRANCH   3  20
TORSDOF 6
