REMARK  Name = ZINC62521663
REMARK  7 active torsions:
REMARK  status: ('A' for Active; 'I' for Inactive)
REMARK    1  A    between atoms: C_1  and  C_2
REMARK    2  A    between atoms: C_2  and  C_3
REMARK    3  A    between atoms: C_2  and  N_12
REMARK    4  A    between atoms: N_5  and  C_6
REMARK    5  A    between atoms: C_6  and  C_7
REMARK    6  A    between atoms: N_15  and  C_16
REMARK    7  A    between atoms: N_19  and  C_22
REMARK                            x       y       z     vdW  Elec       q    Type
REMARK                         _______ _______ _______ _____ _____    ______ ____
ROOT
ATOM      1  N   UNL     1      -1.372  -0.511   0.012  0.00  0.00    -0.288 N 
ATOM      2  C   UNL     1      -2.051  -0.643  -1.145  0.00  0.00    +0.300 C 
ATOM      3  O   UNL     1      -1.522  -0.341  -2.197  0.00  0.00    -0.253 OA
ATOM      4  N   UNL     1      -3.315  -1.109  -1.135  0.00  0.00    -0.297 N 
ATOM      5  H   UNL     1      -1.794  -0.752   0.852  0.00  0.00    +0.151 HD
ATOM      6  H   UNL     1      -3.737  -1.350  -0.295  0.00  0.00    +0.151 HD
ENDROOT
BRANCH   4   7
ATOM      7  C   UNL     1      -4.053  -1.252  -2.393  0.00  0.00    +0.071 C 
ATOM      8  C   UNL     1      -4.714   0.081  -2.753  0.00  0.00    +0.004 C 
ATOM      9  C   UNL     1      -5.547  -0.096  -4.025  0.00  0.00    -0.077 C 
ATOM     10  N   UNL     1      -6.582  -1.111  -3.798  0.00  0.00    +0.382 N 
ATOM     11  C   UNL     1      -5.955  -2.409  -3.522  0.00  0.00    -0.077 C 
ATOM     12  C   UNL     1      -5.138  -2.321  -2.232  0.00  0.00    +0.004 C 
ATOM     13  H   UNL     1      -7.151  -0.840  -3.010  0.00  0.00    -0.081 HD
BRANCH  10  14
ATOM     14  C   UNL     1      -7.428  -1.222  -4.994  0.00  0.00    -0.069 C 
ATOM     15  C   UNL     1      -8.874  -0.736  -4.884  0.00  0.00    -0.017 C 
ATOM     16  C   UNL     1      -8.574  -2.234  -4.958  0.00  0.00    -0.017 C 
ENDBRANCH  10  14
ENDBRANCH   4   7
BRANCH   1  18
ATOM     17  C   UNL     1      -0.019   1.526   0.010  0.00  0.00    +0.038 C 
ATOM     18  C   UNL     1       0.002  -0.004   0.002  0.00  0.00    +0.157 C 
BRANCH  18  19
ATOM     19  C   UNL     1       0.731  -0.503   1.223  0.00  0.00    +0.233 C 
ATOM     20  O   UNL     1       0.159  -1.213   2.023  0.00  0.00    -0.274 OA
ATOM     21  N   UNL     1       2.019  -0.161   1.426  0.00  0.00    -0.307 N 
ATOM     22  H   UNL     1       2.476   0.406   0.786  0.00  0.00    +0.149 HD
BRANCH  21  23
ATOM     23  C   UNL     1       2.727  -0.647   2.613  0.00  0.00    +0.178 C 
BRANCH  23  24
ATOM     24  C   UNL     1       4.141  -0.125   2.602  0.00  0.00    +0.122 A 
ATOM     25  C   UNL     1       4.558   1.028   3.154  0.00  0.00    +0.046 A 
ATOM     26  C   UNL     1       5.948   1.121   2.910  0.00  0.00    +0.041 A 
ATOM     27  C   UNL     1       6.297   0.018   2.223  0.00  0.00    +0.195 A 
ATOM     28  O   UNL     1       5.199  -0.736   2.044  0.00  0.00    -0.466 OA
ENDBRANCH  23  24
ENDBRANCH  21  23
ENDBRANCH  18  19
ENDBRANCH   1  18
TORSDOF 6
