REMARK  Name = ZINC45410247
REMARK  7 active torsions:
REMARK  status: ('A' for Active; 'I' for Inactive)
REMARK    1  A    between atoms: C_1  and  C_2
REMARK    2  A    between atoms: C_2  and  C_4
REMARK    3  A    between atoms: C_2  and  O_20
REMARK    4  A    between atoms: N_6  and  N_7
REMARK    5  A    between atoms: N_10  and  C_11
REMARK    6  A    between atoms: N_14  and  C_17
REMARK    7  A    between atoms: O_20  and  C_21
REMARK                            x       y       z     vdW  Elec       q    Type
REMARK                         _______ _______ _______ _____ _____    ______ ____
ROOT
ATOM      1  N   UNL     1       1.187  -0.308   3.568  0.00  0.00    -0.218 N 
ATOM      2  C   UNL     1       0.715  -0.058   4.806  0.00  0.00    +0.316 C 
ATOM      3  O   UNL     1       1.409  -0.286   5.779  0.00  0.00    -0.251 OA
ATOM      4  N   UNL     1      -0.525   0.444   4.965  0.00  0.00    -0.296 N 
ATOM      5  H   UNL     1       2.080  -0.670   3.454  0.00  0.00    +0.174 HD
ATOM      6  H   UNL     1      -1.078   0.626   4.189  0.00  0.00    +0.151 HD
ENDROOT
BRANCH   4   7
ATOM      7  C   UNL     1      -1.038   0.716   6.310  0.00  0.00    +0.071 C 
ATOM      8  C   UNL     1      -1.650  -0.562   6.893  0.00  0.00    +0.004 C 
ATOM      9  C   UNL     1      -2.254  -0.252   8.264  0.00  0.00    -0.077 C 
ATOM     10  N   UNL     1      -3.297   0.771   8.123  0.00  0.00    +0.382 N 
ATOM     11  C   UNL     1      -2.704   2.022   7.633  0.00  0.00    -0.077 C 
ATOM     12  C   UNL     1      -2.117   1.800   6.238  0.00  0.00    +0.004 C 
ATOM     13  H   UNL     1      -3.995   0.452   7.468  0.00  0.00    -0.081 HD
BRANCH  10  14
ATOM     14  C   UNL     1      -3.927   1.009   9.429  0.00  0.00    -0.069 C 
ATOM     15  C   UNL     1      -5.379   0.560   9.604  0.00  0.00    -0.017 C 
ATOM     16  C   UNL     1      -5.047   2.049   9.494  0.00  0.00    -0.017 C 
ENDBRANCH  10  14
ENDBRANCH   4   7
BRANCH   1  19
ATOM     17  C   UNL     1       0.861  -0.295   1.210  0.00  0.00    +0.270 C 
ATOM     18  O   UNL     1       1.977  -0.747   1.067  0.00  0.00    -0.270 OA
ATOM     19  N   UNL     1       0.389  -0.045   2.448  0.00  0.00    -0.230 N 
ATOM     20  H   UNL     1      -0.504   0.316   2.563  0.00  0.00    +0.173 HD
BRANCH  17  22
ATOM     21  C   UNL     1      -0.253   1.492  -0.099  0.00  0.00    +0.062 C 
ATOM     22  C   UNL     1       0.001  -0.013   0.005  0.00  0.00    +0.257 C 
BRANCH  22  23
ATOM     23  O   UNL     1       0.671  -0.465  -1.174  0.00  0.00    -0.477 OA
BRANCH  23  24
ATOM     24  C   UNL     1      -0.107  -0.775  -2.245  0.00  0.00    +0.157 A 
ATOM     25  C   UNL     1      -1.473  -0.541  -2.202  0.00  0.00    +0.048 A 
ATOM     26  C   UNL     1      -2.262  -0.857  -3.292  0.00  0.00    +0.004 A 
ATOM     27  C   UNL     1      -1.691  -1.406  -4.425  0.00  0.00    +0.003 A 
ATOM     28  C   UNL     1      -0.329  -1.642  -4.472  0.00  0.00    +0.042 A 
ATOM     29  C   UNL     1       0.466  -1.321  -3.386  0.00  0.00    +0.165 A 
ATOM     30  F   UNL     1       1.798  -1.546  -3.433  0.00  0.00    -0.202 F 
ENDBRANCH  23  24
ENDBRANCH  22  23
ENDBRANCH  17  22
ENDBRANCH   1  19
TORSDOF 6
