REMARK  Name = ZINC07263608
REMARK  10 active torsions:
REMARK  status: ('A' for Active; 'I' for Inactive)
REMARK    1  A    between atoms: C_1  and  C_2
REMARK    2  A    between atoms: C_2  and  N_58
REMARK    3  A    between atoms: C_3  and  C_4
REMARK    4  A    between atoms: C_3  and  N_58
REMARK    5  A    between atoms: C_5  and  C_6
REMARK    6  A    between atoms: C_5  and  N_58
REMARK    7  A    between atoms: C_6  and  N_7
REMARK    8  A    between atoms: C_8  and  C_25
REMARK    9  A    between atoms: C_15  and  C_24
REMARK   10  A    between atoms: C_16  and  C_23
REMARK                            x       y       z     vdW  Elec       q    Type
REMARK                         _______ _______ _______ _____ _____    ______ ____
ROOT
ATOM      1  N   UNL     1       7.047   1.198  -0.055  0.00  0.00    -0.285 N 
ATOM      2  C   UNL     1       6.354  -0.096  -0.035  0.00  0.00    +0.147 C 
ATOM      3  C   UNL     1       4.881   0.221  -0.025  0.00  0.00    +0.072 A 
ATOM      4  C   UNL     1       3.684  -0.624  -0.005  0.00  0.00    +0.199 A 
ATOM      5  O   UNL     1       3.759  -1.840   0.007  0.00  0.00    -0.287 OA
ATOM      6  C   UNL     1       2.382   0.072  -0.001  0.00  0.00    +0.065 A 
ATOM      7  C   UNL     1       1.180  -0.633   0.017  0.00  0.00    +0.019 A 
ATOM      8  C   UNL     1      -0.005   0.050   0.020  0.00  0.00    -0.047 A 
ATOM      9  C   UNL     1      -0.014   1.438   0.005  0.00  0.00    -0.044 A 
ATOM     10  C   UNL     1       1.165   2.151  -0.014  0.00  0.00    +0.050 A 
ATOM     11  C   UNL     1       2.383   1.478  -0.017  0.00  0.00    +0.140 A 
ATOM     12  O   UNL     1       3.543   2.159  -0.035  0.00  0.00    -0.450 OA
ATOM     13  C   UNL     1       4.755   1.570  -0.039  0.00  0.00    +0.199 A 
ATOM     14  C   UNL     1       6.114   2.166  -0.058  0.00  0.00    +0.283 C 
ATOM     15  O   UNL     1       6.351   3.358  -0.074  0.00  0.00    -0.267 OA
ATOM     16  C   UNL     1      -1.329   2.174   0.002  0.00  0.00    +0.044 C 
ATOM     17  C   UNL     1      -1.307  -0.708   0.040  0.00  0.00    +0.044 C 
ENDROOT
BRANCH   2  18
ATOM     18  C   UNL     1       6.707  -0.894  -1.264  0.00  0.00    +0.013 A 
ATOM     19  C   UNL     1       7.214  -0.255  -2.380  0.00  0.00    +0.008 A 
ATOM     20  C   UNL     1       7.538  -0.987  -3.507  0.00  0.00    +0.001 A 
ATOM     21  C   UNL     1       7.356  -2.357  -3.520  0.00  0.00    +0.003 A 
ATOM     22  C   UNL     1       6.849  -2.997  -2.405  0.00  0.00    +0.039 A 
ATOM     23  C   UNL     1       6.529  -2.267  -1.273  0.00  0.00    +0.129 A 
ATOM     24  F   UNL     1       6.039  -2.892  -0.181  0.00  0.00    -0.205 F 
ENDBRANCH   2  18
BRANCH   1  25
ATOM     25  C   UNL     1       8.498   1.399  -0.071  0.00  0.00    +0.090 C 
BRANCH  25  26
ATOM     26  C   UNL     1       9.016   1.485   1.366  0.00  0.00    -0.060 C 
BRANCH  26  27
ATOM     27  N   UNL     1      10.493   1.544   1.333  0.00  0.00    +0.380 N 
ATOM     28  H   UNL     1      10.838   0.875   0.635  0.00  0.00    -0.082 HD
BRANCH  27  30
ATOM     29  C   UNL     1      12.447   2.879   0.713  0.00  0.00    -0.017 C 
ATOM     30  C   UNL     1      10.936   2.902   0.957  0.00  0.00    -0.082 C 
ENDBRANCH  27  30
BRANCH  27  31
ATOM     31  C   UNL     1      11.042   1.182   2.657  0.00  0.00    -0.082 C 
ATOM     32  C   UNL     1      10.972  -0.338   2.818  0.00  0.00    -0.017 C 
ENDBRANCH  27  31
ENDBRANCH  26  27
ENDBRANCH  25  26
ENDBRANCH   1  25
TORSDOF 6
