REMARK  Name = ZINC02060653
REMARK  6 active torsions:
REMARK  status: ('A' for Active; 'I' for Inactive)
REMARK    1  A    between atoms: C_1  and  C_2
REMARK    2  A    between atoms: C_2  and  C_33
REMARK    3  A    between atoms: C_4  and  N_9
REMARK    4  A    between atoms: N_16  and  C_17
REMARK    5  A    between atoms: C_17  and  C_18
REMARK    6  A    between atoms: C_18  and  O_19
REMARK                            x       y       z     vdW  Elec       q    Type
REMARK                         _______ _______ _______ _____ _____    ______ ____
ROOT
ATOM      1  N   UNL     1      -4.339   3.121  -3.401  0.00  0.00    -0.277 N 
ATOM      2  C   UNL     1      -3.768   2.569  -2.308  0.00  0.00    +0.260 A 
ATOM      3  O   UNL     1      -3.947   3.050  -1.201  0.00  0.00    -0.267 OA
ATOM      4  C   UNL     1      -2.966   1.432  -2.473  0.00  0.00    +0.050 A 
ATOM      5  C   UNL     1      -2.798   0.911  -3.745  0.00  0.00    +0.084 A 
ATOM      6  N   UNL     1      -3.371   1.514  -4.794  0.00  0.00    -0.215 NA
ATOM      7  C   UNL     1      -4.120   2.585  -4.632  0.00  0.00    +0.199 A 
ATOM      8  N   UNL     1      -4.693   3.172  -5.729  0.00  0.00    -0.313 N 
ATOM      9  C   UNL     1      -2.006  -0.327  -3.919  0.00  0.00    +0.004 A 
ATOM     10  C   UNL     1      -1.562  -0.724  -5.177  0.00  0.00    +0.010 A 
ATOM     11  C   UNL     1      -0.814  -1.876  -5.308  0.00  0.00    +0.001 A 
ATOM     12  C   UNL     1      -0.515  -2.639  -4.193  0.00  0.00    +0.000 A 
ATOM     13  C   UNL     1      -0.974  -2.262  -2.943  0.00  0.00    +0.004 A 
ATOM     14  C   UNL     1      -1.730  -1.116  -2.801  0.00  0.00    -0.037 A 
ATOM     15  C   UNL     1      -2.279  -0.733  -1.454  0.00  0.00    +0.047 C 
ATOM     16  C   UNL     1      -2.296   0.786  -1.290  0.00  0.00    +0.007 C 
ATOM     17  C   UNL     1      -0.858   1.300  -1.178  0.00  0.00    +0.012 C 
ATOM     18  C   UNL     1      -0.177   0.647   0.026  0.00  0.00    +0.001 C 
ATOM     19  C   UNL     1      -0.943   1.004   1.302  0.00  0.00    +0.000 C 
ATOM     20  C   UNL     1      -2.382   0.497   1.190  0.00  0.00    +0.001 C 
ATOM     21  C   UNL     1      -3.062   1.150  -0.015  0.00  0.00    +0.012 C 
ATOM     22  H   UNL     1      -5.183   4.004  -5.633  0.00  0.00    +0.149 HD
ENDROOT
BRANCH   1  26
ATOM     23  C   UNL     1      -4.521   7.793  -1.792  0.00  0.00    +0.041 C 
ATOM     24  C   UNL     1      -5.309   6.656  -2.444  0.00  0.00    +0.066 C 
ATOM     25  C   UNL     1      -4.386   5.454  -2.661  0.00  0.00    +0.059 C 
ATOM     26  C   UNL     1      -5.197   4.300  -3.259  0.00  0.00    +0.098 C 
ATOM     27  C   UNL     1      -6.367   3.973  -2.327  0.00  0.00    +0.053 C 
ATOM     28  C   UNL     1      -7.213   5.233  -2.122  0.00  0.00    +0.162 C 
ATOM     29  O   UNL     1      -6.392   6.277  -1.592  0.00  0.00    -0.374 OA
ATOM     30  C   UNL     1      -5.861   7.126  -3.792  0.00  0.00    +0.041 C 
ENDBRANCH   1  26
BRANCH   8  31
ATOM     31  C   UNL     1      -4.567   2.544  -7.046  0.00  0.00    +0.132 C 
BRANCH  31  32
ATOM     32  C   UNL     1      -5.292   3.397  -8.089  0.00  0.00    +0.174 C 
BRANCH  32  33
ATOM     33  O   UNL     1      -4.637   4.661  -8.209  0.00  0.00    -0.393 OA
ATOM     34  H   UNL     1      -5.043   5.255  -8.855  0.00  0.00    +0.209 HD
ENDBRANCH  32  33
ENDBRANCH  31  32
ENDBRANCH   8  31
TORSDOF 4
