REMARK  Name = ZINC14308882
REMARK  5 active torsions:
REMARK  status: ('A' for Active; 'I' for Inactive)
REMARK    1  A    between atoms: C_1  and  C_2
REMARK    2  A    between atoms: C_2  and  N_3
REMARK    3  A    between atoms: N_6  and  C_9
REMARK    4  A    between atoms: C_9  and  N_10
REMARK    5  A    between atoms: C_14  and  C_16
REMARK                            x       y       z     vdW  Elec       q    Type
REMARK                         _______ _______ _______ _____ _____    ______ ____
ROOT
ATOM      1  N   UNL     1      -1.443  -0.355   0.032  0.00  0.00    -0.292 N 
ATOM      2  C   UNL     1      -2.085  -0.882   1.129  0.00  0.00    +0.218 A 
ATOM      3  N   UNL     1      -3.200  -1.427   0.737  0.00  0.00    -0.136 NA
ATOM      4  N   UNL     1      -3.300  -1.259  -0.651  0.00  0.00    -0.256 N 
ATOM      5  C   UNL     1      -2.202  -0.589  -1.057  0.00  0.00    +0.178 A 
ATOM      6  S   UNL     1      -1.837  -0.123  -2.663  0.00  0.00    -0.011 S 
ATOM      7  N   UNL     1      -1.622  -0.839   2.435  0.00  0.00    -0.295 N 
ATOM      8  C   UNL     1      -2.545  -0.620   3.560  0.00  0.00    +0.136 C 
ATOM      9  C   UNL     1      -2.293  -1.706   4.611  0.00  0.00    +0.179 C 
ATOM     10  O   UNL     1      -0.900  -1.739   4.931  0.00  0.00    -0.377 OA
ATOM     11  C   UNL     1      -0.055  -2.080   3.829  0.00  0.00    +0.179 C 
ATOM     12  C   UNL     1      -0.193  -1.018   2.738  0.00  0.00    +0.136 C 
ENDROOT
BRANCH   1  14
ATOM     13  C   UNL     1      -0.383   1.819   0.391  0.00  0.00    +0.027 C 
ATOM     14  C   UNL     1      -0.157   0.346   0.047  0.00  0.00    +0.124 C 
ENDBRANCH   1  14
BRANCH   4  15
ATOM     15  C   UNL     1      -4.398  -1.722  -1.504  0.00  0.00    +0.073 C 
BRANCH  15  16
ATOM     16  N   UNL     1      -5.565  -0.850  -1.316  0.00  0.00    +0.397 N 
ATOM     17  C   UNL     1      -6.077  -0.997   0.059  0.00  0.00    -0.075 C 
ATOM     18  C   UNL     1      -7.540  -1.476  -0.047  0.00  0.00    -0.020 C 
ATOM     19  C   UNL     1      -7.952  -1.029  -1.474  0.00  0.00    -0.012 C 
ATOM     20  C   UNL     1      -6.634  -1.238  -2.260  0.00  0.00    -0.035 C 
ATOM     21  H   UNL     1      -5.302   0.111  -1.477  0.00  0.00    -0.078 HD
BRANCH  20  22
ATOM     22  C   UNL     1      -6.604  -0.353  -3.480  0.00  0.00    -0.061 A 
ATOM     23  C   UNL     1      -6.353   0.999  -3.346  0.00  0.00    +0.002 A 
ATOM     24  C   UNL     1      -6.325   1.811  -4.464  0.00  0.00    +0.000 A 
ATOM     25  C   UNL     1      -6.547   1.270  -5.717  0.00  0.00    +0.000 A 
ATOM     26  C   UNL     1      -6.798  -0.082  -5.851  0.00  0.00    +0.000 A 
ATOM     27  C   UNL     1      -6.821  -0.895  -4.733  0.00  0.00    +0.002 A 
ENDBRANCH  20  22
ENDBRANCH  15  16
ENDBRANCH   4  15
TORSDOF 4
