REMARK  Name = ZINC09729971
REMARK  5 active torsions:
REMARK  status: ('A' for Active; 'I' for Inactive)
REMARK    1  A    between atoms: C_4  and  C_7
REMARK    2  A    between atoms: C_18  and  C_20
REMARK    3  A    between atoms: C_20  and  N_21
REMARK    4  A    between atoms: C_24  and  C_29
REMARK    5  A    between atoms: C_29  and  C_30
REMARK                            x       y       z     vdW  Elec       q    Type
REMARK                         _______ _______ _______ _____ _____    ______ ____
ROOT
ATOM      1  C   UNL     1       4.051   4.660   2.890  0.00  0.00    +0.214 C 
ENDROOT
BRANCH   1  12
ATOM      2  C   UNL     1       2.813   4.528   0.308  0.00  0.00    +0.149 C 
ATOM      3  C   UNL     1       1.575   3.989  -0.423  0.00  0.00    +0.256 C 
ATOM      4  O   UNL     1       2.001   3.100  -1.458  0.00  0.00    -0.488 OA
ATOM      5  C   UNL     1       2.896   2.130  -1.131  0.00  0.00    +0.142 A 
ATOM      6  C   UNL     1       3.024   1.013  -1.943  0.00  0.00    +0.047 A 
ATOM      7  C   UNL     1       3.933   0.024  -1.621  0.00  0.00    +0.004 A 
ATOM      8  C   UNL     1       4.719   0.140  -0.489  0.00  0.00    +0.002 A 
ATOM      9  C   UNL     1       4.597   1.250   0.327  0.00  0.00    +0.027 A 
ATOM     10  C   UNL     1       3.686   2.244   0.009  0.00  0.00    +0.079 A 
ATOM     11  N   UNL     1       3.556   3.372   0.838  0.00  0.00    -0.256 N 
ATOM     12  C   UNL     1       4.092   3.394   2.074  0.00  0.00    +0.238 C 
ATOM     13  O   UNL     1       4.607   2.395   2.530  0.00  0.00    -0.273 OA
BRANCH   2  17
ATOM     14  C   UNL     1       5.276   6.703  -2.422  0.00  0.00    +0.000 A 
ATOM     15  C   UNL     1       5.329   5.322  -2.394  0.00  0.00    +0.000 A 
ATOM     16  C   UNL     1       4.532   4.618  -1.510  0.00  0.00    +0.005 A 
ATOM     17  C   UNL     1       3.682   5.295  -0.656  0.00  0.00    -0.023 A 
ATOM     18  C   UNL     1       3.630   6.676  -0.684  0.00  0.00    +0.005 A 
ATOM     19  C   UNL     1       4.427   7.380  -1.567  0.00  0.00    +0.000 A 
ENDBRANCH   2  17
ENDBRANCH   1  12
BRANCH   1  20
ATOM     20  N   UNL     1       4.802   4.465   4.133  0.00  0.00    -0.216 N 
ATOM     21  C   UNL     1       6.119   4.720   4.269  0.00  0.00    +0.244 C 
ATOM     22  O   UNL     1       6.876   5.138   3.420  0.00  0.00    -0.273 OA
ATOM     23  C   UNL     1       6.455   4.376   5.707  0.00  0.00    +0.165 C 
ATOM     24  N   UNL     1       5.169   3.925   6.265  0.00  0.00    -0.287 N 
ATOM     25  C   UNL     1       4.265   4.018   5.273  0.00  0.00    +0.310 C 
ATOM     26  O   UNL     1       3.092   3.724   5.398  0.00  0.00    -0.252 OA
ATOM     27  H   UNL     1       5.005   3.624   7.173  0.00  0.00    +0.151 HD
BRANCH  23  28
ATOM     28  C   UNL     1       7.493   3.253   5.763  0.00  0.00    +0.069 C 
BRANCH  28  29
ATOM     29  C   UNL     1       7.900   3.016   7.194  0.00  0.00    -0.020 A 
ATOM     30  C   UNL     1       8.966   3.541   7.819  0.00  0.00    +0.087 A 
ATOM     31  N   UNL     1       9.010   3.102   9.114  0.00  0.00    -0.360 N 
ATOM     32  H   UNL     1       9.688   3.348   9.763  0.00  0.00    +0.165 HD
ATOM     33  C   UNL     1       7.953   2.254   9.358  0.00  0.00    +0.047 A 
ATOM     34  C   UNL     1       7.211   2.163   8.166  0.00  0.00    +0.003 A 
ATOM     35  C   UNL     1       6.068   1.362   8.116  0.00  0.00    +0.010 A 
ATOM     36  C   UNL     1       5.676   0.670   9.227  0.00  0.00    +0.001 A 
ATOM     37  C   UNL     1       6.405   0.756  10.405  0.00  0.00    +0.002 A 
ATOM     38  C   UNL     1       7.535   1.541  10.476  0.00  0.00    +0.026 A 
ENDBRANCH  28  29
ENDBRANCH  23  28
ENDBRANCH   1  20
TORSDOF 5
