REMARK  Name = ZINC02532059
REMARK  8 active torsions:
REMARK  status: ('A' for Active; 'I' for Inactive)
REMARK    1  A    between atoms: C_4  and  O_23
REMARK    2  A    between atoms: C_5  and  C_7
REMARK    3  A    between atoms: N_8  and  N_9
REMARK    4  A    between atoms: C_10  and  C_12
REMARK    5  A    between atoms: C_12  and  N_13
REMARK    6  A    between atoms: C_14  and  C_16
REMARK    7  A    between atoms: O_23  and  C_24
REMARK    8  A    between atoms: C_24  and  C_26
REMARK                            x       y       z     vdW  Elec       q    Type
REMARK                         _______ _______ _______ _____ _____    ______ ____
ROOT
ATOM      1  C   UNL     1       0.652   1.134   0.091  0.00  0.00    +0.001 A 
ATOM      2  C   UNL     1       1.714   2.022   0.123  0.00  0.00    +0.004 A 
ATOM      3  C   UNL     1       1.485   3.385   0.103  0.00  0.00    +0.047 A 
ATOM      4  C   UNL     1       0.189   3.872   0.050  0.00  0.00    +0.141 A 
ATOM      5  C   UNL     1      -0.888   2.976   0.017  0.00  0.00    +0.037 A 
ATOM      6  C   UNL     1      -0.644   1.601   0.033  0.00  0.00    +0.013 A 
ENDROOT
BRANCH   5   7
ATOM      7  C   UNL     1      -2.271   3.482  -0.039  0.00  0.00    +0.142 C 
ATOM      8  N   UNL     1      -2.494   4.761  -0.058  0.00  0.00    -0.188 NA
BRANCH   8   9
ATOM      9  N   UNL     1      -3.809   5.242  -0.112  0.00  0.00    -0.206 N 
ATOM     10  C   UNL     1      -4.040   6.570  -0.132  0.00  0.00    +0.249 C 
ATOM     11  O   UNL     1      -3.110   7.348  -0.103  0.00  0.00    -0.272 OA
ATOM     12  H   UNL     1      -4.552   4.620  -0.135  0.00  0.00    +0.177 HD
BRANCH  10  13
ATOM     13  C   UNL     1      -5.454   7.088  -0.190  0.00  0.00    +0.202 C 
BRANCH  13  14
ATOM     14  N   UNL     1      -5.438   8.553  -0.201  0.00  0.00    -0.303 N 
ATOM     15  C   UNL     1      -6.596   9.239  -0.251  0.00  0.00    +0.244 C 
ATOM     16  O   UNL     1      -7.655   8.643  -0.285  0.00  0.00    -0.270 OA
ATOM     17  H   UNL     1      -4.593   9.028  -0.174  0.00  0.00    +0.150 HD
BRANCH  15  18
ATOM     18  C   UNL     1      -6.580  10.716  -0.263  0.00  0.00    +0.037 A 
ATOM     19  C   UNL     1      -5.365  11.404  -0.217  0.00  0.00    +0.016 A 
ATOM     20  C   UNL     1      -5.355  12.782  -0.235  0.00  0.00    +0.039 A 
ATOM     21  C   UNL     1      -6.549  13.486  -0.285  0.00  0.00    +0.123 A 
ATOM     22  C   UNL     1      -7.758  12.808  -0.325  0.00  0.00    +0.039 A 
ATOM     23  C   UNL     1      -7.779  11.430  -0.314  0.00  0.00    +0.016 A 
ATOM     24  F   UNL     1      -6.534  14.837  -0.296  0.00  0.00    -0.205 F 
ENDBRANCH  15  18
ENDBRANCH  13  14
ENDBRANCH  10  13
ENDBRANCH   8   9
ENDBRANCH   5   7
BRANCH   4  25
ATOM     25  O   UNL     1      -0.036   5.211   0.031  0.00  0.00    -0.421 OA
BRANCH  25  26
ATOM     26  C   UNL     1      -0.237   5.815   1.220  0.00  0.00    +0.353 C 
ATOM     27  O   UNL     1      -0.311   5.150   2.236  0.00  0.00    -0.244 OA
BRANCH  26  28
ATOM     28  C   UNL     1      -0.367   7.274   1.289  0.00  0.00    +0.116 A 
ATOM     29  C   UNL     1      -0.576   8.057   2.383  0.00  0.00    +0.070 A 
ATOM     30  C   UNL     1      -0.669   9.454   2.238  0.00  0.00    +0.008 A 
ATOM     31  C   UNL     1      -0.879  10.429   3.247  0.00  0.00    +0.010 A 
ATOM     32  C   UNL     1      -0.949  11.748   2.933  0.00  0.00    +0.001 A 
ATOM     33  C   UNL     1      -0.820  12.194   1.623  0.00  0.00    +0.001 A 
ATOM     34  C   UNL     1      -0.616  11.279   0.611  0.00  0.00    +0.016 A 
ATOM     35  C   UNL     1      -0.541   9.936   0.914  0.00  0.00    +0.022 A 
ATOM     36  S   UNL     1      -0.297   8.460  -0.042  0.00  0.00    -0.080 S 
ATOM     37 CL   UNL     1      -0.723   7.334   3.955  0.00  0.00    -0.082 Cl
ENDBRANCH  26  28
ENDBRANCH  25  26
ENDBRANCH   4  25
TORSDOF 8
