REMARK  Name = ZINC32975644
REMARK  7 active torsions:
REMARK  status: ('A' for Active; 'I' for Inactive)
REMARK    1  A    between atoms: C_1  and  C_2
REMARK    2  A    between atoms: C_5  and  C_19
REMARK    3  A    between atoms: C_7  and  S_8
REMARK    4  A    between atoms: S_8  and  N_11
REMARK    5  A    between atoms: N_11  and  C_12
REMARK    6  A    between atoms: N_11  and  C_13
REMARK    7  A    between atoms: C_19  and  N_20
REMARK                            x       y       z     vdW  Elec       q    Type
REMARK                         _______ _______ _______ _____ _____    ______ ____
ROOT
ATOM      1  C   UNL     1       0.276   1.321  -0.302  0.00  0.00    +0.046 C 
ATOM      2  C   UNL     1       0.506  -0.167  -0.242  0.00  0.00    -0.024 A 
ATOM      3  C   UNL     1       0.686  -0.886  -1.410  0.00  0.00    +0.005 A 
ATOM      4  C   UNL     1       0.897  -2.250  -1.355  0.00  0.00    +0.005 A 
ATOM      5  C   UNL     1       0.928  -2.897  -0.133  0.00  0.00    -0.028 A 
ATOM      6  C   UNL     1       0.748  -2.178   1.034  0.00  0.00    +0.034 A 
ATOM      7  C   UNL     1       0.542  -0.812   0.979  0.00  0.00    +0.109 A 
ENDROOT
BRANCH   7   8
ATOM      8  S   UNL     1       0.319   0.105   2.467  0.00  0.00    +0.061 S 
ATOM      9  O   UNL     1      -0.820   0.931   2.268  0.00  0.00    -0.153 OA
ATOM     10  O   UNL     1       0.406  -0.828   3.536  0.00  0.00    -0.153 OA
BRANCH   8  11
ATOM     11  N   UNL     1       1.620   1.119   2.616  0.00  0.00    -0.177 NA
ATOM     12  C   UNL     1       1.510   2.518   2.196  0.00  0.00    +0.132 C 
BRANCH  11  13
ATOM     13  C   UNL     1       2.880   0.617   3.169  0.00  0.00    +0.080 C 
ATOM     14  C   UNL     1       3.237   1.411   4.428  0.00  0.00    +0.020 C 
ATOM     15  C   UNL     1       4.553   0.887   5.005  0.00  0.00    +0.002 C 
ATOM     16  C   UNL     1       5.666   1.049   3.967  0.00  0.00    +0.000 C 
ATOM     17  C   UNL     1       5.309   0.256   2.709  0.00  0.00    +0.002 C 
ATOM     18  C   UNL     1       3.993   0.780   2.131  0.00  0.00    +0.020 C 
ENDBRANCH  11  13
ENDBRANCH   8  11
ENDBRANCH   7   8
BRANCH   5  19
ATOM     19  C   UNL     1       1.157  -4.385  -0.074  0.00  0.00    +0.151 C 
BRANCH  19  20
ATOM     20  N   UNL     1       2.593  -4.655   0.023  0.00  0.00    -0.237 N 
ATOM     21  C   UNL     1       3.382  -4.818  -1.053  0.00  0.00    +0.226 C 
ATOM     22  O   UNL     1       3.066  -4.624  -2.207  0.00  0.00    -0.275 OA
ATOM     23  C   UNL     1       4.750  -5.292  -0.562  0.00  0.00    +0.087 C 
ATOM     24  C   UNL     1       4.832  -6.790  -0.783  0.00  0.00    +0.013 C 
ATOM     25  C   UNL     1       5.799  -7.469   0.176  0.00  0.00    +0.001 C 
ATOM     26  C   UNL     1       5.330  -7.199   1.611  0.00  0.00    +0.001 C 
ATOM     27  C   UNL     1       5.466  -5.706   1.882  0.00  0.00    +0.013 C 
ATOM     28  C   UNL     1       4.722  -4.842   0.892  0.00  0.00    +0.087 C 
ATOM     29  C   UNL     1       3.243  -4.756   1.199  0.00  0.00    +0.226 C 
ATOM     30  O   UNL     1       2.736  -4.776   2.300  0.00  0.00    -0.275 OA
ENDBRANCH  19  20
ENDBRANCH   5  19
TORSDOF 5
