REMARK  Name = ZINC09489611
REMARK  5 active torsions:
REMARK  status: ('A' for Active; 'I' for Inactive)
REMARK    1  A    between atoms: C_5  and  N_7
REMARK    2  A    between atoms: C_12  and  C_14
REMARK    3  A    between atoms: C_12  and  C_20
REMARK    4  A    between atoms: C_12  and  N_54
REMARK    5  A    between atoms: C_29  and  O_30
REMARK                            x       y       z     vdW  Elec       q    Type
REMARK                         _______ _______ _______ _____ _____    ______ ____
ROOT
ATOM      1  C   UNL     1      -2.515   0.953   0.019  0.00  0.00    +0.016 C 
ENDROOT
BRANCH   1   2
ATOM      2  C   UNL     1      -1.173   1.635   0.104  0.00  0.00    -0.010 A 
ATOM      3  C   UNL     1      -0.011   0.872   0.029  0.00  0.00    +0.026 A 
ATOM      4  C   UNL     1       1.217   1.459   0.098  0.00  0.00    +0.051 A 
ATOM      5  C   UNL     1       1.315   2.852   0.251  0.00  0.00    +0.022 A 
ATOM      6  C   UNL     1       2.566   3.494   0.325  0.00  0.00    +0.013 A 
ATOM      7  C   UNL     1       2.585   4.852   0.473  0.00  0.00    +0.020 A 
ATOM      8  C   UNL     1       1.387   5.560   0.547  0.00  0.00    +0.111 A 
ATOM      9  N   UNL     1       0.225   4.958   0.478  0.00  0.00    -0.251 NA
ATOM     10  C   UNL     1       0.137   3.633   0.333  0.00  0.00    +0.114 A 
ATOM     11  C   UNL     1      -1.117   2.990   0.259  0.00  0.00    +0.145 A 
ATOM     12 CL   UNL     1       2.654   0.489  -0.005  0.00  0.00    -0.083 Cl
BRANCH  11  13
ATOM     13  O   UNL     1      -2.262   3.717   0.336  0.00  0.00    -0.504 OA
ATOM     14  H   UNL     1      -2.592   4.024  -0.520  0.00  0.00    +0.292 HD
ENDBRANCH  11  13
ENDBRANCH   1   2
BRANCH   1  20
ATOM     15  N   UNL     1      -3.045  -2.599   2.244  0.00  0.00    -0.331 N 
ATOM     16  C   UNL     1      -1.778  -1.871   2.400  0.00  0.00    +0.086 C 
ATOM     17  C   UNL     1      -1.962  -0.426   1.932  0.00  0.00    -0.058 C 
ATOM     18  C   UNL     1      -3.666  -1.148   0.373  0.00  0.00    -0.058 C 
ATOM     19  C   UNL     1      -3.482  -2.594   0.841  0.00  0.00    +0.086 C 
ATOM     20  N   UNL     1      -2.380  -0.434   0.514  0.00  0.00    +0.390 N 
ATOM     21  H   UNL     1      -1.666  -0.919  -0.042  0.00  0.00    -0.080 HD
BRANCH  15  26
ATOM     22  C   UNL     1      -2.500  -5.421   4.537  0.00  0.00    +0.002 A 
ATOM     23  C   UNL     1      -2.716  -6.493   3.690  0.00  0.00    +0.003 A 
ATOM     24  C   UNL     1      -3.041  -6.276   2.364  0.00  0.00    +0.040 A 
ATOM     25  C   UNL     1      -3.151  -4.986   1.880  0.00  0.00    +0.144 A 
ATOM     26  C   UNL     1      -2.935  -3.906   2.729  0.00  0.00    +0.065 A 
ATOM     27  C   UNL     1      -2.604  -4.129   4.059  0.00  0.00    +0.026 A 
ATOM     28  F   UNL     1      -3.467  -4.774   0.583  0.00  0.00    -0.204 F 
ENDBRANCH  15  26
ENDBRANCH   1  20
BRANCH   1  29
ATOM     29  C   UNL     1      -2.970   0.919  -1.417  0.00  0.00    +0.032 A 
ATOM     30  C   UNL     1      -3.671   1.991  -1.937  0.00  0.00    +0.022 A 
ATOM     31  C   UNL     1      -4.081   1.952  -3.260  0.00  0.00    +0.003 A 
ATOM     32  C   UNL     1      -3.779   0.826  -4.012  0.00  0.00    +0.020 A 
ATOM     33  C   UNL     1      -3.080  -0.210  -3.422  0.00  0.00    +0.111 A 
ATOM     34  N   UNL     1      -2.701  -0.136  -2.161  0.00  0.00    -0.261 NA
ENDBRANCH   1  29
TORSDOF 5
