REMARK  Name = ZINC67540357
REMARK  11 active torsions:
REMARK  status: ('A' for Active; 'I' for Inactive)
REMARK    1  A    between atoms: C_1  and  C_2
REMARK    2  A    between atoms: C_2  and  C_3
REMARK    3  A    between atoms: C_2  and  C_4
REMARK    4  A    between atoms: C_7  and  C_10
REMARK    5  A    between atoms: C_10  and  N_11
REMARK    6  A    between atoms: C_15  and  C_18
REMARK    7  A    between atoms: C_15  and  O_28
REMARK    8  A    between atoms: C_18  and  N_19
REMARK    9  A    between atoms: N_19  and  C_20
REMARK   10  A    between atoms: C_20  and  C_21
REMARK   11  A    between atoms: C_21  and  C_22
REMARK                            x       y       z     vdW  Elec       q    Type
REMARK                         _______ _______ _______ _____ _____    ______ ____
ROOT
ATOM      1  N   UNL     1      -5.877  -0.949  -0.935  0.00  0.00    -0.295 N 
ATOM      2  C   UNL     1      -6.323   0.190  -0.142  0.00  0.00    +0.108 C 
ATOM      3  C   UNL     1      -6.860   1.297  -1.050  0.00  0.00    +0.022 C 
ATOM      4  C   UNL     1      -7.883   0.687  -2.016  0.00  0.00    +0.044 C 
ATOM      5  C   UNL     1      -7.145  -0.252  -2.973  0.00  0.00    +0.127 C 
ATOM      6  C   UNL     1      -6.247  -1.172  -2.196  0.00  0.00    +0.246 C 
ATOM      7  O   UNL     1      -5.840  -2.174  -2.745  0.00  0.00    -0.273 OA
ENDROOT
BRANCH   5   8
ATOM      8  O   UNL     1      -6.356   0.519  -3.881  0.00  0.00    -0.381 OA
ATOM      9  H   UNL     1      -5.689   1.071  -3.451  0.00  0.00    +0.211 HD
ENDBRANCH   5   8
BRANCH   1  10
ATOM     10  C   UNL     1      -4.961  -1.905  -0.308  0.00  0.00    +0.143 C 
BRANCH  10  14
ATOM     11  C   UNL     1      -0.928  -0.679  -1.001  0.00  0.00    -0.045 A 
ATOM     12  C   UNL     1      -1.602  -0.235   0.121  0.00  0.00    +0.004 A 
ATOM     13  C   UNL     1      -2.907  -0.631   0.345  0.00  0.00    +0.005 A 
ATOM     14  C   UNL     1      -3.538  -1.472  -0.553  0.00  0.00    -0.030 A 
ATOM     15  C   UNL     1      -2.864  -1.915  -1.675  0.00  0.00    +0.005 A 
ATOM     16  C   UNL     1      -1.560  -1.515  -1.902  0.00  0.00    +0.004 A 
BRANCH  11  18
ATOM     17  C   UNL     1       0.553   1.279  -1.352  0.00  0.00    +0.012 C 
ATOM     18  C   UNL     1       0.495  -0.246  -1.245  0.00  0.00    +0.013 C 
ATOM     19  C   UNL     1       1.376  -0.710  -0.083  0.00  0.00    +0.012 C 
ENDBRANCH  11  18
ENDBRANCH  10  14
ENDBRANCH   1  10
BRANCH   5  20
ATOM     20  C   UNL     1      -8.163  -1.077  -3.761  0.00  0.00    -0.038 C 
BRANCH  20  21
ATOM     21  N   UNL     1      -9.059  -0.175  -4.498  0.00  0.00    +0.382 N 
ATOM     22  H   UNL     1      -9.605   0.364  -3.844  0.00  0.00    -0.086 HD
ATOM     23  H   UNL     1      -8.511   0.447  -5.072  0.00  0.00    -0.086 HD
BRANCH  21  24
ATOM     24  C   UNL     1      -9.956  -0.966  -5.351  0.00  0.00    -0.075 C 
BRANCH  24  25
ATOM     25  C   UNL     1     -10.889  -0.026  -6.119  0.00  0.00    +0.055 C 
BRANCH  25  26
ATOM     26  C   UNL     1     -11.810  -0.837  -6.994  0.00  0.00    +0.105 A 
ATOM     27  N   UNL     1     -13.159  -0.773  -6.990  0.00  0.00    -0.348 N 
ATOM     28  H   UNL     1     -13.706  -0.201  -6.429  0.00  0.00    +0.166 HD
ATOM     29  C   UNL     1     -13.609  -1.664  -7.926  0.00  0.00    +0.104 A 
ATOM     30  C   UNL     1     -12.521  -2.242  -8.469  0.00  0.00    +0.130 A 
ATOM     31  N   UNL     1     -11.435  -1.714  -7.885  0.00  0.00    -0.241 NA
ENDBRANCH  25  26
ENDBRANCH  24  25
ENDBRANCH  21  24
ENDBRANCH  20  21
ENDBRANCH   5  20
TORSDOF 9
