REMARK  Name = ZINC17150224
REMARK  9 active torsions:
REMARK  status: ('A' for Active; 'I' for Inactive)
REMARK    1  A    between atoms: C_1  and  O_2
REMARK    2  A    between atoms: O_2  and  C_3
REMARK    3  A    between atoms: C_5  and  O_26
REMARK    4  A    between atoms: C_6  and  C_11
REMARK    5  A    between atoms: C_7  and  O_9
REMARK    6  A    between atoms: O_9  and  C_10
REMARK    7  A    between atoms: N_12  and  N_13
REMARK    8  A    between atoms: C_14  and  C_16
REMARK    9  A    between atoms: O_26  and  C_27
REMARK                            x       y       z     vdW  Elec       q    Type
REMARK                         _______ _______ _______ _____ _____    ______ ____
ROOT
ATOM      1  C   UNL     1      -1.131   7.186   1.836  0.00  0.00    +0.145 C 
ATOM      2  N   UNL     1      -1.617   7.957   0.911  0.00  0.00    -0.187 NA
ENDROOT
BRANCH   1   6
ATOM      3  C   UNL     1      -0.839   2.997   1.173  0.00  0.00    +0.127 A 
ATOM      4  C   UNL     1      -0.231   3.880   0.291  0.00  0.00    +0.092 A 
ATOM      5  C   UNL     1      -0.326   5.245   0.497  0.00  0.00    +0.136 A 
ATOM      6  C   UNL     1      -1.030   5.735   1.606  0.00  0.00    +0.078 A 
ATOM      7  C   UNL     1      -1.637   4.837   2.495  0.00  0.00    +0.136 A 
ATOM      8  C   UNL     1      -1.538   3.475   2.273  0.00  0.00    +0.092 A 
BRANCH   3  10
ATOM      9  C   UNL     1      -0.012   1.234  -0.190  0.00  0.00    +0.277 C 
ATOM     10  O   UNL     1      -0.745   1.659   0.961  0.00  0.00    -0.495 OA
ENDBRANCH   3  10
BRANCH   7  11
ATOM     11  O   UNL     1      -2.321   5.303   3.572  0.00  0.00    -0.494 OA
ATOM     12  C   UNL     1      -2.914   4.329   4.435  0.00  0.00    +0.277 C 
ENDBRANCH   7  11
BRANCH   5  13
ATOM     13  O   UNL     1       0.264   6.108  -0.370  0.00  0.00    -0.494 OA
ATOM     14  C   UNL     1       0.875   5.543  -1.532  0.00  0.00    +0.277 C 
ENDBRANCH   5  13
ENDBRANCH   1   6
BRANCH   2  15
ATOM     15  N   UNL     1      -2.173   7.399  -0.247  0.00  0.00    -0.200 N 
ATOM     16  C   UNL     1      -2.578   8.198  -1.254  0.00  0.00    +0.299 C 
ATOM     17  O   UNL     1      -2.546   9.408  -1.121  0.00  0.00    -0.265 OA
ATOM     18  H   UNL     1      -2.266   6.436  -0.325  0.00  0.00    +0.178 HD
BRANCH  16  19
ATOM     19  C   UNL     1      -3.058   7.610  -2.511  0.00  0.00    +0.192 A 
ATOM     20  C   UNL     1      -3.397   8.312  -3.624  0.00  0.00    +0.063 A 
ATOM     21  C   UNL     1      -3.813   7.322  -4.617  0.00  0.00    +0.022 A 
ATOM     22  C   UNL     1      -4.268   7.398  -5.936  0.00  0.00    +0.027 A 
ATOM     23  C   UNL     1      -4.585   6.252  -6.609  0.00  0.00    +0.019 A 
ATOM     24  C   UNL     1      -4.456   5.014  -5.992  0.00  0.00    +0.019 A 
ATOM     25  C   UNL     1      -4.008   4.919  -4.692  0.00  0.00    +0.048 A 
ATOM     26  C   UNL     1      -3.681   6.071  -3.986  0.00  0.00    +0.136 A 
ATOM     27  O   UNL     1      -3.224   6.290  -2.738  0.00  0.00    -0.450 OA
ATOM     28 BR   UNL     1      -5.201   6.351  -8.394  0.00  0.00    -0.050 Br
ENDBRANCH  16  19
ENDBRANCH   2  15
TORSDOF 6
