REMARK  Name = ZINC13428295
REMARK  6 active torsions:
REMARK  status: ('A' for Active; 'I' for Inactive)
REMARK    1  A    between atoms: C_1  and  N_2
REMARK    2  A    between atoms: N_2  and  C_3
REMARK    3  A    between atoms: N_2  and  C_4
REMARK    4  A    between atoms: C_7  and  C_13
REMARK    5  A    between atoms: C_9  and  N_10
REMARK    6  A    between atoms: C_25  and  C_27
REMARK                            x       y       z     vdW  Elec       q    Type
REMARK                         _______ _______ _______ _____ _____    ______ ____
ROOT
ATOM      1  C   UNL     1       1.803  -0.021   5.777  0.00  0.00    +0.248 C 
ATOM      2  O   UNL     1       1.095  -0.583   6.592  0.00  0.00    -0.270 OA
ATOM      3  N   UNL     1       3.124   0.109   6.009  0.00  0.00    -0.281 N 
ATOM      4  C   UNL     1       3.860  -0.458   7.142  0.00  0.00    +0.080 C 
ATOM      5  C   UNL     1       3.269  -1.756   7.641  0.00  0.00    +0.023 C 
ATOM      6  C   UNL     1       3.385  -2.864   6.612  0.00  0.00    +0.002 C 
ATOM      7  C   UNL     1       4.871  -3.071   6.300  0.00  0.00    +0.000 C 
ATOM      8  C   UNL     1       5.422  -1.791   5.675  0.00  0.00    +0.005 C 
ATOM      9  C   UNL     1       5.312  -0.620   6.654  0.00  0.00    +0.012 C 
ATOM     10  C   UNL     1       5.477   0.682   5.812  0.00  0.00    +0.039 C 
ATOM     11  C   UNL     1       4.084   0.841   5.163  0.00  0.00    +0.190 C 
ENDROOT
BRANCH   1  15
ATOM     12  C   UNL     1       0.110   1.528   2.204  0.00  0.00    +0.060 A 
ATOM     13  C   UNL     1       1.073   2.262   2.892  0.00  0.00    +0.026 A 
ATOM     14  C   UNL     1       1.619   1.765   4.053  0.00  0.00    +0.015 A 
ATOM     15  C   UNL     1       1.214   0.517   4.536  0.00  0.00    +0.039 A 
ATOM     16  C   UNL     1       0.252  -0.220   3.841  0.00  0.00    +0.047 A 
ATOM     17  C   UNL     1      -0.295   0.285   2.683  0.00  0.00    +0.148 A 
BRANCH  12  19
ATOM     18  C   UNL     1       0.592   2.266   0.018  0.00  0.00    +0.129 C 
ATOM     19  N   UNL     1      -0.444   2.035   1.034  0.00  0.00    -0.334 N 
ATOM     20  C   UNL     1      -1.203   3.264   1.301  0.00  0.00    +0.129 C 
ENDBRANCH  12  19
BRANCH  17  21
ATOM     21  N   UNL     1      -1.315  -0.495   1.945  0.00  0.00    +0.058 N 
ATOM     22  O   UNL     1      -1.669  -1.582   2.363  0.00  0.00    -0.126 OA
ATOM     23  O   UNL     1      -1.799  -0.048   0.921  0.00  0.00    -0.126 OA
ENDBRANCH  17  21
ENDBRANCH   1  15
BRANCH  11  24
ATOM     24  C   UNL     1       4.093   0.258   3.774  0.00  0.00    +0.376 C 
ATOM     25  O   UNL     1       3.388  -0.687   3.511  0.00  0.00    -0.244 OA
ATOM     26  O   UNL     1       4.883   0.789   2.828  0.00  0.00    -0.244 OA
ENDBRANCH  11  24
TORSDOF 4
