REMARK  Name = ZINC14124732
REMARK  12 active torsions:
REMARK  status: ('A' for Active; 'I' for Inactive)
REMARK    1  A    between atoms: C_1  and  C_2
REMARK    2  A    between atoms: C_3  and  C_12
REMARK    3  A    between atoms: C_12  and  C_14
REMARK    4  A    between atoms: C_14  and  O_15
REMARK    5  A    between atoms: O_15  and  C_16
REMARK    6  A    between atoms: C_16  and  C_18
REMARK    7  A    between atoms: C_21  and  C_24
REMARK    8  A    between atoms: C_24  and  O_26
REMARK    9  A    between atoms: O_26  and  C_27
REMARK   10  A    between atoms: C_27  and  C_28
REMARK   11  A    between atoms: C_28  and  C_30
REMARK   12  A    between atoms: C_31  and  C_40
REMARK                            x       y       z     vdW  Elec       q    Type
REMARK                         _______ _______ _______ _____ _____    ______ ____
ROOT
ATOM      1  C   UNL     1      -8.476   5.130   0.576  0.00  0.00    +0.059 A 
ATOM      2  C   UNL     1      -8.783   3.768   0.545  0.00  0.00    +0.016 A 
ATOM      3  C   UNL     1     -10.091   3.353   0.671  0.00  0.00    +0.016 A 
ATOM      4  C   UNL     1     -11.110   4.294   0.821  0.00  0.00    +0.059 A 
ATOM      5  C   UNL     1     -10.805   5.656   0.846  0.00  0.00    +0.016 A 
ATOM      6  C   UNL     1      -9.496   6.071   0.724  0.00  0.00    +0.016 A 
ENDROOT
BRANCH   1   7
ATOM      7  C   UNL     1      -7.072   5.575   0.445  0.00  0.00    +0.340 C 
ATOM      8  O   UNL     1      -6.806   6.760   0.467  0.00  0.00    -0.245 OA
BRANCH   7   9
ATOM      9  O   UNL     1      -6.088   4.667   0.301  0.00  0.00    -0.453 OA
BRANCH   9  10
ATOM     10  C   UNL     1      -4.734   5.176   0.178  0.00  0.00    +0.312 C 
BRANCH  10  11
ATOM     11  C   UNL     1      -3.775   4.023   0.027  0.00  0.00    +0.203 C 
ATOM     12  O   UNL     1      -4.200   2.890  -0.073  0.00  0.00    -0.288 OA
BRANCH  11  15
ATOM     13  C   UNL     1      -2.074   4.384  -2.539  0.00  0.00    +0.064 C 
ATOM     14  C   UNL     1      -1.586   4.427  -1.114  0.00  0.00    +0.025 A 
ATOM     15  C   UNL     1      -2.378   4.261   0.002  0.00  0.00    +0.049 A 
ATOM     16  C   UNL     1      -1.479   4.382   1.167  0.00  0.00    +0.011 A 
ATOM     17  C   UNL     1      -1.665   4.306   2.544  0.00  0.00    +0.011 A 
ATOM     18  C   UNL     1      -0.588   4.472   3.388  0.00  0.00    +0.001 A 
ATOM     19  C   UNL     1       0.678   4.702   2.869  0.00  0.00    +0.002 A 
ATOM     20  C   UNL     1       0.876   4.774   1.507  0.00  0.00    +0.026 A 
ATOM     21  C   UNL     1      -0.199   4.615   0.639  0.00  0.00    +0.047 A 
ATOM     22  N   UNL     1      -0.310   4.634  -0.736  0.00  0.00    -0.358 N 
ATOM     23  H   UNL     1       0.429   4.777  -1.347  0.00  0.00    +0.166 HD
ENDBRANCH  11  15
ENDBRANCH  10  11
ENDBRANCH   9  10
ENDBRANCH   7   9
ENDBRANCH   1   7
BRANCH   4  24
ATOM     24  C   UNL     1     -12.515   3.849   0.953  0.00  0.00    +0.340 C 
ATOM     25  O   UNL     1     -13.402   4.668   1.083  0.00  0.00    -0.245 OA
BRANCH  24  26
ATOM     26  O   UNL     1     -12.810   2.535   0.928  0.00  0.00    -0.453 OA
BRANCH  26  27
ATOM     27  C   UNL     1     -14.209   2.170   1.063  0.00  0.00    +0.312 C 
BRANCH  27  28
ATOM     28  C   UNL     1     -14.344   0.670   1.013  0.00  0.00    +0.203 C 
ATOM     29  O   UNL     1     -13.352  -0.028   0.974  0.00  0.00    -0.288 OA
BRANCH  28  30
ATOM     30  C   UNL     1     -15.630   0.074   1.012  0.00  0.00    +0.049 A 
ATOM     31  C   UNL     1     -16.326  -0.395   2.105  0.00  0.00    +0.025 A 
ATOM     32  N   UNL     1     -17.514  -0.889   1.707  0.00  0.00    -0.358 N 
ATOM     33  H   UNL     1     -18.179  -1.273   2.300  0.00  0.00    +0.166 HD
ATOM     34  C   UNL     1     -17.655  -0.778   0.339  0.00  0.00    +0.047 A 
ATOM     35  C   UNL     1     -16.491  -0.174  -0.162  0.00  0.00    +0.011 A 
ATOM     36  C   UNL     1     -16.357   0.064  -1.526  0.00  0.00    +0.011 A 
ATOM     37  C   UNL     1     -17.373  -0.297  -2.384  0.00  0.00    +0.001 A 
ATOM     38  C   UNL     1     -18.524  -0.895  -1.893  0.00  0.00    +0.002 A 
ATOM     39  C   UNL     1     -18.670  -1.135  -0.544  0.00  0.00    +0.026 A 
ATOM     40  C   UNL     1     -15.834  -0.359   3.529  0.00  0.00    +0.064 C 
ENDBRANCH  28  30
ENDBRANCH  27  28
ENDBRANCH  26  27
ENDBRANCH  24  26
ENDBRANCH   4  24
TORSDOF 10
