REMARK  Name = ZINC62769952
REMARK  6 active torsions:
REMARK  status: ('A' for Active; 'I' for Inactive)
REMARK    1  A    between atoms: C_1  and  C_2
REMARK    2  A    between atoms: C_2  and  C_4
REMARK    3  A    between atoms: C_2  and  N_10
REMARK    4  A    between atoms: C_4  and  C_5
REMARK    5  A    between atoms: N_10  and  C_11
REMARK    6  A    between atoms: C_16  and  N_17
REMARK                            x       y       z     vdW  Elec       q    Type
REMARK                         _______ _______ _______ _____ _____    ______ ____
ROOT
ATOM      1  C   UNL     1       0.027  -0.639   2.399  0.00  0.00    +0.053 A 
ATOM      2  C   UNL     1      -1.325  -0.334   2.477  0.00  0.00    +0.025 A 
ATOM      3  C   UNL     1      -2.000  -0.482   3.673  0.00  0.00    +0.003 A 
ATOM      4  C   UNL     1      -1.332  -0.935   4.797  0.00  0.00    +0.022 A 
ATOM      5  C   UNL     1       0.015  -1.242   4.729  0.00  0.00    +0.067 A 
ATOM      6  C   UNL     1       0.699  -1.100   3.530  0.00  0.00    +0.087 A 
ATOM      7 CL   UNL     1       0.849  -1.809   6.142  0.00  0.00    -0.081 Cl
ENDROOT
BRANCH   6   8
ATOM      8  N   UNL     1       2.065  -1.417   3.456  0.00  0.00    -0.303 N 
ATOM      9  C   UNL     1       2.623  -2.659   3.612  0.00  0.00    +0.112 A 
ATOM     10  C   UNL     1       3.954  -2.510   3.465  0.00  0.00    +0.130 A 
ATOM     11  N   UNL     1       4.206  -1.215   3.225  0.00  0.00    -0.244 NA
ATOM     12  C   UNL     1       3.082  -0.551   3.211  0.00  0.00    +0.204 A 
ENDBRANCH   6   8
BRANCH   1  13
ATOM     13  N   UNL     1       0.711  -0.489   1.189  0.00  0.00    -0.339 N 
ATOM     14  H   UNL     1       1.654  -0.707   1.135  0.00  0.00    +0.146 HD
BRANCH  13  16
ATOM     15  C   UNL     1      -0.019   1.526   0.010  0.00  0.00    +0.028 C 
ATOM     16  C   UNL     1       0.002  -0.004   0.002  0.00  0.00    +0.075 C 
BRANCH  16  17
ATOM     17  C   UNL     1       0.718  -0.497  -1.257  0.00  0.00    +0.096 C 
BRANCH  17  18
ATOM     18  C   UNL     1       0.632  -2.000  -1.327  0.00  0.00    +0.107 A 
ATOM     19  C   UNL     1      -0.343  -2.705  -1.931  0.00  0.00    +0.045 A 
ATOM     20  C   UNL     1      -0.029  -4.072  -1.755  0.00  0.00    +0.041 A 
ATOM     21  C   UNL     1       1.119  -4.121  -1.055  0.00  0.00    +0.195 A 
ATOM     22  O   UNL     1       1.517  -2.864  -0.804  0.00  0.00    -0.468 OA
ENDBRANCH  17  18
ENDBRANCH  16  17
ENDBRANCH  13  16
ENDBRANCH   1  13
TORSDOF 5
