REMARK  Name = ZINC17175033
REMARK  11 active torsions:
REMARK  status: ('A' for Active; 'I' for Inactive)
REMARK    1  A    between atoms: C_3  and  C_8
REMARK    2  A    between atoms: C_4  and  O_7
REMARK    3  A    between atoms: N_9  and  C_10
REMARK    4  A    between atoms: C_10  and  C_11
REMARK    5  A    between atoms: C_11  and  S_12
REMARK    6  A    between atoms: S_12  and  S_13
REMARK    7  A    between atoms: S_13  and  C_14
REMARK    8  A    between atoms: C_14  and  C_15
REMARK    9  A    between atoms: C_15  and  N_16
REMARK   10  A    between atoms: C_17  and  C_18
REMARK   11  A    between atoms: C_19  and  O_24
REMARK                            x       y       z     vdW  Elec       q    Type
REMARK                         _______ _______ _______ _____ _____    ______ ____
ROOT
ATOM      1  S   UNL     1       8.281   3.245   1.574  0.00  0.00    -0.091 S 
ENDROOT
BRANCH   1   2
ATOM      2  C   UNL     1       6.625   2.545   1.335  0.00  0.00    +0.102 C 
BRANCH   2   3
ATOM      3  C   UNL     1       6.087   2.963  -0.035  0.00  0.00    +0.123 C 
BRANCH   3   5
ATOM      4  C   UNL     1       3.724   3.181  -0.326  0.00  0.00    +0.089 C 
ATOM      5  N   UNL     1       4.749   2.397  -0.227  0.00  0.00    -0.389 N 
ATOM      6  H   UNL     1       4.632   1.436  -0.281  0.00  0.00    +0.159 HD
BRANCH   4   9
ATOM      7  C   UNL     1       0.010   2.906  -0.784  0.00  0.00    +0.001 A 
ATOM      8  C   UNL     1       1.274   3.446  -0.673  0.00  0.00    +0.013 A 
ATOM      9  C   UNL     1       2.370   2.611  -0.445  0.00  0.00    +0.032 A 
ATOM     10  C   UNL     1       2.175   1.227  -0.331  0.00  0.00    +0.125 A 
ATOM     11  C   UNL     1       0.897   0.702  -0.445  0.00  0.00    +0.046 A 
ATOM     12  C   UNL     1      -0.178   1.539  -0.670  0.00  0.00    +0.004 A 
BRANCH  10  13
ATOM     13  O   UNL     1       3.232   0.406  -0.110  0.00  0.00    -0.506 OA
ATOM     14  H   UNL     1       3.425   0.255   0.826  0.00  0.00    +0.292 HD
ENDBRANCH  10  13
ENDBRANCH   4   9
ENDBRANCH   3   5
ENDBRANCH   2   3
ENDBRANCH   1   2
BRANCH   1  15
ATOM     15  S   UNL     1       7.944   5.256   1.787  0.00  0.00    -0.091 S 
BRANCH  15  16
ATOM     16  C   UNL     1       7.561   5.453   3.549  0.00  0.00    +0.102 C 
BRANCH  16  17
ATOM     17  C   UNL     1       8.826   5.215   4.376  0.00  0.00    +0.123 C 
BRANCH  17  18
ATOM     18  N   UNL     1       8.516   5.374   5.799  0.00  0.00    -0.389 N 
ATOM     19  C   UNL     1       8.605   4.359   6.597  0.00  0.00    +0.089 C 
ATOM     20  H   UNL     1       8.245   6.239   6.143  0.00  0.00    +0.159 HD
BRANCH  19  21
ATOM     21  C   UNL     1       8.234   4.503   8.016  0.00  0.00    +0.032 A 
ATOM     22  C   UNL     1       7.686   5.707   8.483  0.00  0.00    +0.125 A 
ATOM     23  C   UNL     1       7.340   5.831   9.819  0.00  0.00    +0.046 A 
ATOM     24  C   UNL     1       7.535   4.774  10.687  0.00  0.00    +0.004 A 
ATOM     25  C   UNL     1       8.077   3.584  10.230  0.00  0.00    +0.001 A 
ATOM     26  C   UNL     1       8.420   3.440   8.903  0.00  0.00    +0.013 A 
BRANCH  22  27
ATOM     27  O   UNL     1       7.495   6.745   7.630  0.00  0.00    -0.506 OA
ATOM     28  H   UNL     1       6.628   6.747   7.200  0.00  0.00    +0.292 HD
ENDBRANCH  22  27
ENDBRANCH  19  21
ENDBRANCH  17  18
ENDBRANCH  16  17
ENDBRANCH  15  16
ENDBRANCH   1  15
TORSDOF 11
