REMARK  Name = ZINC54155073
REMARK  6 active torsions:
REMARK  status: ('A' for Active; 'I' for Inactive)
REMARK    1  A    between atoms: C_1  and  C_2
REMARK    2  A    between atoms: C_2  and  C_4
REMARK    3  A    between atoms: C_2  and  C_14
REMARK    4  A    between atoms: C_4  and  N_5
REMARK    5  A    between atoms: C_6  and  C_8
REMARK    6  A    between atoms: N_15  and  O_16
REMARK                            x       y       z     vdW  Elec       q    Type
REMARK                         _______ _______ _______ _____ _____    ______ ____
ROOT
ATOM      1  C   UNL     1       0.718  -0.497  -1.257  0.00  0.00    +0.115 C 
ENDROOT
BRANCH   1   2
ATOM      2  N   UNL     1      -0.055  -0.114  -2.441  0.00  0.00    -0.310 N 
ATOM      3  C   UNL     1       0.387  -0.445  -3.670  0.00  0.00    +0.251 C 
ATOM      4  O   UNL     1       1.428  -1.062  -3.797  0.00  0.00    -0.270 OA
ATOM      5  H   UNL     1      -0.885   0.378  -2.339  0.00  0.00    +0.149 HD
BRANCH   3   6
ATOM      6  C   UNL     1      -0.387  -0.061  -4.854  0.00  0.00    +0.075 A 
ATOM      7  C   UNL     1      -0.115  -0.305  -6.192  0.00  0.00    +0.022 A 
ATOM      8  C   UNL     1      -1.036   0.184  -7.087  0.00  0.00    +0.024 A 
ATOM      9  C   UNL     1      -2.119   0.854  -6.618  0.00  0.00    +0.056 A 
ATOM     10  S   UNL     1      -1.925   0.834  -4.949  0.00  0.00    -0.077 S 
ATOM     11 BR   UNL     1      -3.529   1.626  -7.615  0.00  0.00    -0.043 Br
ENDBRANCH   3   6
ENDBRANCH   1   2
BRANCH   1  13
ATOM     12  C   UNL     1      -0.019   1.526   0.010  0.00  0.00    +0.017 C 
ATOM     13  C   UNL     1       0.002  -0.004   0.002  0.00  0.00    +0.069 C 
BRANCH  13  14
ATOM     14  C   UNL     1       0.731  -0.503   1.223  0.00  0.00    +0.136 C 
ATOM     15  N   UNL     1       1.609   0.246   1.802  0.00  0.00    -0.076 NA
ATOM     16  N   UNL     1       0.461  -1.758   1.721  0.00  0.00    -0.344 N 
ATOM     17  H   UNL     1      -0.199  -2.321   1.286  0.00  0.00    +0.144 HD
ATOM     18  H   UNL     1       0.930  -2.080   2.507  0.00  0.00    +0.144 HD
BRANCH  15  19
ATOM     19  O   UNL     1       2.294  -0.223   2.949  0.00  0.00    -0.408 OA
ATOM     20  H   UNL     1       2.931   0.408   3.312  0.00  0.00    +0.328 HD
ENDBRANCH  15  19
ENDBRANCH  13  14
ENDBRANCH   1  13
TORSDOF 5
