REMARK  Name = ZINC09469933
REMARK  12 active torsions:
REMARK  status: ('A' for Active; 'I' for Inactive)
REMARK    1  A    between atoms: C_3  and  S_26
REMARK    2  A    between atoms: C_6  and  C_7
REMARK    3  A    between atoms: C_7  and  C_9
REMARK    4  A    between atoms: C_9  and  O_10
REMARK    5  A    between atoms: O_10  and  C_11
REMARK    6  A    between atoms: C_11  and  C_13
REMARK    7  A    between atoms: C_15  and  N_23
REMARK    8  A    between atoms: C_18  and  N_19
REMARK    9  A    between atoms: N_19  and  C_20
REMARK   10  A    between atoms: C_20  and  C_21
REMARK   11  A    between atoms: C_21  and  O_22
REMARK   12  A    between atoms: S_26  and  N_29
REMARK                            x       y       z     vdW  Elec       q    Type
REMARK                         _______ _______ _______ _____ _____    ______ ____
ROOT
ATOM      1  C   UNL     1       0.024   1.147   0.009  0.00  0.00    +0.311 C 
ENDROOT
BRANCH   1   2
ATOM      2  C   UNL     1      -0.663   1.661   1.248  0.00  0.00    +0.200 C 
ATOM      3  O   UNL     1      -1.652   2.355   1.148  0.00  0.00    -0.288 OA
BRANCH   2   9
ATOM      4  C   UNL     1       1.004   0.515   2.697  0.00  0.00    +0.013 A 
ATOM      5  C   UNL     1       1.498   0.206   3.946  0.00  0.00    +0.029 A 
ATOM      6  C   UNL     1       0.864   0.681   5.082  0.00  0.00    +0.106 A 
ATOM      7  C   UNL     1      -0.265   1.473   4.973  0.00  0.00    +0.029 A 
ATOM      8  C   UNL     1      -0.768   1.796   3.730  0.00  0.00    +0.013 A 
ATOM      9  C   UNL     1      -0.133   1.321   2.578  0.00  0.00    +0.021 A 
BRANCH   6  10
ATOM     10  S   UNL     1       1.499   0.274   6.674  0.00  0.00    +0.061 S 
ATOM     11  O   UNL     1       2.877  -0.026   6.498  0.00  0.00    -0.153 OA
ATOM     12  O   UNL     1       1.048   1.288   7.562  0.00  0.00    -0.153 OA
BRANCH  10  13
ATOM     13  N   UNL     1       0.766  -1.132   7.150  0.00  0.00    -0.177 NA
ATOM     14  C   UNL     1      -0.491  -1.101   7.910  0.00  0.00    +0.109 C 
ATOM     15  C   UNL     1      -1.524  -1.976   7.183  0.00  0.00    +0.017 C 
ATOM     16  C   UNL     1      -0.945  -3.379   6.984  0.00  0.00    +0.003 C 
ATOM     17  C   UNL     1       0.312  -3.295   6.115  0.00  0.00    +0.017 C 
ATOM     18  C   UNL     1       1.362  -2.435   6.824  0.00  0.00    +0.109 C 
ENDBRANCH  10  13
ENDBRANCH   6  10
ENDBRANCH   2   9
ENDBRANCH   1   2
BRANCH   1  19
ATOM     19  O   UNL     1      -0.684   1.617  -1.168  0.00  0.00    -0.453 OA
BRANCH  19  20
ATOM     20  C   UNL     1      -0.195   1.242  -2.367  0.00  0.00    +0.341 C 
ATOM     21  O   UNL     1       0.797   0.543  -2.427  0.00  0.00    -0.245 OA
BRANCH  20  22
ATOM     22  C   UNL     1      -0.862   1.682  -3.604  0.00  0.00    +0.082 A 
ATOM     23  C   UNL     1      -2.070   2.383  -3.541  0.00  0.00    +0.049 A 
ATOM     24  C   UNL     1      -2.686   2.796  -4.702  0.00  0.00    +0.127 A 
ATOM     25  C   UNL     1      -2.121   2.510  -5.935  0.00  0.00    +0.034 A 
ATOM     26  C   UNL     1      -0.932   1.814  -6.015  0.00  0.00    +0.026 A 
ATOM     27  C   UNL     1      -0.293   1.394  -4.855  0.00  0.00    +0.041 A 
BRANCH  24  28
ATOM     28  N   UNL     1      -3.962   3.542  -4.633  0.00  0.00    +0.056 N 
ATOM     29  O   UNL     1      -4.513   3.904  -5.657  0.00  0.00    -0.126 OA
ATOM     30  O   UNL     1      -4.462   3.795  -3.551  0.00  0.00    -0.126 OA
ENDBRANCH  24  28
BRANCH  27  31
ATOM     31  N   UNL     1       0.903   0.693  -4.932  0.00  0.00    -0.341 N 
ATOM     32  H   UNL     1       1.306   0.330  -4.128  0.00  0.00    +0.146 HD
BRANCH  31  33
ATOM     33  C   UNL     1       1.558   0.502  -6.229  0.00  0.00    +0.129 C 
BRANCH  33  34
ATOM     34  C   UNL     1       2.849  -0.296  -6.036  0.00  0.00    +0.174 C 
BRANCH  34  35
ATOM     35  O   UNL     1       2.531  -1.611  -5.575  0.00  0.00    -0.393 OA
ATOM     36  H   UNL     1       3.304  -2.175  -5.431  0.00  0.00    +0.209 HD
ENDBRANCH  34  35
ENDBRANCH  33  34
ENDBRANCH  31  33
ENDBRANCH  27  31
ENDBRANCH  20  22
ENDBRANCH  19  20
ENDBRANCH   1  19
TORSDOF 12
