REMARK  Name = ZINC27500606
REMARK  9 active torsions:
REMARK  status: ('A' for Active; 'I' for Inactive)
REMARK    1  A    between atoms: C_1  and  C_2
REMARK    2  A    between atoms: C_4  and  C_8
REMARK    3  A    between atoms: C_5  and  C_7
REMARK    4  A    between atoms: C_10  and  C_18
REMARK    5  A    between atoms: C_12  and  C_17
REMARK    6  A    between atoms: N_20  and  C_21
REMARK    7  A    between atoms: C_21  and  C_22
REMARK    8  A    between atoms: C_22  and  C_24
REMARK    9  A    between atoms: C_22  and  N_29
REMARK                            x       y       z     vdW  Elec       q    Type
REMARK                         _______ _______ _______ _____ _____    ______ ____
ROOT
ATOM      1  C   UNL     1      -1.189  -1.142  -0.671  0.00  0.00    +0.245 C 
ATOM      2  O   UNL     1      -1.134  -2.348  -0.529  0.00  0.00    -0.270 OA
ATOM      3  N   UNL     1      -2.385  -0.532  -0.790  0.00  0.00    -0.312 N 
ATOM      4  H   UNL     1      -2.435   0.559  -0.919  0.00  0.00    +0.149 HD
ENDROOT
BRANCH   1   7
ATOM      5  C   UNL     1       1.395   1.441  -1.610  0.00  0.00    +0.079 A 
ATOM      6  C   UNL     1       0.201   0.714  -1.604  0.00  0.00    +0.042 A 
ATOM      7  C   UNL     1       0.057  -0.344  -0.713  0.00  0.00    +0.053 A 
ATOM      8  C   UNL     1       1.135  -0.633   0.150  0.00  0.00    +0.076 A 
ATOM      9  C   UNL     1       1.359  -1.632   1.192  0.00  0.00    +0.091 A 
ATOM     10  N   UNL     1       2.550  -1.434   1.670  0.00  0.00    -0.080 NA
ATOM     11  O   UNL     1       3.155  -0.344   1.004  0.00  0.00    -0.334 OA
ATOM     12  C   UNL     1       2.303   0.146   0.081  0.00  0.00    +0.260 A 
ATOM     13  N   UNL     1       2.388   1.142  -0.786  0.00  0.00    -0.210 NA
ATOM     14  C   UNL     1       0.387  -2.697   1.632  0.00  0.00    +0.070 C 
BRANCH   5  18
ATOM     15  C   UNL     1       0.522   4.898  -5.269  0.00  0.00    +0.086 C 
ATOM     16  C   UNL     1       1.151   4.080  -4.170  0.00  0.00    +0.103 A 
ATOM     17  C   UNL     1       0.572   3.045  -3.540  0.00  0.00    +0.054 A 
ATOM     18  C   UNL     1       1.553   2.568  -2.558  0.00  0.00    +0.041 A 
ATOM     19  C   UNL     1       2.636   3.380  -2.695  0.00  0.00    +0.111 A 
ATOM     20  O   UNL     1       2.379   4.269  -3.664  0.00  0.00    -0.464 OA
ATOM     21  C   UNL     1       3.911   3.291  -1.897  0.00  0.00    +0.087 C 
ENDBRANCH   5  18
ENDBRANCH   1   7
BRANCH   3  22
ATOM     22  C   UNL     1      -3.618  -1.322  -0.749  0.00  0.00    +0.097 C 
BRANCH  22  23
ATOM     23  C   UNL     1      -4.816  -0.413  -1.032  0.00  0.00    +0.016 C 
BRANCH  23  24
ATOM     24  N   UNL     1      -4.804   0.718  -0.095  0.00  0.00    +0.387 N 
ATOM     25  C   UNL     1      -4.881   0.251   1.295  0.00  0.00    -0.078 C 
ATOM     26  C   UNL     1      -4.721   1.441   2.244  0.00  0.00    -0.019 C 
ATOM     27  C   UNL     1      -5.828   2.462   1.967  0.00  0.00    -0.004 C 
ATOM     28  C   UNL     1      -5.756   2.896   0.500  0.00  0.00    -0.019 C 
ATOM     29  C   UNL     1      -5.887   1.663  -0.398  0.00  0.00    -0.078 C 
ATOM     30  H   UNL     1      -3.850   1.251  -0.218  0.00  0.00    -0.081 HD
ENDBRANCH  23  24
BRANCH  23  31
ATOM     31  C   UNL     1      -4.731   0.104  -2.445  0.00  0.00    +0.093 A 
ATOM     32  C   UNL     1      -5.406  -0.382  -3.502  0.00  0.00    +0.043 A 
ATOM     33  C   UNL     1      -5.030   0.397  -4.621  0.00  0.00    +0.041 A 
ATOM     34  C   UNL     1      -4.141   1.306  -4.182  0.00  0.00    +0.195 A 
ATOM     35  O   UNL     1      -3.964   1.124  -2.863  0.00  0.00    -0.469 OA
ENDBRANCH  23  31
ENDBRANCH  22  23
ENDBRANCH   3  22
TORSDOF 6
