REMARK  Name = ZINC38636988
REMARK  10 active torsions:
REMARK  status: ('A' for Active; 'I' for Inactive)
REMARK    1  A    between atoms: C_1  and  C_2
REMARK    2  A    between atoms: C_4  and  C_8
REMARK    3  A    between atoms: C_5  and  C_7
REMARK    4  A    between atoms: C_8  and  C_10
REMARK    5  A    between atoms: C_10  and  C_11
REMARK    6  A    between atoms: C_11  and  C_12
REMARK    7  A    between atoms: C_12  and  O_14
REMARK    8  A    between atoms: O_14  and  C_15
REMARK    9  A    between atoms: C_15  and  C_16
REMARK   10  A    between atoms: C_16  and  C_18
REMARK                            x       y       z     vdW  Elec       q    Type
REMARK                         _______ _______ _______ _____ _____    ______ ____
ROOT
ATOM      1  C   UNL     1      -7.826  -4.289   0.015  0.00  0.00    +0.311 C 
ENDROOT
BRANCH   1   2
ATOM      2  C   UNL     1      -8.742  -5.486   0.013  0.00  0.00    +0.200 C 
ATOM      3  O   UNL     1      -8.277  -6.606   0.004  0.00  0.00    -0.288 OA
BRANCH   2   4
ATOM      4  C   UNL     1     -10.200  -5.295   0.021  0.00  0.00    +0.023 A 
ATOM      5  C   UNL     1     -10.752  -3.936   0.025  0.00  0.00    +0.013 A 
ATOM      6  C   UNL     1     -12.083  -3.705   0.032  0.00  0.00    +0.026 A 
ATOM      7  C   UNL     1     -12.998  -4.777   0.036  0.00  0.00    +0.056 A 
ATOM      8  N   UNL     1     -14.312  -4.867   0.043  0.00  0.00    -0.268 N 
ATOM      9  C   UNL     1     -14.655  -6.188   0.043  0.00  0.00    +0.308 C 
ATOM     10  O   UNL     1     -15.791  -6.613   0.048  0.00  0.00    -0.252 OA
ATOM     11  N   UNL     1     -13.514  -6.968   0.036  0.00  0.00    -0.268 N 
ATOM     12  C   UNL     1     -12.476  -6.179   0.031  0.00  0.00    +0.057 A 
ATOM     13  C   UNL     1     -11.023  -6.388   0.018  0.00  0.00    +0.036 A 
ATOM     14  H   UNL     1     -13.490  -7.938   0.035  0.00  0.00    +0.156 HD
ATOM     15  H   UNL     1     -14.931  -4.120   0.047  0.00  0.00    +0.156 HD
ENDBRANCH   2   4
ENDBRANCH   1   2
BRANCH   1  16
ATOM     16  O   UNL     1      -6.467  -4.730   0.006  0.00  0.00    -0.457 OA
BRANCH  16  17
ATOM     17  C   UNL     1      -5.518  -3.780   0.007  0.00  0.00    +0.308 C 
ATOM     18  O   UNL     1      -5.832  -2.613   0.015  0.00  0.00    -0.251 OA
BRANCH  17  19
ATOM     19  C   UNL     1      -4.062  -4.169  -0.003  0.00  0.00    +0.128 C 
BRANCH  19  20
ATOM     20  C   UNL     1      -3.197  -2.907   0.000  0.00  0.00    +0.091 C 
BRANCH  20  21
ATOM     21  C   UNL     1      -1.741  -3.296  -0.009  0.00  0.00    +0.164 C 
ATOM     22  O   UNL     1      -1.427  -4.468  -0.017  0.00  0.00    -0.292 OA
BRANCH  21  26
ATOM     23  C   UNL     1      -0.018   1.503   0.010  0.00  0.00    +0.051 C 
ATOM     24  C   UNL     1       0.002  -0.004   0.002  0.00  0.00    -0.012 A 
ATOM     25  C   UNL     1      -1.042  -0.855   0.002  0.00  0.00    +0.022 A 
ATOM     26  C   UNL     1      -0.707  -2.260  -0.008  0.00  0.00    +0.028 A 
ATOM     27  C   UNL     1       0.637  -2.579  -0.016  0.00  0.00    -0.003 A 
ATOM     28  S   UNL     1       1.411  -1.090  -0.018  0.00  0.00    -0.098 S 
ATOM     29  C   UNL     1       1.264  -3.949  -0.027  0.00  0.00    +0.052 C 
ENDBRANCH  21  26
ENDBRANCH  20  21
ENDBRANCH  19  20
ENDBRANCH  17  19
ENDBRANCH  16  17
ENDBRANCH   1  16
TORSDOF 8
