REMARK  Name = ZINC36530074
REMARK  15 active torsions:
REMARK  status: ('A' for Active; 'I' for Inactive)
REMARK    1  A    between atoms: C_1  and  C_2
REMARK    2  A    between atoms: C_2  and  C_3
REMARK    3  A    between atoms: C_2  and  C_4
REMARK    4  A    between atoms: C_2  and  C_5
REMARK    5  A    between atoms: C_5  and  C_6
REMARK    6  A    between atoms: C_6  and  C_7
REMARK    7  A    between atoms: C_6  and  C_8
REMARK    8  A    between atoms: C_6  and  N_9
REMARK    9  A    between atoms: C_10  and  C_12
REMARK   10  A    between atoms: C_12  and  C_14
REMARK   11  A    between atoms: C_12  and  N_21
REMARK   12  A    between atoms: C_17  and  O_20
REMARK   13  A    between atoms: N_21  and  C_22
REMARK   14  A    between atoms: C_23  and  C_25
REMARK   15  A    between atoms: C_27  and  N_32
REMARK                            x       y       z     vdW  Elec       q    Type
REMARK                         _______ _______ _______ _____ _____    ______ ____
ROOT
ATOM      1  C   UNL     1       5.354  -0.760  -4.372  0.00  0.00    +0.192 C 
ENDROOT
BRANCH   1   2
ATOM      2  C   UNL     1       4.447   0.125  -5.188  0.00  0.00    -0.018 A 
ATOM      3  C   UNL     1       3.576  -0.436  -6.103  0.00  0.00    +0.009 A 
ATOM      4  C   UNL     1       2.744   0.373  -6.853  0.00  0.00    +0.046 A 
ATOM      5  C   UNL     1       2.783   1.750  -6.686  0.00  0.00    +0.117 A 
ATOM      6  C   UNL     1       3.658   2.310  -5.766  0.00  0.00    +0.046 A 
ATOM      7  C   UNL     1       4.484   1.496  -5.016  0.00  0.00    +0.009 A 
BRANCH   5   8
ATOM      8  O   UNL     1       1.966   2.548  -7.422  0.00  0.00    -0.507 OA
ATOM      9  H   UNL     1       1.109   2.721  -7.010  0.00  0.00    +0.292 HD
ENDBRANCH   5   8
ENDBRANCH   1   2
BRANCH   1  11
ATOM     10  N   UNL     1       4.010  -0.535  -2.308  0.00  0.00    -0.308 N 
ATOM     11  C   UNL     1       5.209  -0.418  -2.912  0.00  0.00    +0.238 C 
ATOM     12  O   UNL     1       6.172  -0.037  -2.280  0.00  0.00    -0.273 OA
ATOM     13  H   UNL     1       3.240  -0.840  -2.813  0.00  0.00    +0.149 HD
BRANCH  10  14
ATOM     14  C   UNL     1       3.870  -0.202  -0.888  0.00  0.00    +0.030 C 
ATOM     15  C   UNL     1       4.422   1.203  -0.636  0.00  0.00    +0.031 C 
ATOM     16  C   UNL     1       4.649  -1.214  -0.047  0.00  0.00    +0.031 C 
BRANCH  14  17
ATOM     17  C   UNL     1       2.391  -0.245  -0.498  0.00  0.00    +0.031 C 
BRANCH  17  19
ATOM     18  C   UNL     1       1.297  -0.609  -2.714  0.00  0.00    +0.010 C 
ATOM     19  C   UNL     1       1.553   0.407  -1.600  0.00  0.00    -0.036 C 
ATOM     20  C   UNL     1       2.308   1.610  -2.170  0.00  0.00    +0.010 C 
ATOM     21  C   UNL     1       0.217   0.873  -1.017  0.00  0.00    +0.010 C 
ENDBRANCH  17  19
ENDBRANCH  14  17
ENDBRANCH  10  14
ENDBRANCH   1  11
BRANCH   1  22
ATOM     22  N   UNL     1       6.743  -0.552  -4.787  0.00  0.00    -0.285 N 
ATOM     23  C   UNL     1       7.412   0.719  -4.497  0.00  0.00    +0.133 C 
ATOM     24  C   UNL     1       7.406  -1.529  -5.437  0.00  0.00    +0.251 C 
ATOM     25  O   UNL     1       6.825  -2.546  -5.762  0.00  0.00    -0.270 OA
BRANCH  24  26
ATOM     26  C   UNL     1       8.838  -1.365  -5.753  0.00  0.00    +0.086 A 
ATOM     27  C   UNL     1       9.743  -1.013  -4.749  0.00  0.00    +0.049 A 
ATOM     28  C   UNL     1      11.079  -0.861  -5.051  0.00  0.00    +0.127 A 
ATOM     29  C   UNL     1      11.529  -1.055  -6.347  0.00  0.00    +0.036 A 
ATOM     30  C   UNL     1      10.645  -1.402  -7.349  0.00  0.00    +0.054 A 
ATOM     31  C   UNL     1       9.298  -1.565  -7.061  0.00  0.00    +0.191 A 
ATOM     32  O   UNL     1       8.429  -1.912  -8.044  0.00  0.00    -0.287 OA
BRANCH  28  33
ATOM     33  N   UNL     1      12.037  -0.488  -3.986  0.00  0.00    +0.056 N 
ATOM     34  O   UNL     1      11.648  -0.318  -2.855  0.00  0.00    -0.126 OA
ATOM     35  O   UNL     1      13.210  -0.354  -4.248  0.00  0.00    -0.126 OA
ENDBRANCH  28  33
ENDBRANCH  24  26
ENDBRANCH   1  22
TORSDOF 9
