REMARK  Name = ZINC39534205
REMARK  12 active torsions:
REMARK  status: ('A' for Active; 'I' for Inactive)
REMARK    1  A    between atoms: C_1  and  C_2
REMARK    2  A    between atoms: C_2  and  C_3
REMARK    3  A    between atoms: C_2  and  S_4
REMARK    4  A    between atoms: S_4  and  C_7
REMARK    5  A    between atoms: N_10  and  C_14
REMARK    6  A    between atoms: C_14  and  C_16
REMARK    7  A    between atoms: C_14  and  C_20
REMARK    8  A    between atoms: C_16  and  N_17
REMARK    9  A    between atoms: N_17  and  O_18
REMARK   10  A    between atoms: O_18  and  C_19
REMARK   11  A    between atoms: C_23  and  C_26
REMARK   12  A    between atoms: C_31  and  O_32
REMARK                            x       y       z     vdW  Elec       q    Type
REMARK                         _______ _______ _______ _____ _____    ______ ____
ROOT
ATOM      1  C   UNL     1       5.555  -0.022  -3.526  0.00  0.00    +0.103 C 
ENDROOT
BRANCH   1   4
ATOM      2  C   UNL     1       3.488   2.961  -2.514  0.00  0.00    +0.212 C 
ATOM      3  C   UNL     1       4.304   2.050  -3.435  0.00  0.00    +0.127 C 
ATOM      4  N   UNL     1       4.704   0.844  -2.698  0.00  0.00    -0.290 NA
ATOM      5  C   UNL     1       3.526   0.113  -2.210  0.00  0.00    +0.100 C 
ATOM      6  C   UNL     1       2.710   1.024  -1.290  0.00  0.00    +0.098 C 
ATOM      7  N   UNL     1       2.310   2.231  -2.026  0.00  0.00    -0.293 NA
ATOM      8  H   UNL     1       1.726   2.825  -1.458  0.00  0.00    +0.124 HD
BRANCH   2   9
ATOM      9  S   UNL     1       2.952   4.429  -3.435  0.00  0.00    -0.012 S 
ATOM     10  O   UNL     1       2.054   4.016  -4.457  0.00  0.00    -0.173 OA
ATOM     11  O   UNL     1       4.104   5.182  -3.790  0.00  0.00    -0.173 OA
BRANCH   9  13
ATOM     12  C   UNL     1       2.933   5.705  -1.016  0.00  0.00    +0.031 C 
ATOM     13  C   UNL     1       2.017   5.362  -2.192  0.00  0.00    +0.126 C 
ATOM     14  C   UNL     1       1.485   6.653  -2.817  0.00  0.00    +0.031 C 
ENDBRANCH   9  13
ENDBRANCH   2   9
ENDBRANCH   1   4
BRANCH   1  15
ATOM     15  C   UNL     1       6.958   0.526  -3.549  0.00  0.00    -0.029 A 
ATOM     16  C   UNL     1       7.212   1.792  -3.051  0.00  0.00    +0.006 A 
ATOM     17  C   UNL     1       8.495   2.299  -3.069  0.00  0.00    +0.009 A 
ATOM     18  C   UNL     1       9.537   1.534  -3.591  0.00  0.00    -0.014 A 
ATOM     19  C   UNL     1       9.275   0.259  -4.091  0.00  0.00    +0.009 A 
ATOM     20  C   UNL     1       7.989  -0.240  -4.062  0.00  0.00    +0.006 A 
BRANCH  18  21
ATOM     21  C   UNL     1      10.918   2.073  -3.614  0.00  0.00    +0.024 A 
ATOM     22  C   UNL     1      11.164   3.345  -4.128  0.00  0.00    +0.012 A 
ATOM     23  C   UNL     1      12.451   3.843  -4.147  0.00  0.00    +0.001 A 
ATOM     24  C   UNL     1      13.499   3.083  -3.658  0.00  0.00    +0.004 A 
ATOM     25  C   UNL     1      13.267   1.821  -3.147  0.00  0.00    +0.046 A 
ATOM     26  C   UNL     1      11.978   1.311  -3.116  0.00  0.00    +0.125 A 
BRANCH  26  27
ATOM     27  O   UNL     1      11.748   0.072  -2.608  0.00  0.00    -0.506 OA
ATOM     28  H   UNL     1      11.805  -0.638  -3.262  0.00  0.00    +0.292 HD
ENDBRANCH  26  27
ENDBRANCH  18  21
ENDBRANCH   1  15
BRANCH   1  29
ATOM     29  C   UNL     1       5.001  -0.067  -4.952  0.00  0.00    +0.134 C 
BRANCH  29  30
ATOM     30  N   UNL     1       3.619  -0.564  -4.926  0.00  0.00    -0.200 NA
ATOM     31  H   UNL     1       3.568  -1.465  -4.474  0.00  0.00    +0.154 HD
BRANCH  30  32
ATOM     32  O   UNL     1       3.057  -0.620  -6.275  0.00  0.00    -0.303 OA
ATOM     33  C   UNL     1       1.710  -1.097  -6.324  0.00  0.00    +0.221 C 
ENDBRANCH  30  32
ENDBRANCH  29  30
ENDBRANCH   1  29
TORSDOF 9
