REMARK  Name = ZINC39227822
REMARK  4 active torsions:
REMARK  status: ('A' for Active; 'I' for Inactive)
REMARK    1  A    between atoms: C_1  and  C_2
REMARK    2  A    between atoms: C_5  and  N_8
REMARK    3  A    between atoms: C_9  and  C_11
REMARK    4  A    between atoms: C_13  and  O_38
REMARK                            x       y       z     vdW  Elec       q    Type
REMARK                         _______ _______ _______ _____ _____    ______ ____
ROOT
ATOM      1  C   UNL     1      -1.941  -2.293   4.845  0.00  0.00    +0.107 C 
ATOM      2  C   UNL     1      -3.451  -2.264   4.596  0.00  0.00    +0.127 C 
ATOM      3  C   UNL     1      -4.173  -1.781   5.855  0.00  0.00    +0.032 C 
ATOM      4  C   UNL     1      -3.860  -2.720   7.024  0.00  0.00    +0.004 C 
ATOM      5  C   UNL     1      -2.350  -2.733   7.266  0.00  0.00    -0.024 C 
ATOM      6  C   UNL     1      -1.641  -3.240   6.008  0.00  0.00    +0.004 C 
ATOM      7  C   UNL     1      -0.134  -3.300   6.266  0.00  0.00    -0.005 C 
ATOM      8  C   UNL     1       0.120  -4.198   7.479  0.00  0.00    -0.020 C 
ATOM      9  C   UNL     1       1.599  -4.279   7.762  0.00  0.00    +0.006 A 
ATOM     10  H   UNL     1       2.503  -4.464   5.895  0.00  0.00    +0.166 HD
ATOM     11  C   UNL     1       2.105  -4.230   9.016  0.00  0.00    -0.022 A 
ATOM     12  C   UNL     1       3.542  -4.335   8.900  0.00  0.00    +0.003 A 
ATOM     13  C   UNL     1       4.575  -4.342   9.843  0.00  0.00    +0.010 A 
ATOM     14  C   UNL     1       5.855  -4.461   9.362  0.00  0.00    +0.001 A 
ATOM     15  C   UNL     1       6.126  -4.569   8.008  0.00  0.00    +0.002 A 
ATOM     16  C   UNL     1       5.124  -4.565   7.052  0.00  0.00    +0.026 A 
ATOM     17  C   UNL     1       3.814  -4.446   7.511  0.00  0.00    +0.047 A 
ATOM     18  N   UNL     1       2.616  -4.408   6.857  0.00  0.00    -0.359 N 
ATOM     19  C   UNL     1       1.250  -4.093  10.251  0.00  0.00    +0.019 C 
ATOM     20  C   UNL     1      -0.204  -4.395   9.859  0.00  0.00    -0.073 C 
ATOM     21  N   UNL     1      -0.557  -3.636   8.655  0.00  0.00    +0.386 N 
ATOM     22  C   UNL     1      -2.011  -3.653   8.440  0.00  0.00    -0.074 C 
ATOM     23  H   UNL     1      -0.260  -2.679   8.776  0.00  0.00    -0.081 HD
ENDROOT
BRANCH   1  25
ATOM     24  N   UNL     1      -1.358  -2.098   2.449  0.00  0.00    -0.312 N 
ATOM     25  C   UNL     1      -1.235  -2.779   3.606  0.00  0.00    +0.219 C 
ATOM     26  O   UNL     1      -0.557  -3.784   3.648  0.00  0.00    -0.275 OA
ATOM     27  H   UNL     1      -1.901  -1.294   2.415  0.00  0.00    +0.149 HD
BRANCH  24  32
ATOM     28  C   UNL     1      -0.019   1.526   0.010  0.00  0.00    +0.007 C 
ATOM     29  C   UNL     1       0.002  -0.004   0.002  0.00  0.00    -0.014 C 
ATOM     30  C   UNL     1      -1.433  -0.534   0.013  0.00  0.00    +0.005 C 
ATOM     31  C   UNL     1      -1.413  -2.063   0.004  0.00  0.00    +0.022 C 
ATOM     32  C   UNL     1      -0.673  -2.570   1.244  0.00  0.00    +0.073 C 
ATOM     33  C   UNL     1       0.763  -2.041   1.233  0.00  0.00    +0.022 C 
ATOM     34  C   UNL     1       0.742  -0.511   1.242  0.00  0.00    +0.005 C 
ENDBRANCH  24  32
ENDBRANCH   1  25
BRANCH   2  35
ATOM     35  O   UNL     1      -3.904  -3.578   4.265  0.00  0.00    -0.391 OA
ATOM     36  H   UNL     1      -4.854  -3.635   4.093  0.00  0.00    +0.210 HD
ENDBRANCH   2  35
TORSDOF 3
