REMARK  Name = ZINC25728373
REMARK  5 active torsions:
REMARK  status: ('A' for Active; 'I' for Inactive)
REMARK    1  A    between atoms: C_1  and  N_2
REMARK    2  A    between atoms: C_11  and  C_13
REMARK    3  A    between atoms: C_13  and  C_14
REMARK    4  A    between atoms: N_16  and  C_17
REMARK    5  A    between atoms: C_17  and  C_18
REMARK                            x       y       z     vdW  Elec       q    Type
REMARK                         _______ _______ _______ _____ _____    ______ ____
ROOT
ATOM      1  C   UNL     1      -2.331  -0.426   0.021  0.00  0.00    +0.227 C 
ATOM      2  O   UNL     1      -2.536   0.770   0.030  0.00  0.00    -0.275 OA
ATOM      3  N   UNL     1      -1.067  -0.892   0.007  0.00  0.00    -0.246 N 
ATOM      4  C   UNL     1       0.002  -0.004   0.002  0.00  0.00    +0.168 A 
ATOM      5  N   UNL     1       1.293  -0.263  -0.012  0.00  0.00    -0.229 NA
ATOM      6  C   UNL     1       2.210   0.702  -0.016  0.00  0.00    +0.054 A 
ATOM      7  C   UNL     1       1.734   1.975  -0.004  0.00  0.00    +0.014 A 
ATOM      8  S   UNL     1      -0.021   1.734   0.012  0.00  0.00    -0.057 S 
ATOM      9  C   UNL     1       2.517   3.244  -0.003  0.00  0.00    +0.044 C 
ATOM     10  C   UNL     1       3.976   2.909   0.349  0.00  0.00    +0.006 C 
ATOM     11  C   UNL     1       4.425   1.715  -0.497  0.00  0.00    +0.006 C 
ATOM     12  C   UNL     1       3.712   0.443  -0.033  0.00  0.00    +0.056 C 
ENDROOT
BRANCH   1  13
ATOM     13  C   UNL     1      -3.490  -1.389   0.027  0.00  0.00    +0.154 C 
BRANCH  13  24
ATOM     14  C   UNL     1      -5.818   2.913   0.072  0.00  0.00    +0.176 C 
ATOM     15  N   UNL     1      -5.929   1.452   0.065  0.00  0.00    -0.232 N 
ATOM     16  C   UNL     1      -7.155   0.888   0.073  0.00  0.00    +0.275 A 
ATOM     17  O   UNL     1      -8.157   1.580   0.086  0.00  0.00    -0.266 OA
ATOM     18  C   UNL     1      -7.257  -0.577   0.066  0.00  0.00    +0.050 A 
ATOM     19  C   UNL     1      -8.488  -1.232   0.074  0.00  0.00    +0.014 A 
ATOM     20  C   UNL     1      -8.521  -2.609   0.067  0.00  0.00    +0.001 A 
ATOM     21  C   UNL     1      -7.344  -3.347   0.053  0.00  0.00    +0.001 A 
ATOM     22  C   UNL     1      -6.126  -2.726   0.044  0.00  0.00    +0.010 A 
ATOM     23  C   UNL     1      -6.061  -1.331   0.045  0.00  0.00    +0.011 A 
ATOM     24  C   UNL     1      -4.785  -0.617   0.043  0.00  0.00    +0.078 A 
ATOM     25  N   UNL     1      -4.766   0.682   0.050  0.00  0.00    -0.172 NA
ENDBRANCH  13  24
ENDBRANCH   1  13
BRANCH   3  26
ATOM     26  C   UNL     1      -0.820  -2.336  -0.003  0.00  0.00    +0.142 C 
BRANCH  26  27
ATOM     27  C   UNL     1      -0.721  -2.839   1.414  0.00  0.00    -0.015 C 
ATOM     28  C   UNL     1      -1.493  -3.818   1.817  0.00  0.00    +0.005 C 
ENDBRANCH  26  27
ENDBRANCH   3  26
TORSDOF 4
