REMARK  Name = ZINC12296454
REMARK  10 active torsions:
REMARK  status: ('A' for Active; 'I' for Inactive)
REMARK    1  A    between atoms: C_1  and  C_2
REMARK    2  A    between atoms: C_6  and  O_30
REMARK    3  A    between atoms: C_12  and  C_13
REMARK    4  A    between atoms: C_13  and  C_14
REMARK    5  A    between atoms: C_14  and  C_15
REMARK    6  A    between atoms: N_17  and  C_18
REMARK    7  A    between atoms: C_18  and  C_19
REMARK    8  A    between atoms: O_30  and  C_31
REMARK    9  A    between atoms: C_31  and  C_32
REMARK   10  A    between atoms: C_32  and  C_34
REMARK                            x       y       z     vdW  Elec       q    Type
REMARK                         _______ _______ _______ _____ _____    ______ ____
ROOT
ATOM      1  C   UNL     1      -0.729   1.579   1.267  0.00  0.00    +0.052 C 
ENDROOT
BRANCH   1  13
ATOM      2  C   UNL     1      -1.444  -0.953   2.457  0.00  0.00    +0.045 C 
ATOM      3  C   UNL     1      -0.340  -0.112   3.044  0.00  0.00    -0.030 A 
ATOM      4  C   UNL     1       0.399  -0.559   4.226  0.00  0.00    +0.021 A 
ATOM      5  C   UNL     1       0.101  -1.780   4.843  0.00  0.00    +0.015 A 
ATOM      6  C   UNL     1       0.802  -2.171   5.947  0.00  0.00    +0.046 A 
ATOM      7  C   UNL     1       1.812  -1.362   6.465  0.00  0.00    +0.124 A 
ATOM      8  C   UNL     1       2.120  -0.151   5.867  0.00  0.00    +0.092 A 
ATOM      9  C   UNL     1       1.418   0.261   4.744  0.00  0.00    +0.143 A 
ATOM     10  O   UNL     1       1.703   1.438   4.146  0.00  0.00    -0.422 OA
ATOM     11  C   UNL     1       1.033   1.851   3.059  0.00  0.00    +0.341 A 
ATOM     12  O   UNL     1       1.324   2.920   2.553  0.00  0.00    -0.245 OA
ATOM     13  C   UNL     1       0.000   1.080   2.488  0.00  0.00    +0.041 A 
BRANCH   7  14
ATOM     14  O   UNL     1       2.500  -1.764   7.564  0.00  0.00    -0.488 OA
BRANCH  14  15
ATOM     15  C   UNL     1       2.134  -3.023   8.133  0.00  0.00    +0.259 C 
BRANCH  15  16
ATOM     16  C   UNL     1       2.998  -3.300   9.336  0.00  0.00    -0.043 C 
ATOM     17  C   UNL     1       3.912  -2.435   9.699  0.00  0.00    +0.011 C 
ATOM     18  C   UNL     1       2.811  -4.573  10.121  0.00  0.00    +0.042 C 
ENDBRANCH  15  16
ENDBRANCH  14  15
ENDBRANCH   7  14
ENDBRANCH   1  13
BRANCH   1  19
ATOM     19  C   UNL     1      -0.013   1.086   0.008  0.00  0.00    +0.100 C 
BRANCH  19  20
ATOM     20  C   UNL     1      -0.742   1.585  -1.213  0.00  0.00    +0.213 C 
ATOM     21  O   UNL     1      -1.736   2.268  -1.088  0.00  0.00    -0.276 OA
ATOM     22  N   UNL     1      -0.288   1.272  -2.443  0.00  0.00    -0.315 N 
ATOM     23  H   UNL     1       0.507   0.726  -2.543  0.00  0.00    +0.149 HD
BRANCH  22  24
ATOM     24  C   UNL     1      -0.997   1.758  -3.630  0.00  0.00    +0.106 C 
BRANCH  24  25
ATOM     25  C   UNL     1      -0.281   1.264  -4.889  0.00  0.00    -0.008 C 
ATOM     26  C   UNL     1       1.114   1.887  -4.957  0.00  0.00    +0.002 C 
ATOM     27  C   UNL     1       0.969   3.409  -5.054  0.00  0.00    -0.018 C 
ATOM     28  C   UNL     1       0.151   3.747  -6.300  0.00  0.00    -0.078 C 
ATOM     29  C   UNL     1      -1.091   1.666  -6.126  0.00  0.00    -0.064 C 
ATOM     30  C   UNL     1      -2.492   1.060  -5.995  0.00  0.00    -0.015 C 
ATOM     31  C   UNL     1      -3.351   1.474  -7.190  0.00  0.00    -0.003 C 
ATOM     32  C   UNL     1      -3.411   3.004  -7.245  0.00  0.00    -0.019 C 
ATOM     33  C   UNL     1      -1.989   3.550  -7.370  0.00  0.00    -0.078 C 
ATOM     34  N   UNL     1      -1.190   3.146  -6.197  0.00  0.00    +0.382 N 
ATOM     35  H   UNL     1      -1.648   3.489  -5.344  0.00  0.00    -0.081 HD
ENDBRANCH  24  25
ENDBRANCH  22  24
ENDBRANCH  19  20
ENDBRANCH   1  19
TORSDOF 8
