REMARK  Name = ZINC35843618
REMARK  6 active torsions:
REMARK  status: ('A' for Active; 'I' for Inactive)
REMARK    1  A    between atoms: C_1  and  N_2
REMARK    2  A    between atoms: N_2  and  C_3
REMARK    3  A    between atoms: N_2  and  C_11
REMARK    4  A    between atoms: C_3  and  C_4
REMARK    5  A    between atoms: C_11  and  C_12
REMARK    6  A    between atoms: C_18  and  C_20
REMARK                            x       y       z     vdW  Elec       q    Type
REMARK                         _______ _______ _______ _____ _____    ______ ____
ROOT
ATOM      1  C   UNL     1      -2.043  -0.130   1.309  0.00  0.00    +0.200 C 
ATOM      2  O   UNL     1      -1.430   0.504   2.142  0.00  0.00    -0.278 OA
ATOM      3  N   UNL     1      -3.320  -0.492   1.542  0.00  0.00    -0.286 N 
ATOM      4  C   UNL     1      -4.095  -1.260   0.572  0.00  0.00    +0.120 C 
ATOM      5  C   UNL     1      -5.606  -0.891   0.653  0.00  0.00    +0.090 C 
ATOM      6  S   UNL     1      -5.741  -0.711   2.489  0.00  0.00    -0.132 S 
ATOM      7  C   UNL     1      -4.015  -0.141   2.795  0.00  0.00    +0.164 C 
ENDROOT
BRANCH   7   8
ATOM      8  C   UNL     1      -3.409  -0.875   3.964  0.00  0.00    -0.017 A 
ATOM      9  C   UNL     1      -2.829  -2.116   3.775  0.00  0.00    +0.009 A 
ATOM     10  C   UNL     1      -2.273  -2.790   4.845  0.00  0.00    +0.039 A 
ATOM     11  C   UNL     1      -2.296  -2.222   6.108  0.00  0.00    +0.123 A 
ATOM     12  C   UNL     1      -2.877  -0.979   6.296  0.00  0.00    +0.039 A 
ATOM     13  C   UNL     1      -3.428  -0.305   5.223  0.00  0.00    +0.009 A 
ATOM     14  F   UNL     1      -1.753  -2.880   7.155  0.00  0.00    -0.205 F 
ENDBRANCH   7   8
BRANCH   1  15
ATOM     15  C   UNL     1      -1.376  -0.512   0.012  0.00  0.00    +0.019 C 
BRANCH  15  17
ATOM     16  C   UNL     1      -0.018   1.465   0.010  0.00  0.00    -0.095 C 
ATOM     17  N   UNL     1       0.002  -0.004   0.002  0.00  0.00    +0.386 N 
ATOM     18  H   UNL     1       0.490  -0.338   0.820  0.00  0.00    -0.081 HD
BRANCH  17  19
ATOM     19  C   UNL     1       0.690  -0.478  -1.207  0.00  0.00    -0.043 C 
BRANCH  19  20
ATOM     20  C   UNL     1       2.137  -0.060  -1.158  0.00  0.00    -0.064 A 
ATOM     21  C   UNL     1       2.523   1.157  -1.688  0.00  0.00    +0.003 A 
ATOM     22  C   UNL     1       3.850   1.541  -1.644  0.00  0.00    +0.015 A 
ATOM     23  C   UNL     1       4.792   0.708  -1.067  0.00  0.00    +0.018 A 
ATOM     24  C   UNL     1       4.405  -0.510  -0.537  0.00  0.00    +0.015 A 
ATOM     25  C   UNL     1       3.077  -0.891  -0.577  0.00  0.00    +0.003 A 
ATOM     26 BR   UNL     1       6.607   1.232  -1.006  0.00  0.00    -0.050 Br
ENDBRANCH  19  20
ENDBRANCH  17  19
ENDBRANCH  15  17
ENDBRANCH   1  15
TORSDOF 5
