REMARK  Name = ZINC40688764
REMARK  9 active torsions:
REMARK  status: ('A' for Active; 'I' for Inactive)
REMARK    1  A    between atoms: C_1  and  C_2
REMARK    2  A    between atoms: C_4  and  C_26
REMARK    3  A    between atoms: C_7  and  N_8
REMARK    4  A    between atoms: C_10  and  N_24
REMARK    5  A    between atoms: C_11  and  N_15
REMARK    6  A    between atoms: N_15  and  N_16
REMARK    7  A    between atoms: C_17  and  C_19
REMARK    8  A    between atoms: C_26  and  C_28
REMARK    9  A    between atoms: C_26  and  C_30
REMARK                            x       y       z     vdW  Elec       q    Type
REMARK                         _______ _______ _______ _____ _____    ______ ____
ROOT
ATOM      1  N   UNL     1      -0.460  -1.191   3.083  0.00  0.00    -0.298 N 
ATOM      2  C   UNL     1      -0.742  -2.056   4.134  0.00  0.00    +0.149 A 
ATOM      3  C   UNL     1      -0.920  -1.565   5.428  0.00  0.00    +0.107 A 
ATOM      4  C   UNL     1      -1.202  -2.478   6.446  0.00  0.00    +0.161 A 
ATOM      5  N   UNL     1      -1.290  -3.771   6.147  0.00  0.00    -0.217 NA
ATOM      6  C   UNL     1      -1.114  -4.194   4.911  0.00  0.00    +0.225 A 
ATOM      7  N   UNL     1      -0.852  -3.365   3.920  0.00  0.00    -0.219 NA
ATOM      8  H   UNL     1      -0.472  -0.232   3.228  0.00  0.00    +0.154 HD
ENDROOT
BRANCH   1  15
ATOM      9  C   UNL     1      -1.077   0.403   0.809  0.00  0.00    +0.045 C 
ATOM     10  C   UNL     1      -0.444  -0.958   0.680  0.00  0.00    -0.029 A 
ATOM     11  C   UNL     1      -0.140  -1.464  -0.569  0.00  0.00    +0.011 A 
ATOM     12  C   UNL     1       0.441  -2.712  -0.689  0.00  0.00    -0.008 A 
ATOM     13  C   UNL     1       0.722  -3.460   0.442  0.00  0.00    +0.047 A 
ATOM     14  C   UNL     1       0.420  -2.959   1.695  0.00  0.00    +0.043 A 
ATOM     15  C   UNL     1      -0.159  -1.702   1.817  0.00  0.00    +0.037 A 
ATOM     16 CL   UNL     1       1.452  -5.027   0.287  0.00  0.00    -0.083 Cl
BRANCH  12  17
ATOM     17  C   UNL     1       0.770  -3.261  -2.053  0.00  0.00    +0.153 C 
BRANCH  17  18
ATOM     18  C   UNL     1      -0.505  -3.493  -2.822  0.00  0.00    -0.026 A 
ATOM     19  C   UNL     1      -1.252  -2.416  -3.263  0.00  0.00    +0.006 A 
ATOM     20  C   UNL     1      -2.421  -2.628  -3.968  0.00  0.00    +0.020 A 
ATOM     21  C   UNL     1      -2.845  -3.918  -4.233  0.00  0.00    +0.041 A 
ATOM     22  C   UNL     1      -2.098  -4.995  -3.792  0.00  0.00    +0.020 A 
ATOM     23  C   UNL     1      -0.925  -4.782  -3.091  0.00  0.00    +0.006 A 
ATOM     24 CL   UNL     1      -4.314  -4.185  -5.118  0.00  0.00    -0.084 Cl
ENDBRANCH  17  18
BRANCH  17  25
ATOM     25  C   UNL     1       1.613  -2.297  -2.780  0.00  0.00    +0.075 C 
ATOM     26  N   UNL     1       2.263  -1.554  -3.340  0.00  0.00    -0.196 NA
ENDBRANCH  17  25
ENDBRANCH  12  17
ENDBRANCH   1  15
BRANCH   3  27
ATOM     27  N   UNL     1      -0.818  -0.191   5.699  0.00  0.00    -0.353 N 
ATOM     28  H   UNL     1      -0.621   0.431   4.981  0.00  0.00    +0.143 HD
ATOM     29  H   UNL     1      -0.944   0.136   6.603  0.00  0.00    +0.143 HD
ENDBRANCH   3  27
BRANCH   4  30
ATOM     30  N   UNL     1      -1.388  -2.042   7.753  0.00  0.00    -0.246 N 
ATOM     31  H   UNL     1      -1.322  -1.097   7.963  0.00  0.00    +0.172 HD
BRANCH  30  32
ATOM     32  N   UNL     1      -1.670  -2.967   8.767  0.00  0.00    -0.229 N 
ATOM     33  C   UNL     1      -1.851  -2.544  10.034  0.00  0.00    +0.295 C 
ATOM     34  O   UNL     1      -1.768  -1.359  10.297  0.00  0.00    -0.265 OA
ATOM     35  H   UNL     1      -1.736  -3.912   8.556  0.00  0.00    +0.173 HD
BRANCH  33  36
ATOM     36  C   UNL     1      -2.146  -3.513  11.095  0.00  0.00    +0.190 A 
ATOM     37  C   UNL     1      -2.355  -3.221  12.412  0.00  0.00    +0.054 A 
ATOM     38  C   UNL     1      -2.603  -4.440  13.061  0.00  0.00    +0.042 A 
ATOM     39  C   UNL     1      -2.534  -5.411  12.124  0.00  0.00    +0.196 A 
ATOM     40  O   UNL     1      -2.265  -4.848  10.939  0.00  0.00    -0.458 OA
ENDBRANCH  33  36
ENDBRANCH  30  32
ENDBRANCH   4  30
TORSDOF 8
