REMARK  Name = ZINC05068205
REMARK  5 active torsions:
REMARK  status: ('A' for Active; 'I' for Inactive)
REMARK    1  A    between atoms: C_3  and  C_6
REMARK    2  A    between atoms: C_6  and  N_7
REMARK    3  A    between atoms: C_11  and  N_22
REMARK    4  A    between atoms: C_12  and  N_14
REMARK    5  A    between atoms: N_14  and  C_15
REMARK                            x       y       z     vdW  Elec       q    Type
REMARK                         _______ _______ _______ _____ _____    ______ ____
ROOT
ATOM      1  N   UNL     1       4.150   1.046   1.338  0.00  0.00    -0.306 N 
ATOM      2  C   UNL     1       5.487   0.788   1.582  0.00  0.00    +0.219 A 
ATOM      3  N   UNL     1       6.299   0.570   0.558  0.00  0.00    -0.197 NA
ATOM      4  C   UNL     1       7.591   0.318   0.754  0.00  0.00    +0.154 A 
ATOM      5  C   UNL     1       8.085   0.285   2.056  0.00  0.00    +0.205 A 
ATOM      6  C   UNL     1       7.202   0.520   3.105  0.00  0.00    +0.160 A 
ATOM      7  N   UNL     1       5.923   0.770   2.832  0.00  0.00    -0.197 NA
ATOM      8  N   UNL     1       8.434   0.090  -0.322  0.00  0.00    -0.341 N 
ATOM      9  H   UNL     1       3.545   1.212   2.078  0.00  0.00    +0.149 HD
ATOM     10  H   UNL     1       8.083   0.113  -1.226  0.00  0.00    +0.144 HD
ATOM     11  H   UNL     1       9.374  -0.093  -0.172  0.00  0.00    +0.144 HD
ENDROOT
BRANCH   5  12
ATOM     12  N   UNL     1       9.515   0.008   2.317  0.00  0.00    +0.063 N 
ATOM     13  O   UNL     1      10.308   0.920   2.369  0.00  0.00    -0.126 OA
ATOM     14  O   UNL     1       9.891  -1.129   2.477  0.00  0.00    -0.126 OA
ENDBRANCH   5  12
BRANCH   6  15
ATOM     15  N   UNL     1       7.649   0.497   4.418  0.00  0.00    -0.297 N 
ATOM     16  H   UNL     1       8.595   0.401   4.607  0.00  0.00    +0.154 HD
BRANCH  15  17
ATOM     17  C   UNL     1       6.734   0.613   5.471  0.00  0.00    +0.033 A 
ATOM     18  C   UNL     1       5.471   0.046   5.360  0.00  0.00    +0.026 A 
ATOM     19  C   UNL     1       4.570   0.162   6.400  0.00  0.00    +0.040 A 
ATOM     20  C   UNL     1       4.924   0.843   7.552  0.00  0.00    +0.124 A 
ATOM     21  C   UNL     1       6.183   1.409   7.665  0.00  0.00    +0.040 A 
ATOM     22  C   UNL     1       7.090   1.290   6.630  0.00  0.00    +0.026 A 
ATOM     23  F   UNL     1       4.041   0.956   8.568  0.00  0.00    -0.205 F 
ENDBRANCH  15  17
ENDBRANCH   6  15
BRANCH   1  24
ATOM     24  C   UNL     1       3.647   1.070  -0.038  0.00  0.00    +0.178 C 
BRANCH  24  27
ATOM     25  C   UNL     1       0.216   2.415  -0.051  0.00  0.00    +0.041 A 
ATOM     26  C   UNL     1       1.618   2.597  -0.085  0.00  0.00    +0.046 A 
ATOM     27  C   UNL     1       2.171   1.372  -0.029  0.00  0.00    +0.122 A 
ATOM     28  O   UNL     1       1.184   0.463   0.036  0.00  0.00    -0.466 OA
ATOM     29  C   UNL     1      -0.004   1.090   0.023  0.00  0.00    +0.195 A 
ENDBRANCH  24  27
ENDBRANCH   1  24
TORSDOF 5
