REMARK  Name = ZINC37542680
REMARK  5 active torsions:
REMARK  status: ('A' for Active; 'I' for Inactive)
REMARK    1  A    between atoms: C_1  and  N_2
REMARK    2  A    between atoms: C_6  and  C_7
REMARK    3  A    between atoms: N_9  and  C_10
REMARK    4  A    between atoms: N_9  and  C_14
REMARK    5  A    between atoms: C_10  and  C_11
REMARK                            x       y       z     vdW  Elec       q    Type
REMARK                         _______ _______ _______ _____ _____    ______ ____
ROOT
ATOM      1  C   UNL     1      -0.206  -0.373   2.516  0.00  0.00    +0.264 C 
ATOM      2  O   UNL     1      -0.093  -1.174   3.425  0.00  0.00    -0.268 OA
ATOM      3  N   UNL     1      -0.394   0.933   2.788  0.00  0.00    -0.285 N 
ENDROOT
BRANCH   3   4
ATOM      4  C   UNL     1      -0.383   1.401   4.177  0.00  0.00    +0.073 C 
ATOM      5  C   UNL     1       0.970   1.074   4.816  0.00  0.00    +0.003 C 
ATOM      6  C   UNL     1       0.947   1.493   6.288  0.00  0.00    -0.081 C 
ATOM      7  N   UNL     1      -0.117   0.766   6.991  0.00  0.00    +0.379 N 
ATOM      8  C   UNL     1      -1.424   1.130   6.430  0.00  0.00    -0.081 C 
ATOM      9  C   UNL     1      -1.492   0.697   4.964  0.00  0.00    +0.003 C 
ATOM     10  H   UNL     1       0.029  -0.226   6.885  0.00  0.00    -0.086 HD
ATOM     11  H   UNL     1      -0.095   1.005   7.971  0.00  0.00    -0.086 HD
ENDBRANCH   3   4
BRANCH   1  17
ATOM     12  C   UNL     1       1.153  -2.969   1.511  0.00  0.00    +0.149 C 
ATOM     13  N   UNL     1       0.465  -1.982   0.674  0.00  0.00    -0.345 N 
ATOM     14  C   UNL     1       0.311  -2.056  -0.671  0.00  0.00    +0.101 A 
ATOM     15  C   UNL     1      -0.377  -0.968  -1.093  0.00  0.00    +0.036 A 
ATOM     16  C   UNL     1      -0.666  -0.182   0.027  0.00  0.00    +0.047 A 
ATOM     17  C   UNL     1      -0.139  -0.830   1.124  0.00  0.00    +0.105 A 
ATOM     18 BR   UNL     1      -0.861  -0.580  -2.880  0.00  0.00    -0.049 Br
ENDBRANCH   1  17
BRANCH   3  19
ATOM     19  C   UNL     1      -0.610   1.885   1.696  0.00  0.00    +0.203 C 
BRANCH  19  20
ATOM     20  C   UNL     1      -2.067   1.887   1.312  0.00  0.00    +0.228 C 
ATOM     21  O   UNL     1      -2.863   1.230   1.949  0.00  0.00    -0.274 OA
ATOM     22  N   UNL     1      -2.486   2.619   0.261  0.00  0.00    -0.328 N 
ATOM     23  H   UNL     1      -1.849   3.145  -0.249  0.00  0.00    +0.145 HD
ATOM     24  H   UNL     1      -3.424   2.621   0.014  0.00  0.00    +0.145 HD
ENDBRANCH  19  20
ENDBRANCH   3  19
TORSDOF 4
