REMARK  Name = ZINC37360280
REMARK  6 active torsions:
REMARK  status: ('A' for Active; 'I' for Inactive)
REMARK    1  A    between atoms: C_1  and  C_2
REMARK    2  A    between atoms: C_2  and  N_3
REMARK    3  A    between atoms: N_3  and  C_4
REMARK    4  A    between atoms: C_7  and  C_22
REMARK    5  A    between atoms: C_9  and  N_21
REMARK    6  A    between atoms: N_10  and  C_14
REMARK                            x       y       z     vdW  Elec       q    Type
REMARK                         _______ _______ _______ _____ _____    ______ ____
ROOT
ATOM      1  N   UNL     1      -1.637   0.263   0.118  0.00  0.00    -0.303 N 
ATOM      2  C   UNL     1      -2.457   0.370  -1.091  0.00  0.00    +0.132 C 
ATOM      3  C   UNL     1      -2.171  -0.289   1.269  0.00  0.00    +0.220 A 
ATOM      4  N   UNL     1      -3.430  -0.714   1.236  0.00  0.00    -0.214 NA
ATOM      5  C   UNL     1      -4.020  -1.255   2.295  0.00  0.00    +0.089 A 
ATOM      6  C   UNL     1      -3.273  -1.377   3.488  0.00  0.00    +0.086 A 
ATOM      7  C   UNL     1      -3.512  -1.866   4.766  0.00  0.00    +0.131 A 
ATOM      8  N   UNL     1      -2.382  -1.701   5.481  0.00  0.00    -0.216 N 
ATOM      9  N   UNL     1      -1.397  -1.107   4.684  0.00  0.00    -0.144 NA
ATOM     10  C   UNL     1      -1.881  -0.892   3.480  0.00  0.00    +0.189 A 
ATOM     11  N   UNL     1      -1.402  -0.368   2.336  0.00  0.00    -0.193 NA
ENDROOT
BRANCH   8  12
ATOM     12  C   UNL     1      -2.217  -2.071   6.821  0.00  0.00    +0.070 A 
ATOM     13  C   UNL     1      -3.281  -1.964   7.708  0.00  0.00    +0.028 A 
ATOM     14  C   UNL     1      -3.117  -2.329   9.030  0.00  0.00    +0.005 A 
ATOM     15  C   UNL     1      -1.895  -2.800   9.472  0.00  0.00    +0.038 A 
ATOM     16  C   UNL     1      -0.831  -2.908   8.592  0.00  0.00    +0.125 A 
ATOM     17  C   UNL     1      -0.992  -2.549   7.265  0.00  0.00    +0.066 A 
ATOM     18  F   UNL     1       0.362  -3.368   9.027  0.00  0.00    -0.205 F 
ENDBRANCH   8  12
BRANCH   5  19
ATOM     19  C   UNL     1      -5.424  -1.720   2.227  0.00  0.00    +0.003 A 
ATOM     20  C   UNL     1      -6.322  -1.387   3.242  0.00  0.00    +0.010 A 
ATOM     21  C   UNL     1      -7.629  -1.822   3.174  0.00  0.00    +0.002 A 
ATOM     22  C   UNL     1      -8.052  -2.588   2.102  0.00  0.00    +0.020 A 
ATOM     23  C   UNL     1      -7.166  -2.922   1.092  0.00  0.00    +0.042 A 
ATOM     24  C   UNL     1      -5.857  -2.487   1.146  0.00  0.00    +0.030 A 
ATOM     25 CL   UNL     1      -7.705  -3.884  -0.249  0.00  0.00    -0.084 Cl
ENDBRANCH   5  19
BRANCH   7  26
ATOM     26  N   UNL     1      -4.694  -2.419   5.222  0.00  0.00    -0.342 N 
ATOM     27  H   UNL     1      -5.402  -2.634   4.595  0.00  0.00    +0.144 HD
ATOM     28  H   UNL     1      -4.815  -2.592   6.169  0.00  0.00    +0.144 HD
ENDBRANCH   7  26
BRANCH   1  30
ATOM     29  C   UNL     1      -0.216   2.211   0.523  0.00  0.00    +0.024 C 
ATOM     30  C   UNL     1      -0.252   0.739   0.108  0.00  0.00    +0.104 C 
ENDBRANCH   1  30
TORSDOF 4
