REMARK  Name = ZINC39666580
REMARK  12 active torsions:
REMARK  status: ('A' for Active; 'I' for Inactive)
REMARK    1  A    between atoms: C_1  and  C_2
REMARK    2  A    between atoms: C_4  and  C_11
REMARK    3  A    between atoms: N_5  and  C_7
REMARK    4  A    between atoms: C_7  and  C_8
REMARK    5  A    between atoms: C_7  and  C_9
REMARK    6  A    between atoms: C_7  and  C_10
REMARK    7  A    between atoms: C_15  and  C_24
REMARK    8  A    between atoms: N_26  and  C_27
REMARK    9  A    between atoms: C_27  and  C_28
REMARK   10  A    between atoms: C_28  and  C_30
REMARK   11  A    between atoms: C_28  and  O_31
REMARK   12  A    between atoms: O_31  and  C_32
REMARK                            x       y       z     vdW  Elec       q    Type
REMARK                         _______ _______ _______ _____ _____    ______ ____
ROOT
ATOM      1  C   UNL     1      -0.455  -2.431  -0.233  0.00  0.00    +0.265 C 
ATOM      2  O   UNL     1      -0.453  -2.227  -1.432  0.00  0.00    -0.268 OA
ATOM      3  N   UNL     1      -0.324  -3.688   0.236  0.00  0.00    -0.295 N 
ATOM      4  C   UNL     1      -0.434  -4.149   1.640  0.00  0.00    +0.121 C 
ATOM      5  C   UNL     1      -1.183  -5.497   1.550  0.00  0.00    +0.100 C 
ATOM      6  C   UNL     1      -0.916  -6.000   0.122  0.00  0.00    -0.004 C 
ATOM      7  C   UNL     1      -0.043  -4.922  -0.536  0.00  0.00    +0.115 C 
ATOM      8  C   UNL     1      -2.229  -6.144  -0.642  0.00  0.00    -0.010 C 
ATOM      9  C   UNL     1      -1.943  -6.698  -2.040  0.00  0.00    -0.082 C 
ATOM     10  N   UNL     1      -1.276  -8.001  -1.925  0.00  0.00    +0.379 N 
ATOM     11  C   UNL     1       0.029  -7.839  -1.271  0.00  0.00    -0.082 C 
ATOM     12  C   UNL     1      -0.174  -7.332   0.159  0.00  0.00    -0.010 C 
ATOM     13  H   UNL     1      -1.850  -8.624  -1.377  0.00  0.00    -0.086 HD
ATOM     14  H   UNL     1      -1.143  -8.392  -2.845  0.00  0.00    -0.086 HD
ENDROOT
BRANCH   1  18
ATOM     15  C   UNL     1      -0.664   0.434   3.946  0.00  0.00    +0.067 C 
ATOM     16  C   UNL     1      -0.694  -0.043   2.517  0.00  0.00    +0.061 A 
ATOM     17  C   UNL     1      -0.468  -1.351   2.082  0.00  0.00    +0.057 A 
ATOM     18  C   UNL     1      -0.600  -1.306   0.705  0.00  0.00    +0.124 A 
ATOM     19  N   UNL     1      -0.891  -0.009   0.390  0.00  0.00    -0.254 N 
ATOM     20  N   UNL     1      -0.943   0.693   1.464  0.00  0.00    -0.175 NA
BRANCH  19  21
ATOM     21  C   UNL     1      -1.115   0.501  -0.964  0.00  0.00    +0.056 C 
ATOM     22  C   UNL     1      -2.221  -0.313  -1.639  0.00  0.00    +0.036 C 
ATOM     23  C   UNL     1      -1.536   1.971  -0.892  0.00  0.00    +0.036 C 
ATOM     24  C   UNL     1       0.176   0.379  -1.776  0.00  0.00    +0.036 C 
ENDBRANCH  19  21
ENDBRANCH   1  18
BRANCH   5  25
ATOM     25  C   UNL     1      -2.660  -5.294   1.770  0.00  0.00    +0.218 C 
ATOM     26  O   UNL     1      -3.188  -4.259   1.422  0.00  0.00    -0.275 OA
ATOM     27  N   UNL     1      -3.394  -6.261   2.354  0.00  0.00    -0.312 N 
ATOM     28  H   UNL     1      -2.960  -7.054   2.706  0.00  0.00    +0.149 HD
BRANCH  27  29
ATOM     29  C   UNL     1      -4.848  -6.116   2.457  0.00  0.00    +0.148 C 
BRANCH  29  30
ATOM     30  C   UNL     1      -5.435  -7.344   3.156  0.00  0.00    +0.187 C 
ATOM     31  C   UNL     1      -6.962  -7.251   3.153  0.00  0.00    +0.053 C 
BRANCH  30  32
ATOM     32  O   UNL     1      -4.964  -7.396   4.504  0.00  0.00    -0.486 OA
BRANCH  32  33
ATOM     33  C   UNL     1      -4.952  -8.614   5.107  0.00  0.00    +0.139 A 
ATOM     34  C   UNL     1      -5.463  -9.722   4.446  0.00  0.00    +0.047 A 
ATOM     35  C   UNL     1      -5.449 -10.959   5.061  0.00  0.00    +0.004 A 
ATOM     36  C   UNL     1      -4.928 -11.094   6.335  0.00  0.00    +0.002 A 
ATOM     37  C   UNL     1      -4.419  -9.992   6.997  0.00  0.00    +0.023 A 
ATOM     38  C   UNL     1      -4.425  -8.753   6.384  0.00  0.00    +0.083 A 
ATOM     39 CL   UNL     1      -3.779  -7.370   7.212  0.00  0.00    -0.080 Cl
ENDBRANCH  32  33
ENDBRANCH  30  32
ENDBRANCH  29  30
ENDBRANCH  27  29
ENDBRANCH   5  25
TORSDOF 7
