REMARK  Name = ZINC43641951
REMARK  5 active torsions:
REMARK  status: ('A' for Active; 'I' for Inactive)
REMARK    1  A    between atoms: C_1  and  S_2
REMARK    2  A    between atoms: S_2  and  C_3
REMARK    3  A    between atoms: C_8  and  N_9
REMARK    4  A    between atoms: N_17  and  C_19
REMARK    5  A    between atoms: C_19  and  C_20
REMARK                            x       y       z     vdW  Elec       q    Type
REMARK                         _______ _______ _______ _____ _____    ______ ____
ROOT
ATOM      1  N   UNL     1      -1.087  -2.797  -0.002  0.00  0.00    -0.270 N 
ATOM      2  C   UNL     1      -0.465  -3.433   1.196  0.00  0.00    +0.064 C 
ATOM      3  C   UNL     1       1.004  -3.638   0.673  0.00  0.00    +0.015 C 
ATOM      4  C   UNL     1       0.520  -4.367  -0.632  0.00  0.00    +0.022 C 
ATOM      5  C   UNL     1      -0.537  -3.360  -1.108  0.00  0.00    +0.207 C 
ATOM      6  O   UNL     1      -0.827  -3.112  -2.260  0.00  0.00    -0.277 OA
ATOM      7  N   UNL     1      -0.271  -5.498  -0.050  0.00  0.00    +0.392 N 
ATOM      8  C   UNL     1      -0.988  -4.903   1.149  0.00  0.00    -0.054 C 
ATOM      9  H   UNL     1       0.345  -6.250   0.222  0.00  0.00    -0.080 HD
ENDROOT
BRANCH   1  15
ATOM     10  C   UNL     1      -1.702  -0.454   0.016  0.00  0.00    +0.029 A 
ATOM     11  C   UNL     1      -2.681   0.530   0.025  0.00  0.00    +0.016 A 
ATOM     12  C   UNL     1      -4.016   0.175   0.035  0.00  0.00    +0.001 A 
ATOM     13  C   UNL     1      -4.381  -1.159   0.037  0.00  0.00    +0.002 A 
ATOM     14  C   UNL     1      -3.413  -2.146   0.028  0.00  0.00    +0.024 A 
ATOM     15  C   UNL     1      -2.070  -1.799   0.012  0.00  0.00    +0.050 A 
BRANCH  10  17
ATOM     16  C   UNL     1      -0.022   1.810   0.012  0.00  0.00    +0.090 C 
ATOM     17  S   UNL     1       0.002  -0.004   0.002  0.00  0.00    -0.127 S 
ENDBRANCH  10  17
ENDBRANCH   1  15
BRANCH   7  18
ATOM     18  C   UNL     1      -1.263  -5.978  -1.021  0.00  0.00    -0.023 C 
BRANCH  18  19
ATOM     19  C   UNL     1      -1.963  -7.191  -0.466  0.00  0.00    +0.009 A 
ATOM     20  C   UNL     1      -3.139  -7.193   0.194  0.00  0.00    +0.021 A 
ATOM     21  C   UNL     1      -3.430  -8.530   0.535  0.00  0.00    +0.020 A 
ATOM     22  C   UNL     1      -2.422  -9.295   0.072  0.00  0.00    +0.093 A 
ATOM     23  N   UNL     1      -1.519  -8.481  -0.550  0.00  0.00    -0.307 N 
ATOM     24  C   UNL     1      -0.335  -8.897  -1.168  0.00  0.00    +0.138 A 
ATOM     25  C   UNL     1      -0.006 -10.247  -1.185  0.00  0.00    +0.048 A 
ATOM     26  C   UNL     1       1.168 -10.646  -1.799  0.00  0.00    +0.025 A 
ATOM     27  C   UNL     1       1.976  -9.675  -2.377  0.00  0.00    +0.059 A 
ATOM     28  C   UNL     1       1.586  -8.351  -2.322  0.00  0.00    +0.133 A 
ATOM     29  N   UNL     1       0.458  -8.002  -1.734  0.00  0.00    -0.236 NA
ATOM     30 CL   UNL     1       3.460 -10.121  -3.160  0.00  0.00    -0.082 Cl
ENDBRANCH  18  19
ENDBRANCH   7  18
TORSDOF 4
