REMARK  Name = ZINC55695000
REMARK  11 active torsions:
REMARK  status: ('A' for Active; 'I' for Inactive)
REMARK    1  A    between atoms: C_1  and  C_2
REMARK    2  A    between atoms: C_7  and  O_8
REMARK    3  A    between atoms: O_8  and  C_9
REMARK    4  A    between atoms: C_9  and  C_10
REMARK    5  A    between atoms: C_10  and  C_11
REMARK    6  A    between atoms: C_10  and  N_12
REMARK    7  A    between atoms: C_13  and  C_15
REMARK    8  A    between atoms: C_17  and  S_22
REMARK    9  A    between atoms: C_20  and  C_21
REMARK   10  A    between atoms: S_22  and  N_25
REMARK   11  A    between atoms: N_25  and  C_26
REMARK                            x       y       z     vdW  Elec       q    Type
REMARK                         _______ _______ _______ _____ _____    ______ ____
ROOT
ATOM      1  N   UNL     1       1.686   0.319   5.006  0.00  0.00    -0.306 N 
ATOM      2  C   UNL     1       2.050   0.977   6.125  0.00  0.00    +0.245 C 
ATOM      3  O   UNL     1       1.470   0.763   7.172  0.00  0.00    -0.270 OA
ATOM      4  H   UNL     1       2.148   0.490   4.171  0.00  0.00    +0.149 HD
ENDROOT
BRANCH   2   5
ATOM      5  C   UNL     1       3.153   1.960   6.078  0.00  0.00    +0.041 A 
ATOM      6  C   UNL     1       3.905   2.115   4.912  0.00  0.00    +0.041 A 
ATOM      7  C   UNL     1       4.933   3.034   4.875  0.00  0.00    +0.106 A 
ATOM      8  C   UNL     1       5.220   3.801   5.991  0.00  0.00    +0.029 A 
ATOM      9  C   UNL     1       4.478   3.653   7.149  0.00  0.00    +0.006 A 
ATOM     10  C   UNL     1       3.443   2.741   7.197  0.00  0.00    -0.038 A 
ATOM     11  C   UNL     1       2.633   2.585   8.458  0.00  0.00    +0.044 C 
BRANCH   7  12
ATOM     12  S   UNL     1       5.884   3.230   3.405  0.00  0.00    +0.058 S 
ATOM     13  O   UNL     1       7.139   3.767   3.802  0.00  0.00    -0.153 OA
ATOM     14  O   UNL     1       5.771   2.012   2.682  0.00  0.00    -0.153 OA
BRANCH  12  15
ATOM     15  N   UNL     1       5.139   4.394   2.492  0.00  0.00    -0.193 NA
ATOM     16  C   UNL     1       5.063   5.772   2.982  0.00  0.00    +0.127 C 
ATOM     17  H   UNL     1       4.752   4.162   1.633  0.00  0.00    +0.148 HD
ENDBRANCH  12  15
ENDBRANCH   7  12
ENDBRANCH   2   5
BRANCH   1  18
ATOM     18  C   UNL     1       0.592  -0.655   5.053  0.00  0.00    +0.108 C 
ATOM     19  C   UNL     1      -0.744   0.071   4.884  0.00  0.00    +0.031 C 
BRANCH  18  20
ATOM     20  C   UNL     1       0.766  -1.671   3.922  0.00  0.00    +0.251 C 
BRANCH  20  21
ATOM     21  O   UNL     1       0.631  -1.011   2.663  0.00  0.00    -0.490 OA
BRANCH  21  28
ATOM     22  C   UNL     1       0.367   0.276   0.162  0.00  0.00    +0.047 C 
ATOM     23  C   UNL     1       0.640  -1.201   0.291  0.00  0.00    -0.009 A 
ATOM     24  C   UNL     1       0.778  -1.980  -0.841  0.00  0.00    +0.007 A 
ATOM     25  C   UNL     1       1.028  -3.335  -0.723  0.00  0.00    +0.000 A 
ATOM     26  C   UNL     1       1.141  -3.913   0.528  0.00  0.00    +0.004 A 
ATOM     27  C   UNL     1       1.006  -3.138   1.663  0.00  0.00    +0.046 A 
ATOM     28  C   UNL     1       0.760  -1.777   1.547  0.00  0.00    +0.123 A 
ENDBRANCH  21  28
ENDBRANCH  20  21
ENDBRANCH  18  20
ENDBRANCH   1  18
TORSDOF 7
