REMARK  Name = ZINC03350647
REMARK  13 active torsions:
REMARK  status: ('A' for Active; 'I' for Inactive)
REMARK    1  A    between atoms: C_1  and  C_2
REMARK    2  A    between atoms: C_2  and  O_3
REMARK    3  A    between atoms: O_3  and  C_4
REMARK    4  A    between atoms: C_9  and  N_10
REMARK    5  A    between atoms: C_15  and  C_17
REMARK    6  A    between atoms: C_15  and  C_18
REMARK    7  A    between atoms: C_15  and  N_72
REMARK    8  A    between atoms: N_20  and  C_21
REMARK    9  A    between atoms: C_22  and  C_32
REMARK   10  A    between atoms: C_27  and  C_31
REMARK   11  A    between atoms: C_32  and  O_34
REMARK   12  A    between atoms: O_34  and  C_35
REMARK   13  A    between atoms: C_35  and  C_36
REMARK                            x       y       z     vdW  Elec       q    Type
REMARK                         _______ _______ _______ _____ _____    ______ ____
ROOT
ATOM      1  C   UNL     1      -0.935   1.475  -3.601  0.00  0.00    +0.204 C 
ATOM      2  O   UNL     1      -1.885   2.213  -3.450  0.00  0.00    -0.277 OA
ATOM      3  N   UNL     1      -0.617   1.029  -4.832  0.00  0.00    -0.281 N 
ATOM      4  H   UNL     1       0.143   0.439  -4.953  0.00  0.00    +0.155 HD
ENDROOT
BRANCH   3   5
ATOM      5  C   UNL     1      -1.376   1.414  -5.926  0.00  0.00    +0.086 A 
ATOM      6  C   UNL     1      -1.206   1.068  -7.260  0.00  0.00    +0.091 A 
ATOM      7  C   UNL     1      -2.153   1.609  -8.220  0.00  0.00    -0.021 A 
ATOM      8  C   UNL     1      -3.106   2.411  -7.699  0.00  0.00    -0.004 A 
ATOM      9  S   UNL     1      -2.765   2.449  -5.962  0.00  0.00    -0.077 S 
ATOM     10  C   UNL     1      -4.205   3.108  -8.440  0.00  0.00    +0.046 C 
ATOM     11  C   UNL     1      -4.321   2.480  -9.836  0.00  0.00    -0.009 C 
ATOM     12  C   UNL     1      -2.921   2.383 -10.450  0.00  0.00    +0.008 C 
ATOM     13  C   UNL     1      -2.103   1.319  -9.715  0.00  0.00    +0.037 C 
ATOM     14  C   UNL     1      -5.209   3.356 -10.721  0.00  0.00    +0.008 C 
BRANCH   6  15
ATOM     15  C   UNL     1      -0.114   0.188  -7.683  0.00  0.00    +0.342 C 
ATOM     16  O   UNL     1      -0.283  -1.016  -7.721  0.00  0.00    -0.245 OA
BRANCH  15  17
ATOM     17  O   UNL     1       1.079   0.713  -8.030  0.00  0.00    -0.461 OA
BRANCH  17  18
ATOM     18  C   UNL     1       2.115  -0.218  -8.439  0.00  0.00    +0.229 C 
ATOM     19  C   UNL     1       3.387   0.556  -8.792  0.00  0.00    +0.048 C 
ENDBRANCH  17  18
ENDBRANCH  15  17
ENDBRANCH   6  15
ENDBRANCH   3   5
BRANCH   1  20
ATOM     20  C   UNL     1      -0.109   1.057  -2.412  0.00  0.00    +0.017 C 
ATOM     21  C   UNL     1      -0.412  -0.403  -2.068  0.00  0.00    -0.004 C 
BRANCH  20  27
ATOM     22  N   UNL     1      -1.083   2.434   1.461  0.00  0.00    -0.331 N 
ATOM     23  C   UNL     1      -2.108   2.542   0.414  0.00  0.00    +0.086 C 
ATOM     24  C   UNL     1      -1.769   1.582  -0.729  0.00  0.00    -0.059 C 
ATOM     25  C   UNL     1       0.586   1.801  -0.214  0.00  0.00    -0.059 C 
ATOM     26  C   UNL     1       0.247   2.761   0.929  0.00  0.00    +0.086 C 
ATOM     27  N   UNL     1      -0.440   1.936  -1.270  0.00  0.00    +0.389 N 
ATOM     28  H   UNL     1      -0.460   2.910  -1.594  0.00  0.00    -0.081 HD
BRANCH  22  34
ATOM     29  C   UNL     1      -1.658   2.672   3.800  0.00  0.00    +0.141 A 
ATOM     30  C   UNL     1      -1.969   3.481   4.880  0.00  0.00    +0.047 A 
ATOM     31  C   UNL     1      -2.021   4.854   4.725  0.00  0.00    +0.004 A 
ATOM     32  C   UNL     1      -1.763   5.424   3.492  0.00  0.00    +0.002 A 
ATOM     33  C   UNL     1      -1.447   4.625   2.410  0.00  0.00    +0.027 A 
ATOM     34  C   UNL     1      -1.398   3.246   2.557  0.00  0.00    +0.072 A 
BRANCH  29  35
ATOM     35  O   UNL     1      -1.606   1.322   3.951  0.00  0.00    -0.490 OA
BRANCH  35  37
ATOM     36  C   UNL     1      -1.777  -0.722   5.230  0.00  0.00    +0.048 C 
ATOM     37  C   UNL     1      -1.883   0.804   5.254  0.00  0.00    +0.226 C 
ENDBRANCH  35  37
ENDBRANCH  29  35
ENDBRANCH  22  34
ENDBRANCH  20  27
ENDBRANCH   1  20
TORSDOF 9
