REMARK  Name = ZINC04236578
REMARK  15 active torsions:
REMARK  status: ('A' for Active; 'I' for Inactive)
REMARK    1  A    between atoms: C_1  and  C_2
REMARK    2  A    between atoms: C_5  and  O_33
REMARK    3  A    between atoms: C_7  and  C_30
REMARK    4  A    between atoms: C_7  and  C_31
REMARK    5  A    between atoms: C_12  and  O_29
REMARK    6  A    between atoms: C_14  and  C_16
REMARK    7  A    between atoms: C_16  and  C_17
REMARK    8  A    between atoms: N_19  and  C_20
REMARK    9  A    between atoms: C_20  and  C_21
REMARK   10  A    between atoms: C_26  and  O_27
REMARK   11  A    between atoms: O_27  and  C_28
REMARK   12  A    between atoms: C_31  and  O_32
REMARK   13  A    between atoms: O_33  and  C_34
REMARK   14  A    between atoms: N_36  and  C_37
REMARK   15  A    between atoms: C_37  and  C_38
REMARK                            x       y       z     vdW  Elec       q    Type
REMARK                         _______ _______ _______ _____ _____    ______ ____
ROOT
ATOM      1  C   UNL     1      -2.594  -2.304  -1.393  0.00  0.00    +0.012 C 
ATOM      2  C   UNL     1      -1.331  -2.801  -0.687  0.00  0.00    -0.023 C 
ATOM      3  C   UNL     1      -0.097  -2.227  -1.385  0.00  0.00    +0.011 C 
ATOM      4  C   UNL     1      -0.144  -0.698  -1.329  0.00  0.00    +0.046 C 
ATOM      5  C   UNL     1      -0.164  -0.242   0.131  0.00  0.00    +0.186 C 
ATOM      6  C   UNL     1      -1.398  -0.816   0.829  0.00  0.00    +0.031 C 
ATOM      7  C   UNL     1      -1.350  -2.345   0.773  0.00  0.00    +0.007 C 
ATOM      8  C   UNL     1      -2.585  -2.919   1.471  0.00  0.00    +0.007 C 
ATOM      9  C   UNL     1      -2.537  -4.447   1.416  0.00  0.00    +0.032 C 
ATOM     10  C   UNL     1      -2.517  -4.904  -0.044  0.00  0.00    +0.119 C 
ATOM     11  C   UNL     1      -1.283  -4.330  -0.742  0.00  0.00    +0.032 C 
ATOM     12  C   UNL     1      -1.417  -0.359   2.289  0.00  0.00    +0.017 C 
ENDROOT
BRANCH  10  13
ATOM     13  O   UNL     1      -3.697  -4.440  -0.704  0.00  0.00    -0.391 OA
ATOM     14  H   UNL     1      -4.520  -4.766  -0.315  0.00  0.00    +0.210 HD
ENDBRANCH  10  13
BRANCH  11  15
ATOM     15  C   UNL     1      -1.264  -4.786  -2.203  0.00  0.00    +0.102 C 
BRANCH  15  16
ATOM     16  C   UNL     1      -1.093  -6.282  -2.259  0.00  0.00    +0.214 C 
ATOM     17  O   UNL     1      -0.996  -6.921  -1.232  0.00  0.00    -0.276 OA
ATOM     18  N   UNL     1      -1.048  -6.912  -3.450  0.00  0.00    -0.311 N 
ATOM     19  H   UNL     1      -1.125  -6.401  -4.271  0.00  0.00    +0.149 HD
BRANCH  18  20
ATOM     20  C   UNL     1      -0.882  -8.366  -3.504  0.00  0.00    +0.143 C 
BRANCH  20  21
ATOM     21  C   UNL     1      -0.863  -8.816  -4.942  0.00  0.00    +0.011 A 
ATOM     22  C   UNL     1      -1.998  -9.359  -5.512  0.00  0.00    +0.009 A 
ATOM     23  C   UNL     1      -1.983  -9.768  -6.832  0.00  0.00    +0.001 A 
ATOM     24  C   UNL     1      -0.829  -9.644  -7.584  0.00  0.00    +0.004 A 
ATOM     25  C   UNL     1       0.311  -9.106  -7.017  0.00  0.00    +0.046 A 
ATOM     26  C   UNL     1       0.296  -8.691  -5.694  0.00  0.00    +0.125 A 
BRANCH  26  27
ATOM     27  O   UNL     1       1.416  -8.162  -5.134  0.00  0.00    -0.495 OA
ATOM     28  C   UNL     1       2.573  -8.063  -5.967  0.00  0.00    +0.277 C 
ENDBRANCH  26  27
ENDBRANCH  20  21
ENDBRANCH  18  20
ENDBRANCH  15  16
ENDBRANCH  11  15
BRANCH   6  29
ATOM     29  C   UNL     1      -2.661  -0.319   0.122  0.00  0.00    +0.166 C 
BRANCH  29  30
ATOM     30  O   UNL     1      -2.809   1.085   0.343  0.00  0.00    -0.394 OA
ATOM     31  H   UNL     1      -3.591   1.469  -0.078  0.00  0.00    +0.209 HD
ENDBRANCH  29  30
ENDBRANCH   6  29
BRANCH   5  32
ATOM     32  O   UNL     1      -0.209   1.209   0.184  0.00  0.00    -0.446 OA
BRANCH  32  33
ATOM     33  C   UNL     1       0.971   1.857   0.210  0.00  0.00    +0.401 C 
ATOM     34  O   UNL     1       2.010   1.227   0.190  0.00  0.00    -0.226 OA
ATOM     35  N   UNL     1       0.999   3.203   0.260  0.00  0.00    -0.278 N 
ATOM     36  H   UNL     1       0.170   3.706   0.276  0.00  0.00    +0.152 HD
BRANCH  35  37
ATOM     37  C   UNL     1       2.283   3.908   0.288  0.00  0.00    +0.134 C 
BRANCH  37  38
ATOM     38  C   UNL     1       2.039   5.394   0.342  0.00  0.00    -0.016 C 
ATOM     39  C   UNL     1       2.573   6.112   1.300  0.00  0.00    +0.005 C 
ENDBRANCH  37  38
ENDBRANCH  35  37
ENDBRANCH  32  33
ENDBRANCH   5  32
TORSDOF 12
