REMARK  Name = ZINC08648578
REMARK  8 active torsions:
REMARK  status: ('A' for Active; 'I' for Inactive)
REMARK    1  A    between atoms: C_4  and  C_7
REMARK    2  A    between atoms: C_7  and  C_8
REMARK    3  A    between atoms: C_7  and  N_14
REMARK    4  A    between atoms: C_16  and  S_18
REMARK    5  A    between atoms: S_18  and  C_19
REMARK    6  A    between atoms: C_19  and  C_20
REMARK    7  A    between atoms: N_22  and  N_23
REMARK    8  A    between atoms: C_24  and  C_25
REMARK                            x       y       z     vdW  Elec       q    Type
REMARK                         _______ _______ _______ _____ _____    ______ ____
ROOT
ATOM      1  N   UNL     1       3.611  -1.868  -0.933  0.00  0.00    +0.388 N 
ATOM      2  C   UNL     1       4.918  -2.347  -1.419  0.00  0.00    -0.065 C 
ATOM      3  C   UNL     1       4.253  -2.613  -2.777  0.00  0.00    +0.014 C 
ATOM      4  C   UNL     1       3.287  -1.508  -2.326  0.00  0.00    -0.065 C 
ATOM      5  H   UNL     1       3.027  -2.602  -0.561  0.00  0.00    -0.080 HD
ENDROOT
BRANCH   1   6
ATOM      6  C   UNL     1       3.711  -0.707  -0.038  0.00  0.00    -0.007 C 
BRANCH   6  10
ATOM      7  C   UNL     1      -0.017   1.378   0.010  0.00  0.00    +0.000 A 
ATOM      8  C   UNL     1       1.171   2.086   0.002  0.00  0.00    +0.000 A 
ATOM      9  C   UNL     1       2.377   1.411  -0.013  0.00  0.00    +0.002 A 
ATOM     10  C   UNL     1       2.396   0.029  -0.020  0.00  0.00    -0.057 A 
ATOM     11  C   UNL     1       1.208  -0.679  -0.012  0.00  0.00    +0.002 A 
ATOM     12  C   UNL     1       0.002  -0.004   0.002  0.00  0.00    +0.000 A 
ENDBRANCH   6  10
BRANCH   6  13
ATOM     13  C   UNL     1       4.044  -1.175   1.356  0.00  0.00    -0.057 A 
ATOM     14  C   UNL     1       3.455  -2.320   1.860  0.00  0.00    +0.002 A 
ATOM     15  C   UNL     1       3.760  -2.748   3.138  0.00  0.00    +0.000 A 
ATOM     16  C   UNL     1       4.654  -2.033   3.912  0.00  0.00    +0.000 A 
ATOM     17  C   UNL     1       5.243  -0.888   3.408  0.00  0.00    +0.000 A 
ATOM     18  C   UNL     1       4.941  -0.462   2.128  0.00  0.00    +0.002 A 
ENDBRANCH   6  13
ENDBRANCH   1   6
BRANCH   3  19
ATOM     19  S   UNL     1       5.276  -2.166  -4.206  0.00  0.00    -0.152 S 
BRANCH  19  20
ATOM     20  C   UNL     1       4.306  -2.726  -5.633  0.00  0.00    +0.166 C 
BRANCH  20  21
ATOM     21  C   UNL     1       5.053  -2.411  -6.904  0.00  0.00    +0.242 C 
ATOM     22  O   UNL     1       6.134  -1.863  -6.851  0.00  0.00    -0.273 OA
ATOM     23  N   UNL     1       4.521  -2.738  -8.098  0.00  0.00    -0.206 N 
ATOM     24  H   UNL     1       3.656  -3.176  -8.139  0.00  0.00    +0.177 HD
BRANCH  23  25
ATOM     25  N   UNL     1       5.215  -2.445  -9.278  0.00  0.00    -0.188 NA
ATOM     26  C   UNL     1       4.702  -2.760 -10.428  0.00  0.00    +0.139 C 
BRANCH  26  27
ATOM     27  C   UNL     1       5.433  -2.452 -11.671  0.00  0.00    +0.013 A 
ATOM     28  C   UNL     1       4.881  -2.785 -12.911  0.00  0.00    +0.012 A 
ATOM     29  C   UNL     1       5.570  -2.494 -14.069  0.00  0.00    +0.021 A 
ATOM     30  C   UNL     1       6.807  -1.873 -14.007  0.00  0.00    +0.042 A 
ATOM     31  C   UNL     1       7.360  -1.540 -12.782  0.00  0.00    +0.040 A 
ATOM     32  C   UNL     1       6.679  -1.821 -11.614  0.00  0.00    +0.051 A 
ATOM     33 CL   UNL     1       7.371  -1.397 -10.080  0.00  0.00    -0.083 Cl
ATOM     34 CL   UNL     1       7.667  -1.512 -15.470  0.00  0.00    -0.083 Cl
ENDBRANCH  26  27
ENDBRANCH  23  25
ENDBRANCH  20  21
ENDBRANCH  19  20
ENDBRANCH   3  19
TORSDOF 8
