REMARK  Name = ZINC12048965
REMARK  8 active torsions:
REMARK  status: ('A' for Active; 'I' for Inactive)
REMARK    1  A    between atoms: C_1  and  C_2
REMARK    2  A    between atoms: N_5  and  C_7
REMARK    3  A    between atoms: C_7  and  C_8
REMARK    4  A    between atoms: N_10  and  C_11
REMARK    5  A    between atoms: C_11  and  C_12
REMARK    6  A    between atoms: C_19  and  C_22
REMARK    7  A    between atoms: C_26  and  S_28
REMARK    8  A    between atoms: S_28  and  C_29
REMARK                            x       y       z     vdW  Elec       q    Type
REMARK                         _______ _______ _______ _____ _____    ______ ____
ROOT
ATOM      1  C   UNL     1       4.575   0.879  -0.470  0.00  0.00    +0.195 C 
ATOM      2  C   UNL     1       3.847  -0.425  -0.067  0.00  0.00    +0.085 C 
ATOM      3  C   UNL     1       2.399   0.024  -0.028  0.00  0.00    +0.001 A 
ATOM      4  C   UNL     1       1.214  -0.678  -0.017  0.00  0.00    +0.045 A 
ATOM      5  C   UNL     1       0.002  -0.004   0.002  0.00  0.00    +0.125 A 
ATOM      6  C   UNL     1      -0.017   1.377   0.010  0.00  0.00    +0.052 A 
ATOM      7  C   UNL     1       1.177   2.094   0.002  0.00  0.00    +0.045 A 
ATOM      8  C   UNL     1       2.404   1.412  -0.013  0.00  0.00    +0.134 A 
ATOM      9  O   UNL     1       3.674   1.901  -0.013  0.00  0.00    -0.486 OA
ATOM     10  F   UNL     1      -1.158  -0.697   0.012  0.00  0.00    -0.205 F 
ENDROOT
BRANCH   7  11
ATOM     11  C   UNL     1       1.152   3.575   0.011  0.00  0.00    +0.079 A 
ATOM     12  C   UNL     1      -0.064   4.265   0.027  0.00  0.00    +0.048 A 
ATOM     13  C   UNL     1      -0.038   5.647   0.035  0.00  0.00    +0.116 A 
ATOM     14  N   UNL     1       1.129   6.273   0.028  0.00  0.00    -0.230 NA
ATOM     15  C   UNL     1       2.268   5.594   0.013  0.00  0.00    +0.188 A 
ATOM     16  N   UNL     1       2.288   4.270   0.009  0.00  0.00    -0.222 NA
BRANCH  15  17
ATOM     17  S   UNL     1       3.793   6.476   0.004  0.00  0.00    -0.089 S 
ATOM     18  C   UNL     1       3.173   8.176   0.021  0.00  0.00    +0.093 C 
ENDBRANCH  15  17
ENDBRANCH   7  11
BRANCH   1  19
ATOM     19  C   UNL     1       5.925   0.988   0.241  0.00  0.00    +0.149 C 
BRANCH  19  22
ATOM     20  C   UNL     1       7.735   2.606   0.459  0.00  0.00    +0.235 C 
ATOM     21  O   UNL     1       8.312   1.820   1.180  0.00  0.00    -0.274 OA
ATOM     22  N   UNL     1       6.534   2.286  -0.063  0.00  0.00    -0.310 N 
ATOM     23  H   UNL     1       6.072   2.915  -0.639  0.00  0.00    +0.149 HD
BRANCH  20  24
ATOM     24  C   UNL     1       8.361   3.941   0.146  0.00  0.00    +0.239 C 
BRANCH  24  29
ATOM     25  C   UNL     1      11.829   3.961   3.774  0.00  0.00    +0.067 C 
ATOM     26  C   UNL     1      11.154   4.050   2.430  0.00  0.00    +0.060 A 
ATOM     27  C   UNL     1      11.784   4.326   1.212  0.00  0.00    +0.044 A 
ATOM     28  C   UNL     1      10.839   4.318   0.244  0.00  0.00    +0.109 A 
ATOM     29  N   UNL     1       9.653   4.045   0.828  0.00  0.00    -0.262 N 
ATOM     30  N   UNL     1       9.876   3.887   2.202  0.00  0.00    -0.176 NA
ENDBRANCH  24  29
ENDBRANCH  20  24
ENDBRANCH  19  22
ENDBRANCH   1  19
TORSDOF 6
