REMARK  Name = ZINC09670211
REMARK  10 active torsions:
REMARK  status: ('A' for Active; 'I' for Inactive)
REMARK    1  A    between atoms: C_1  and  C_2
REMARK    2  A    between atoms: C_5  and  O_32
REMARK    3  A    between atoms: C_10  and  C_11
REMARK    4  A    between atoms: C_11  and  O_13
REMARK    5  A    between atoms: O_13  and  C_14
REMARK    6  A    between atoms: C_14  and  C_15
REMARK    7  A    between atoms: N_17  and  C_18
REMARK    8  A    between atoms: C_19  and  C_29
REMARK    9  A    between atoms: C_24  and  C_28
REMARK   10  A    between atoms: O_32  and  C_33
REMARK                            x       y       z     vdW  Elec       q    Type
REMARK                         _______ _______ _______ _____ _____    ______ ____
ROOT
ATOM      1  C   UNL     1       1.141   2.072   0.002  0.00  0.00    +0.255 C 
ATOM      2  O   UNL     1       2.200   1.480  -0.011  0.00  0.00    -0.272 OA
ATOM      3  N   UNL     1      -0.017   1.382   0.010  0.00  0.00    -0.277 N 
ATOM      4  H   UNL     1      -0.863   1.856   0.016  0.00  0.00    +0.155 HD
ENDROOT
BRANCH   3   5
ATOM      5  C   UNL     1       0.002  -0.004   0.002  0.00  0.00    +0.084 A 
ATOM      6  C   UNL     1      -1.073  -0.881   0.013  0.00  0.00    +0.068 A 
ATOM      7  C   UNL     1      -0.780  -2.304  -0.003  0.00  0.00    -0.023 A 
ATOM      8  C   UNL     1       0.533  -2.620  -0.017  0.00  0.00    -0.004 A 
ATOM      9  S   UNL     1       1.374  -1.062  -0.016  0.00  0.00    -0.077 S 
ATOM     10  C   UNL     1       1.132  -3.993  -0.032  0.00  0.00    +0.046 C 
ATOM     11  C   UNL     1       0.031  -4.996  -0.406  0.00  0.00    -0.009 C 
ATOM     12  C   UNL     1      -1.209  -4.708   0.444  0.00  0.00    +0.008 C 
ATOM     13  C   UNL     1      -1.848  -3.390   0.001  0.00  0.00    +0.037 C 
ATOM     14  C   UNL     1       0.520  -6.420  -0.133  0.00  0.00    +0.008 C 
BRANCH   6  15
ATOM     15  C   UNL     1      -2.455  -0.390   0.036  0.00  0.00    +0.244 C 
ATOM     16  O   UNL     1      -3.044  -0.181  -1.008  0.00  0.00    -0.270 OA
ATOM     17  N   UNL     1      -3.072  -0.170   1.214  0.00  0.00    -0.325 N 
ATOM     18  H   UNL     1      -2.603  -0.337   2.046  0.00  0.00    +0.145 HD
ATOM     19  H   UNL     1      -3.986   0.155   1.229  0.00  0.00    +0.145 HD
ENDBRANCH   6  15
ENDBRANCH   3   5
BRANCH   1  20
ATOM     20  C   UNL     1       1.121   3.579   0.011  0.00  0.00    +0.328 C 
BRANCH  20  21
ATOM     21  O   UNL     1       2.483   4.082   0.000  0.00  0.00    -0.450 OA
BRANCH  21  22
ATOM     22  C   UNL     1       2.642   5.421   0.006  0.00  0.00    +0.376 C 
ATOM     23  O   UNL     1       1.667   6.148   0.019  0.00  0.00    -0.241 OA
BRANCH  22  33
ATOM     24  C   UNL     1       3.279   8.465   0.004  0.00  0.00    +0.048 C 
ATOM     25  C   UNL     1       4.270   7.330  -0.005  0.00  0.00    +0.010 A 
ATOM     26  C   UNL     1       5.729   7.437  -0.014  0.00  0.00    +0.027 A 
ATOM     27  C   UNL     1       6.625   8.509  -0.017  0.00  0.00    +0.057 A 
ATOM     28  C   UNL     1       7.983   8.261  -0.032  0.00  0.00    +0.121 A 
ATOM     29  C   UNL     1       8.455   6.951  -0.044  0.00  0.00    +0.049 A 
ATOM     30  C   UNL     1       7.580   5.888  -0.040  0.00  0.00    +0.050 A 
ATOM     31  C   UNL     1       6.209   6.114  -0.025  0.00  0.00    +0.136 A 
ATOM     32  O   UNL     1       5.139   5.293  -0.019  0.00  0.00    -0.448 OA
ATOM     33  C   UNL     1       3.990   6.000  -0.004  0.00  0.00    +0.216 A 
BRANCH  28  34
ATOM     34  O   UNL     1       8.861   9.299  -0.035  0.00  0.00    -0.495 OA
ATOM     35  C   UNL     1      10.252   8.971  -0.051  0.00  0.00    +0.277 C 
ENDBRANCH  28  34
ENDBRANCH  22  33
ENDBRANCH  21  22
ENDBRANCH  20  21
ENDBRANCH   1  20
TORSDOF 7
