REMARK  Name = ZINC56938232
REMARK  5 active torsions:
REMARK  status: ('A' for Active; 'I' for Inactive)
REMARK    1  A    between atoms: C_1  and  C_2
REMARK    2  A    between atoms: C_3  and  N_14
REMARK    3  A    between atoms: C_4  and  C_13
REMARK    4  A    between atoms: C_20  and  C_22
REMARK    5  A    between atoms: C_22  and  C_27
REMARK                            x       y       z     vdW  Elec       q    Type
REMARK                         _______ _______ _______ _____ _____    ______ ____
ROOT
ATOM      1  N   UNL     1      -0.634  -0.706  -3.005  0.00  0.00    -0.324 N 
ATOM      2  C   UNL     1      -1.778  -0.377  -3.867  0.00  0.00    +0.124 C 
ATOM      3  C   UNL     1      -1.692   1.105  -4.252  0.00  0.00    +0.126 C 
ATOM      4  N   UNL     1      -0.334   1.385  -4.739  0.00  0.00    -0.298 N 
ATOM      5  C   UNL     1       0.810   1.056  -3.877  0.00  0.00    +0.126 C 
ATOM      6  C   UNL     1       0.723  -0.421  -3.491  0.00  0.00    +0.124 C 
ATOM      7  C   UNL     1      -0.142   1.934  -5.955  0.00  0.00    +0.227 C 
ATOM      8  O   UNL     1      -1.085   2.114  -6.696  0.00  0.00    -0.275 OA
ENDROOT
BRANCH   1  11
ATOM      9  C   UNL     1      -1.009   0.920  -0.376  0.00  0.00    +0.069 C 
ATOM     10  C   UNL     1      -1.008  -0.579  -0.531  0.00  0.00    +0.082 A 
ATOM     11  C   UNL     1      -0.836  -1.279  -1.736  0.00  0.00    +0.074 A 
ATOM     12  C   UNL     1      -0.898  -2.606  -1.458  0.00  0.00    +0.065 A 
ATOM     13  N   UNL     1      -1.104  -2.735  -0.117  0.00  0.00    -0.217 N 
ATOM     14  N   UNL     1      -1.162  -1.449   0.434  0.00  0.00    -0.168 NA
ATOM     15  C   UNL     1      -1.229  -3.938   0.584  0.00  0.00    +0.154 A 
ATOM     16  C   UNL     1      -0.925  -3.979   1.939  0.00  0.00    +0.048 A 
ATOM     17  C   UNL     1      -1.053  -5.176   2.622  0.00  0.00    +0.005 A 
ATOM     18  C   UNL     1      -1.484  -6.295   1.921  0.00  0.00    +0.020 A 
ATOM     19  C   UNL     1      -1.768  -6.181   0.575  0.00  0.00    +0.113 A 
ATOM     20  N   UNL     1      -1.642  -5.025  -0.048  0.00  0.00    -0.236 NA
ATOM     21  C   UNL     1      -0.764  -3.730  -2.452  0.00  0.00    +0.068 C 
ENDBRANCH   1  11
BRANCH   7  22
ATOM     22  C   UNL     1       1.246   2.323  -6.395  0.00  0.00    +0.078 C 
ATOM     23  C   UNL     1       1.179   3.111  -7.720  0.00  0.00    +0.021 C 
ATOM     24  C   UNL     1       1.195   4.596  -7.279  0.00  0.00    +0.001 C 
ATOM     25  C   UNL     1       2.182   4.588  -6.086  0.00  0.00    +0.001 C 
ATOM     26  C   UNL     1       1.884   3.263  -5.356  0.00  0.00    +0.021 C 
BRANCH  22  27
ATOM     27  C   UNL     1       2.097   1.091  -6.568  0.00  0.00    +0.005 A 
ATOM     28  C   UNL     1       1.855  -0.016  -7.312  0.00  0.00    +0.012 A 
ATOM     29  C   UNL     1       2.789  -1.034  -7.321  0.00  0.00    +0.008 A 
ATOM     30  C   UNL     1       3.920  -0.896  -6.587  0.00  0.00    +0.045 A 
ATOM     31  S   UNL     1       3.689   0.715  -5.854  0.00  0.00    -0.101 S 
ENDBRANCH  22  27
ENDBRANCH   7  22
TORSDOF 3
