REMARK  Name = ZINC08893720
REMARK  10 active torsions:
REMARK  status: ('A' for Active; 'I' for Inactive)
REMARK    1  A    between atoms: C_1  and  C_2
REMARK    2  A    between atoms: C_4  and  C_23
REMARK    3  A    between atoms: C_5  and  C_22
REMARK    4  A    between atoms: N_6  and  C_7
REMARK    5  A    between atoms: C_11  and  S_13
REMARK    6  A    between atoms: S_13  and  N_16
REMARK    7  A    between atoms: C_23  and  C_25
REMARK    8  A    between atoms: C_25  and  S_26
REMARK    9  A    between atoms: S_26  and  C_27
REMARK   10  A    between atoms: C_30  and  C_32
REMARK                            x       y       z     vdW  Elec       q    Type
REMARK                         _______ _______ _______ _____ _____    ______ ____
ROOT
ATOM      1  C   UNL     1       2.520   1.703  -0.012  0.00  0.00    +0.064 C 
ATOM      2  C   UNL     1       1.095   2.193   0.003  0.00  0.00    +0.022 A 
ATOM      3  C   UNL     1       0.715   3.482   0.013  0.00  0.00    +0.034 A 
ATOM      4  C   UNL     1      -0.755   3.481   0.027  0.00  0.00    +0.039 A 
ATOM      5  C   UNL     1      -1.133   2.151   0.019  0.00  0.00    +0.031 A 
ATOM      6  N   UNL     1      -0.017   1.397   0.010  0.00  0.00    -0.317 N 
ATOM      7  C   UNL     1      -2.549   1.635   0.023  0.00  0.00    +0.064 C 
ENDROOT
BRANCH   6   8
ATOM      8  C   UNL     1       0.002  -0.004   0.002  0.00  0.00    +0.048 A 
ATOM      9  C   UNL     1      -0.486  -0.713   1.092  0.00  0.00    +0.026 A 
ATOM     10  C   UNL     1      -0.466  -2.093   1.081  0.00  0.00    +0.004 A 
ATOM     11  C   UNL     1       0.039  -2.771  -0.013  0.00  0.00    +0.028 A 
ATOM     12  C   UNL     1       0.526  -2.068  -1.100  0.00  0.00    +0.107 A 
ATOM     13  C   UNL     1       0.504  -0.687  -1.097  0.00  0.00    +0.054 A 
BRANCH  12  14
ATOM     14  S   UNL     1       1.170  -2.935  -2.492  0.00  0.00    +0.061 S 
ATOM     15  O   UNL     1       2.064  -2.046  -3.147  0.00  0.00    -0.153 OA
ATOM     16  O   UNL     1       1.575  -4.214  -2.022  0.00  0.00    -0.153 OA
BRANCH  14  17
ATOM     17  N   UNL     1      -0.091  -3.192  -3.535  0.00  0.00    -0.172 NA
ATOM     18  C   UNL     1      -0.911  -4.411  -3.446  0.00  0.00    +0.137 C 
ATOM     19  C   UNL     1      -2.390  -3.992  -3.416  0.00  0.00    +0.177 C 
ATOM     20  O   UNL     1      -2.655  -3.128  -4.524  0.00  0.00    -0.377 OA
ATOM     21  C   UNL     1      -1.919  -1.903  -4.500  0.00  0.00    +0.177 C 
ATOM     22  C   UNL     1      -0.420  -2.212  -4.581  0.00  0.00    +0.137 C 
ENDBRANCH  14  17
ENDBRANCH  12  14
ENDBRANCH   6   8
BRANCH   4  23
ATOM     23  C   UNL     1      -1.637   4.649   0.040  0.00  0.00    +0.175 C 
ATOM     24  O   UNL     1      -2.841   4.500   0.051  0.00  0.00    -0.291 OA
BRANCH  23  25
ATOM     25  C   UNL     1      -1.050   6.037   0.041  0.00  0.00    +0.156 C 
BRANCH  25  26
ATOM     26  S   UNL     1      -2.386   7.258   0.059  0.00  0.00    -0.089 S 
BRANCH  26  27
ATOM     27  C   UNL     1      -1.442   8.745   0.057  0.00  0.00    +0.159 A 
ATOM     28  N   UNL     1      -0.127   8.922   0.045  0.00  0.00    -0.135 NA
ATOM     29  N   UNL     1       0.389  10.073   0.046  0.00  0.00    -0.146 NA
ATOM     30  C   UNL     1      -0.341  11.170   0.058  0.00  0.00    +0.100 A 
ATOM     31  S   UNL     1      -1.982  10.453   0.063  0.00  0.00    -0.044 S 
ATOM     32  C   UNL     1       0.084  12.615   0.061  0.00  0.00    +0.075 C 
ENDBRANCH  26  27
ENDBRANCH  25  26
ENDBRANCH  23  25
ENDBRANCH   4  23
TORSDOF 7
