REMARK  Name = ZINC39638735
REMARK  9 active torsions:
REMARK  status: ('A' for Active; 'I' for Inactive)
REMARK    1  A    between atoms: C_1  and  C_2
REMARK    2  A    between atoms: C_2  and  O_3
REMARK    3  A    between atoms: O_3  and  C_4
REMARK    4  A    between atoms: C_9  and  C_10
REMARK    5  A    between atoms: C_10  and  N_11
REMARK    6  A    between atoms: C_12  and  C_14
REMARK    7  A    between atoms: C_25  and  C_27
REMARK    8  A    between atoms: C_30  and  O_34
REMARK    9  A    between atoms: O_34  and  C_35
REMARK                            x       y       z     vdW  Elec       q    Type
REMARK                         _______ _______ _______ _____ _____    ______ ____
ROOT
ATOM      1  C   UNL     1       0.459   0.774   5.792  0.00  0.00    +0.100 C 
ATOM      2  C   UNL     1      -0.764   1.542   5.243  0.00  0.00    +0.121 C 
ATOM      3  N   UNL     1      -1.097   2.523   6.302  0.00  0.00    -0.296 N 
ATOM      4  C   UNL     1       0.220   2.995   6.793  0.00  0.00    +0.115 C 
ATOM      5  C   UNL     1       1.103   1.732   6.808  0.00  0.00    -0.004 C 
ATOM      6  C   UNL     1       1.102   1.104   8.199  0.00  0.00    -0.010 C 
ATOM      7  C   UNL     1       1.798   2.051   9.181  0.00  0.00    -0.082 C 
ATOM      8  N   UNL     1       3.174   2.297   8.734  0.00  0.00    +0.379 N 
ATOM      9  C   UNL     1       3.164   2.985   7.437  0.00  0.00    -0.082 C 
ATOM     10  C   UNL     1       2.526   2.077   6.381  0.00  0.00    -0.010 C 
ATOM     11  C   UNL     1      -2.319   2.901   6.724  0.00  0.00    +0.247 C 
ATOM     12  O   UNL     1      -3.309   2.328   6.311  0.00  0.00    -0.270 OA
ATOM     13  H   UNL     1       3.650   2.872   9.414  0.00  0.00    -0.086 HD
ATOM     14  H   UNL     1       3.659   1.417   8.643  0.00  0.00    -0.086 HD
ENDROOT
BRANCH  11  15
ATOM     15  C   UNL     1      -2.457   4.011   7.687  0.00  0.00    +0.040 A 
ATOM     16  C   UNL     1      -1.426   4.943   7.834  0.00  0.00    +0.036 A 
ATOM     17  C   UNL     1      -1.559   5.978   8.735  0.00  0.00    +0.085 A 
ATOM     18  C   UNL     1      -2.716   6.096   9.496  0.00  0.00    +0.157 A 
ATOM     19  C   UNL     1      -3.744   5.171   9.352  0.00  0.00    +0.085 A 
ATOM     20  C   UNL     1      -3.622   4.137   8.449  0.00  0.00    +0.036 A 
ATOM     21 CL   UNL     1      -5.187   5.323  10.306  0.00  0.00    -0.080 Cl
ATOM     22 CL   UNL     1      -0.278   7.136   8.919  0.00  0.00    -0.080 Cl
BRANCH  18  23
ATOM     23  O   UNL     1      -2.843   7.116  10.383  0.00  0.00    -0.492 OA
ATOM     24  C   UNL     1      -3.426   8.328   9.899  0.00  0.00    +0.277 C 
ENDBRANCH  18  23
ENDBRANCH  11  15
BRANCH   1  26
ATOM     25  N   UNL     1       2.199  -0.639   4.746  0.00  0.00    -0.311 N 
ATOM     26  C   UNL     1       1.426   0.463   4.679  0.00  0.00    +0.218 C 
ATOM     27  O   UNL     1       1.508   1.204   3.722  0.00  0.00    -0.275 OA
ATOM     28  H   UNL     1       2.133  -1.232   5.511  0.00  0.00    +0.149 HD
BRANCH  25  29
ATOM     29  C   UNL     1       3.139  -0.941   3.664  0.00  0.00    +0.143 C 
BRANCH  29  35
ATOM     30  C   UNL     1       3.271  -3.444   3.750  0.00  0.00    +0.125 A 
ATOM     31  C   UNL     1       3.955  -4.617   4.038  0.00  0.00    +0.046 A 
ATOM     32  C   UNL     1       5.233  -4.560   4.558  0.00  0.00    +0.004 A 
ATOM     33  C   UNL     1       5.832  -3.336   4.791  0.00  0.00    +0.001 A 
ATOM     34  C   UNL     1       5.154  -2.166   4.505  0.00  0.00    +0.009 A 
ATOM     35  C   UNL     1       3.877  -2.217   3.980  0.00  0.00    +0.011 A 
BRANCH  30  36
ATOM     36  O   UNL     1       2.014  -3.497   3.239  0.00  0.00    -0.492 OA
BRANCH  36  38
ATOM     37  C   UNL     1       0.043  -4.654   2.452  0.00  0.00    +0.048 C 
ATOM     38  C   UNL     1       1.453  -4.795   3.028  0.00  0.00    +0.225 C 
ENDBRANCH  36  38
ENDBRANCH  30  36
ENDBRANCH  29  35
ENDBRANCH  25  29
ENDBRANCH   1  26
TORSDOF 7
