REMARK  Name = ZINC01049698
REMARK  5 active torsions:
REMARK  status: ('A' for Active; 'I' for Inactive)
REMARK    1  A    between atoms: C_6  and  C_7
REMARK    2  A    between atoms: C_7  and  S_8
REMARK    3  A    between atoms: S_8  and  C_9
REMARK    4  A    between atoms: C_12  and  C_15
REMARK    5  A    between atoms: N_13  and  N_14
REMARK                            x       y       z     vdW  Elec       q    Type
REMARK                         _______ _______ _______ _____ _____    ______ ____
ROOT
ATOM      1  C   UNL     1      -3.334  -1.973  -1.519  0.00  0.00    +0.209 A 
ATOM      2  N   UNL     1      -3.907  -2.320  -0.387  0.00  0.00    -0.121 NA
ATOM      3  N   UNL     1      -4.993  -2.966  -0.621  0.00  0.00    -0.127 NA
ATOM      4  C   UNL     1      -5.181  -3.071  -1.917  0.00  0.00    +0.182 A 
ATOM      5  N   UNL     1      -4.126  -2.434  -2.530  0.00  0.00    -0.224 N 
ENDROOT
BRANCH   4   6
ATOM      6  C   UNL     1      -6.312  -3.742  -2.589  0.00  0.00    +0.024 A 
ATOM      7  C   UNL     1      -6.251  -4.067  -3.949  0.00  0.00    +0.031 A 
ATOM      8  C   UNL     1      -7.331  -4.694  -4.536  0.00  0.00    +0.111 A 
ATOM      9  N   UNL     1      -8.409  -4.985  -3.833  0.00  0.00    -0.263 NA
ATOM     10  C   UNL     1      -8.508  -4.697  -2.549  0.00  0.00    +0.111 A 
ATOM     11  C   UNL     1      -7.474  -4.076  -1.881  0.00  0.00    +0.031 A 
ENDBRANCH   4   6
BRANCH   5  12
ATOM     12  N   UNL     1      -3.915  -2.294  -3.873  0.00  0.00    -0.295 N 
ATOM     13  H   UNL     1      -3.378  -3.067  -4.237  0.00  0.00    +0.163 HD
ATOM     14  H   UNL     1      -4.788  -2.196  -4.368  0.00  0.00    +0.163 HD
ENDBRANCH   5  12
BRANCH   1  15
ATOM     15  S   UNL     1      -1.829  -1.075  -1.697  0.00  0.00    -0.080 S 
BRANCH  15  16
ATOM     16  C   UNL     1      -1.293  -0.775   0.010  0.00  0.00    +0.112 C 
BRANCH  16  22
ATOM     17  C   UNL     1      -0.017   1.378   0.010  0.00  0.00    +0.005 A 
ATOM     18  C   UNL     1       1.171   2.086   0.002  0.00  0.00    +0.015 A 
ATOM     19  C   UNL     1       2.378   1.411  -0.013  0.00  0.00    +0.018 A 
ATOM     20  C   UNL     1       2.396   0.027  -0.021  0.00  0.00    +0.015 A 
ATOM     21  C   UNL     1       1.208  -0.679  -0.013  0.00  0.00    +0.005 A 
ATOM     22  C   UNL     1       0.002  -0.004   0.002  0.00  0.00    -0.037 A 
ATOM     23 BR   UNL     1       4.003   2.378  -0.024  0.00  0.00    -0.050 Br
ENDBRANCH  16  22
ENDBRANCH  15  16
ENDBRANCH   1  15
TORSDOF 5
