REMARK  Name = ZINC16861172
REMARK  14 active torsions:
REMARK  status: ('A' for Active; 'I' for Inactive)
REMARK    1  A    between atoms: C_1  and  C_2
REMARK    2  A    between atoms: C_2  and  C_4
REMARK    3  A    between atoms: C_2  and  S_15
REMARK    4  A    between atoms: N_6  and  C_7
REMARK    5  A    between atoms: S_15  and  C_16
REMARK    6  A    between atoms: N_26  and  C_27
REMARK    7  A    between atoms: C_27  and  C_28
REMARK    8  A    between atoms: C_28  and  N_29
REMARK    9  A    between atoms: N_29  and  C_30
REMARK   10  A    between atoms: N_29  and  C_33
REMARK   11  A    between atoms: C_30  and  C_31
REMARK   12  A    between atoms: C_30  and  C_32
REMARK   13  A    between atoms: C_33  and  C_34
REMARK   14  A    between atoms: C_33  and  C_35
REMARK                            x       y       z     vdW  Elec       q    Type
REMARK                         _______ _______ _______ _____ _____    ______ ____
ROOT
ATOM      1  C   UNL     1      -2.072  -2.211  -2.426  0.00  0.00    +0.173 A 
ATOM      2  N   UNL     1      -3.091  -1.477  -2.053  0.00  0.00    -0.223 NA
ATOM      3  C   UNL     1      -4.216  -1.402  -2.792  0.00  0.00    +0.079 A 
ATOM      4  C   UNL     1      -5.304  -0.619  -2.394  0.00  0.00    +0.028 A 
ATOM      5  C   UNL     1      -6.424  -0.571  -3.175  0.00  0.00    +0.002 A 
ATOM      6  C   UNL     1      -6.500  -1.290  -4.361  0.00  0.00    +0.001 A 
ATOM      7  C   UNL     1      -5.452  -2.064  -4.777  0.00  0.00    +0.015 A 
ATOM      8  C   UNL     1      -4.297  -2.131  -4.000  0.00  0.00    +0.065 A 
ATOM      9  C   UNL     1      -3.141  -2.946  -4.397  0.00  0.00    +0.262 A 
ATOM     10  O   UNL     1      -3.150  -3.596  -5.426  0.00  0.00    -0.267 OA
ATOM     11  N   UNL     1      -2.063  -2.942  -3.579  0.00  0.00    -0.289 N 
ENDROOT
BRANCH   1  12
ATOM     12  S   UNL     1      -0.643  -2.249  -1.395  0.00  0.00    -0.075 S 
BRANCH  12  14
ATOM     13  C   UNL     1      -1.248   0.268  -0.512  0.00  0.00    +0.029 C 
ATOM     14  C   UNL     1      -1.074  -1.166  -0.006  0.00  0.00    +0.137 C 
BRANCH  14  15
ATOM     15  C   UNL     1       0.026  -1.205   1.022  0.00  0.00    +0.230 C 
ATOM     16  O   UNL     1       1.157  -1.494   0.690  0.00  0.00    -0.274 OA
ATOM     17  N   UNL     1      -0.246  -0.920   2.311  0.00  0.00    -0.280 N 
ATOM     18  H   UNL     1      -1.127  -0.602   2.562  0.00  0.00    +0.155 HD
BRANCH  17  19
ATOM     19  C   UNL     1       0.745  -1.085   3.289  0.00  0.00    +0.105 A 
ATOM     20  C   UNL     1       0.463  -1.786   4.456  0.00  0.00    +0.147 A 
ATOM     21  C   UNL     1       1.443  -1.946   5.419  0.00  0.00    +0.040 A 
ATOM     22  C   UNL     1       2.702  -1.410   5.222  0.00  0.00    +0.006 A 
ATOM     23  C   UNL     1       2.987  -0.712   4.063  0.00  0.00    +0.040 A 
ATOM     24  C   UNL     1       2.014  -0.552   3.093  0.00  0.00    +0.147 A 
ATOM     25  F   UNL     1       2.294   0.125   1.958  0.00  0.00    -0.203 F 
ATOM     26  F   UNL     1      -0.767  -2.310   4.649  0.00  0.00    -0.203 F 
ENDBRANCH  17  19
ENDBRANCH  14  15
ENDBRANCH  12  14
ENDBRANCH   1  12
BRANCH  11  27
ATOM     27  C   UNL     1      -0.880  -3.733  -3.930  0.00  0.00    +0.109 C 
BRANCH  27  28
ATOM     28  C   UNL     1      -1.012  -5.138  -3.339  0.00  0.00    -0.056 C 
BRANCH  28  29
ATOM     29  N   UNL     1       0.234  -5.883  -3.563  0.00  0.00    +0.384 N 
ATOM     30  H   UNL     1       1.015  -5.341  -3.224  0.00  0.00    -0.081 HD
BRANCH  29  31
ATOM     31  C   UNL     1       0.176  -7.162  -2.845  0.00  0.00    -0.074 C 
ATOM     32  C   UNL     1       1.521  -7.881  -2.973  0.00  0.00    -0.014 C 
ATOM     33  C   UNL     1      -0.127  -6.905  -1.368  0.00  0.00    -0.014 C 
ENDBRANCH  29  31
BRANCH  29  34
ATOM     34  C   UNL     1       0.402  -6.135  -5.001  0.00  0.00    -0.074 C 
ATOM     35  C   UNL     1      -0.972  -6.196  -5.672  0.00  0.00    -0.014 C 
ATOM     36  C   UNL     1       1.224  -5.005  -5.625  0.00  0.00    -0.014 C 
ENDBRANCH  29  34
ENDBRANCH  28  29
ENDBRANCH  27  28
ENDBRANCH  11  27
TORSDOF 9
