REMARK  Name = ZINC49471486
REMARK  5 active torsions:
REMARK  status: ('A' for Active; 'I' for Inactive)
REMARK    1  A    between atoms: C_1  and  C_2
REMARK    2  A    between atoms: C_2  and  O_3
REMARK    3  A    between atoms: O_3  and  C_4
REMARK    4  A    between atoms: N_13  and  C_14
REMARK    5  A    between atoms: C_14  and  C_15
REMARK                            x       y       z     vdW  Elec       q    Type
REMARK                         _______ _______ _______ _____ _____    ______ ____
ROOT
ATOM      1  C   UNL     1       0.743  -1.889  -1.278  0.00  0.00    +0.136 C 
ATOM      2  C   UNL     1       0.753  -2.291  -2.755  0.00  0.00    +0.035 C 
ATOM      3  C   UNL     1       0.801  -3.817  -2.869  0.00  0.00    +0.022 C 
ATOM      4  C   UNL     1       2.088  -4.333  -2.219  0.00  0.00    +0.109 C 
ATOM      5  N   UNL     1       2.156  -3.829  -0.840  0.00  0.00    -0.283 N 
ATOM      6  C   UNL     1       2.028  -2.384  -0.609  0.00  0.00    +0.140 C 
ATOM      7  C   UNL     1       2.331  -4.677   0.193  0.00  0.00    +0.303 C 
ATOM      8  O   UNL     1       2.478  -4.241   1.319  0.00  0.00    -0.253 OA
ATOM      9  N   UNL     1       2.345  -6.008  -0.022  0.00  0.00    -0.295 N 
ATOM     10  H   UNL     1       2.302  -6.353  -0.927  0.00  0.00    +0.151 HD
ENDROOT
BRANCH   1  11
ATOM     11  O   UNL     1       0.667  -0.466  -1.172  0.00  0.00    -0.375 OA
BRANCH  11  13
ATOM     12  C   UNL     1      -0.023   1.524   0.013  0.00  0.00    +0.034 C 
ATOM     13  C   UNL     1      -0.001  -0.006   0.004  0.00  0.00    +0.157 C 
ENDBRANCH  11  13
ENDBRANCH   1  11
BRANCH   9  14
ATOM     14  C   UNL     1       2.424  -6.932   1.112  0.00  0.00    +0.141 C 
BRANCH  14  15
ATOM     15  C   UNL     1       2.423  -8.351   0.605  0.00  0.00    -0.022 A 
ATOM     16  C   UNL     1       1.233  -9.032   0.428  0.00  0.00    +0.028 A 
ATOM     17  C   UNL     1       1.268 -10.308  -0.030  0.00  0.00    +0.055 A 
ATOM     18  S   UNL     1       3.021 -10.582  -0.227  0.00  0.00    -0.090 S 
ATOM     19  C   UNL     1       3.588  -8.976   0.309  0.00  0.00    +0.051 A 
ATOM     20 BR   UNL     1      -0.168 -11.490  -0.371  0.00  0.00    -0.043 Br
ENDBRANCH  14  15
ENDBRANCH   9  14
TORSDOF 4
