REMARK  Name = ZINC40977580
REMARK  11 active torsions:
REMARK  status: ('A' for Active; 'I' for Inactive)
REMARK    1  A    between atoms: C_1  and  N_2
REMARK    2  A    between atoms: N_2  and  C_3
REMARK    3  A    between atoms: N_2  and  C_6
REMARK    4  A    between atoms: C_3  and  C_4
REMARK    5  A    between atoms: C_4  and  O_5
REMARK    6  A    between atoms: C_6  and  C_9
REMARK    7  A    between atoms: C_12  and  N_15
REMARK    8  A    between atoms: N_20  and  C_26
REMARK    9  A    between atoms: C_22  and  C_23
REMARK   10  A    between atoms: C_29  and  O_32
REMARK   11  A    between atoms: O_32  and  C_33
REMARK                            x       y       z     vdW  Elec       q    Type
REMARK                         _______ _______ _______ _____ _____    ______ ____
ROOT
ATOM      1  N   UNL     1      -1.928  -5.821  -2.191  0.00  0.00    -0.266 N 
ATOM      2  C   UNL     1      -3.228  -6.440  -2.416  0.00  0.00    +0.119 C 
ATOM      3  C   UNL     1      -3.316  -7.150  -3.769  0.00  0.00    +0.059 C 
ATOM      4  C   UNL     1      -2.068  -7.962  -3.972  0.00  0.00    +0.017 A 
ATOM      5  C   UNL     1      -0.864  -7.607  -3.400  0.00  0.00    +0.133 A 
ATOM      6  N   UNL     1       0.045  -8.531  -3.791  0.00  0.00    -0.227 N 
ATOM      7  N   UNL     1      -0.530  -9.410  -4.542  0.00  0.00    -0.161 NA
ATOM      8  C   UNL     1      -1.818  -9.126  -4.693  0.00  0.00    +0.151 A 
ATOM      9  C   UNL     1      -0.765  -6.418  -2.542  0.00  0.00    +0.270 C 
ATOM     10  O   UNL     1       0.310  -5.994  -2.163  0.00  0.00    -0.268 OA
ENDROOT
BRANCH   1  14
ATOM     11  C   UNL     1      -1.786  -2.055  -0.417  0.00  0.00    -0.058 A 
ATOM     12  C   UNL     1      -1.381  -2.215  -1.730  0.00  0.00    +0.004 A 
ATOM     13  C   UNL     1      -1.427  -3.462  -2.321  0.00  0.00    +0.024 A 
ATOM     14  C   UNL     1      -1.880  -4.556  -1.596  0.00  0.00    +0.037 A 
ATOM     15  C   UNL     1      -2.286  -4.392  -0.278  0.00  0.00    +0.024 A 
ATOM     16  C   UNL     1      -2.233  -3.143   0.309  0.00  0.00    +0.004 A 
BRANCH  11  17
ATOM     17  C   UNL     1      -1.736  -0.692   0.224  0.00  0.00    -0.040 C 
ATOM     18  C   UNL     1      -2.796  -0.367   1.278  0.00  0.00    -0.008 C 
ATOM     19  C   UNL     1      -1.348  -0.621   1.703  0.00  0.00    -0.008 C 
BRANCH  17  21
ATOM     20  C   UNL     1       0.170   0.547  -0.543  0.00  0.00    -0.095 C 
ATOM     21  N   UNL     1      -1.289   0.403  -0.647  0.00  0.00    +0.386 N 
ATOM     22  H   UNL     1      -1.538   0.195  -1.603  0.00  0.00    -0.081 HD
BRANCH  21  23
ATOM     23  C   UNL     1      -1.936   1.654  -0.233  0.00  0.00    -0.050 C 
BRANCH  23  24
ATOM     24  C   UNL     1      -1.561   2.770  -1.210  0.00  0.00    +0.137 C 
BRANCH  24  25
ATOM     25  O   UNL     1      -2.100   2.475  -2.500  0.00  0.00    -0.397 OA
ATOM     26  H   UNL     1      -1.901   3.142  -3.171  0.00  0.00    +0.209 HD
ENDBRANCH  24  25
ENDBRANCH  23  24
ENDBRANCH  21  23
ENDBRANCH  17  21
ENDBRANCH  11  17
ENDBRANCH   1  14
BRANCH   6  27
ATOM     27  C   UNL     1       1.399  -8.532  -3.436  0.00  0.00    +0.066 A 
ATOM     28  C   UNL     1       1.774  -8.267  -2.125  0.00  0.00    +0.031 A 
ATOM     29  C   UNL     1       3.110  -8.269  -1.776  0.00  0.00    +0.048 A 
ATOM     30  C   UNL     1       4.077  -8.536  -2.734  0.00  0.00    +0.120 A 
ATOM     31  C   UNL     1       3.703  -8.801  -4.044  0.00  0.00    +0.048 A 
ATOM     32  C   UNL     1       2.368  -8.805  -4.393  0.00  0.00    +0.031 A 
BRANCH  30  33
ATOM     33  O   UNL     1       5.392  -8.538  -2.390  0.00  0.00    -0.495 OA
ATOM     34  C   UNL     1       6.334  -8.822  -3.426  0.00  0.00    +0.277 C 
ENDBRANCH  30  33
ENDBRANCH   6  27
BRANCH   8  35
ATOM     35  C   UNL     1      -2.800  -9.899  -5.479  0.00  0.00    +0.262 C 
ATOM     36  O   UNL     1      -3.957  -9.531  -5.538  0.00  0.00    -0.269 OA
ATOM     37  N   UNL     1      -2.414 -11.014  -6.130  0.00  0.00    -0.324 N 
ATOM     38  H   UNL     1      -1.491 -11.309  -6.083  0.00  0.00    +0.145 HD
ATOM     39  H   UNL     1      -3.059 -11.523  -6.646  0.00  0.00    +0.145 HD
ENDBRANCH   8  35
TORSDOF 9
