REMARK  Name = ZINC15488638
REMARK  7 active torsions:
REMARK  status: ('A' for Active; 'I' for Inactive)
REMARK    1  A    between atoms: C_1  and  C_2
REMARK    2  A    between atoms: C_2  and  C_4
REMARK    3  A    between atoms: C_2  and  N_51
REMARK    4  A    between atoms: N_6  and  C_7
REMARK    5  A    between atoms: C_9  and  N_14
REMARK    6  A    between atoms: N_19  and  S_22
REMARK    7  A    between atoms: S_22  and  C_25
REMARK                            x       y       z     vdW  Elec       q    Type
REMARK                         _______ _______ _______ _____ _____    ______ ____
ROOT
ATOM      1  C   UNL     1      -4.877  -2.675  -1.073  0.00  0.00    -0.060 C 
ATOM      2  C   UNL     1      -4.473  -4.149  -0.965  0.00  0.00    +0.091 C 
ATOM      3  N   UNL     1      -5.691  -4.958  -0.815  0.00  0.00    -0.180 NA
ATOM      4  C   UNL     1      -6.657  -4.576   0.227  0.00  0.00    +0.091 C 
ATOM      5  C   UNL     1      -6.975  -3.085   0.072  0.00  0.00    -0.060 C 
ATOM      6  N   UNL     1      -5.708  -2.323   0.100  0.00  0.00    +0.389 N 
ATOM      7  H   UNL     1      -5.194  -2.563   0.956  0.00  0.00    -0.081 HD
ENDROOT
BRANCH   3   8
ATOM      8  S   UNL     1      -5.970  -6.265  -1.793  0.00  0.00    +0.064 S 
ATOM      9  O   UNL     1      -4.700  -6.700  -2.260  0.00  0.00    -0.153 OA
ATOM     10  O   UNL     1      -6.855  -7.122  -1.084  0.00  0.00    -0.153 OA
BRANCH   8  11
ATOM     11  C   UNL     1      -6.853  -5.683  -3.202  0.00  0.00    +0.143 A 
ATOM     12  C   UNL     1      -6.269  -5.735  -4.454  0.00  0.00    +0.069 A 
ATOM     13  C   UNL     1      -6.965  -5.282  -5.561  0.00  0.00    +0.125 A 
ATOM     14  C   UNL     1      -8.241  -4.767  -5.414  0.00  0.00    +0.041 A 
ATOM     15  C   UNL     1      -8.823  -4.710  -4.162  0.00  0.00    +0.043 A 
ATOM     16  C   UNL     1      -8.129  -5.168  -3.054  0.00  0.00    +0.150 A 
ATOM     17  F   UNL     1      -8.698  -5.112  -1.830  0.00  0.00    -0.203 F 
ATOM     18  F   UNL     1      -6.396  -5.337  -6.785  0.00  0.00    -0.205 F 
ENDBRANCH   8  11
ENDBRANCH   3   8
BRANCH   6  20
ATOM     19  C   UNL     1      -7.040  -0.530  -0.959  0.00  0.00    -0.004 C 
ATOM     20  C   UNL     1      -5.991  -0.873   0.101  0.00  0.00    +0.017 C 
BRANCH  20  21
ATOM     21  C   UNL     1      -6.505  -0.483   1.462  0.00  0.00    +0.203 C 
ATOM     22  O   UNL     1      -6.873  -1.338   2.240  0.00  0.00    -0.277 OA
ATOM     23  N   UNL     1      -6.556   0.817   1.816  0.00  0.00    -0.286 N 
ATOM     24  H   UNL     1      -6.320   1.504   1.174  0.00  0.00    +0.155 HD
BRANCH  23  25
ATOM     25  C   UNL     1      -6.950   1.175   3.111  0.00  0.00    +0.054 A 
ATOM     26  C   UNL     1      -7.814   0.356   3.827  0.00  0.00    +0.057 A 
ATOM     27  C   UNL     1      -8.201   0.712   5.104  0.00  0.00    +0.128 A 
ATOM     28  C   UNL     1      -7.734   1.885   5.668  0.00  0.00    +0.034 A 
ATOM     29  C   UNL     1      -6.869   2.700   4.962  0.00  0.00    +0.024 A 
ATOM     30  C   UNL     1      -6.478   2.350   3.683  0.00  0.00    +0.062 A 
ATOM     31 CL   UNL     1      -5.397   3.376   2.793  0.00  0.00    -0.082 Cl
BRANCH  27  32
ATOM     32  N   UNL     1      -9.122  -0.160   5.867  0.00  0.00    +0.056 N 
ATOM     33  O   UNL     1      -9.538  -1.191   5.368  0.00  0.00    -0.126 OA
ATOM     34  O   UNL     1      -9.460   0.151   6.995  0.00  0.00    -0.126 OA
ENDBRANCH  27  32
ENDBRANCH  23  25
ENDBRANCH  20  21
ENDBRANCH   6  20
TORSDOF 6
