REMARK  Name = ZINC63176136
REMARK  4 active torsions:
REMARK  status: ('A' for Active; 'I' for Inactive)
REMARK    1  A    between atoms: C_6  and  S_7
REMARK    2  A    between atoms: S_7  and  N_10
REMARK    3  A    between atoms: N_10  and  C_11
REMARK    4  A    between atoms: C_16  and  N_18
REMARK                            x       y       z     vdW  Elec       q    Type
REMARK                         _______ _______ _______ _____ _____    ______ ____
ROOT
ATOM      1  S   UNL     1      -1.513  -0.904   0.010  0.00  0.00    +0.059 S 
ATOM      2  O   UNL     1      -1.221  -2.185   0.551  0.00  0.00    -0.153 OA
ATOM      3  O   UNL     1      -2.493  -0.044   0.573  0.00  0.00    -0.153 OA
ENDROOT
BRANCH   1   9
ATOM      4  C   UNL     1      -0.017   1.378   0.010  0.00  0.00    +0.032 A 
ATOM      5  C   UNL     1       1.170   2.088   0.002  0.00  0.00    +0.051 A 
ATOM      6  C   UNL     1       2.382   1.415  -0.013  0.00  0.00    +0.162 A 
ATOM      7  C   UNL     1       2.401   0.025  -0.018  0.00  0.00    +0.164 A 
ATOM      8  C   UNL     1       1.207  -0.681  -0.011  0.00  0.00    +0.078 A 
ATOM      9  C   UNL     1       0.002  -0.004   0.002  0.00  0.00    +0.109 A 
ATOM     10  O   UNL     1       3.579  -0.656  -0.024  0.00  0.00    -0.485 OA
ATOM     11  C   UNL     1       4.746   0.081  -0.406  0.00  0.00    +0.270 C 
ATOM     12  C   UNL     1       4.733   1.422   0.340  0.00  0.00    +0.270 C 
ATOM     13  O   UNL     1       3.542   2.127  -0.024  0.00  0.00    -0.485 OA
ENDBRANCH   1   9
BRANCH   1  14
ATOM     14  N   UNL     1      -1.947  -1.146  -1.570  0.00  0.00    -0.188 NA
ATOM     15  H   UNL     1      -2.753  -0.736  -1.919  0.00  0.00    +0.148 HD
BRANCH  14  16
ATOM     16  C   UNL     1      -1.112  -1.979  -2.440  0.00  0.00    +0.062 C 
ATOM     17  C   UNL     1      -0.168  -1.090  -3.275  0.00  0.00    +0.019 C 
ATOM     18  C   UNL     1      -0.103  -1.794  -4.653  0.00  0.00    -0.000 C 
ATOM     19  C   UNL     1      -1.556  -2.294  -4.850  0.00  0.00    -0.015 C 
ATOM     20  C   UNL     1      -1.995  -2.745  -3.440  0.00  0.00    -0.056 C 
BRANCH  20  21
ATOM     21  N   UNL     1      -3.409  -2.411  -3.223  0.00  0.00    +0.381 N 
ATOM     22  H   UNL     1      -3.544  -1.420  -3.353  0.00  0.00    -0.090 HD
ATOM     23  H   UNL     1      -3.979  -2.918  -3.883  0.00  0.00    -0.090 HD
ATOM     24  H   UNL     1      -3.674  -2.667  -2.283  0.00  0.00    -0.090 HD
ENDBRANCH  20  21
ENDBRANCH  14  16
ENDBRANCH   1  14
TORSDOF 4
