REMARK  Name = ZINC64215540
REMARK  6 active torsions:
REMARK  status: ('A' for Active; 'I' for Inactive)
REMARK    1  A    between atoms: C_4  and  C_7
REMARK    2  A    between atoms: C_7  and  C_9
REMARK    3  A    between atoms: C_7  and  C_27
REMARK    4  A    between atoms: C_9  and  N_10
REMARK    5  A    between atoms: C_11  and  C_13
REMARK    6  A    between atoms: C_13  and  N_14
REMARK                            x       y       z     vdW  Elec       q    Type
REMARK                         _______ _______ _______ _____ _____    ______ ____
ROOT
ATOM      1  C   UNL     1       3.711  -0.707  -0.038  0.00  0.00    +0.064 C 
ENDROOT
BRANCH   1   2
ATOM      2  C   UNL     1       3.816  -1.579   1.188  0.00  0.00    -0.033 C 
ATOM      3  C   UNL     1       4.756  -1.509   2.157  0.00  0.00    -0.000 A 
ATOM      4  C   UNL     1       5.920  -0.636   2.352  0.00  0.00    +0.010 A 
ATOM      5  C   UNL     1       6.696  -0.812   3.446  0.00  0.00    +0.001 A 
ATOM      6  C   UNL     1       6.417  -1.805   4.396  0.00  0.00    +0.002 A 
ATOM      7  C   UNL     1       5.366  -2.646   4.285  0.00  0.00    +0.026 A 
ATOM      8  C   UNL     1       4.483  -2.550   3.174  0.00  0.00    +0.043 A 
ATOM      9  N   UNL     1       3.415  -3.236   2.846  0.00  0.00    -0.380 N 
ATOM     10  C   UNL     1       2.886  -2.703   1.585  0.00  0.00    +0.145 C 
ATOM     11  H   UNL     1       3.036  -3.970   3.354  0.00  0.00    +0.160 HD
ENDBRANCH   1   2
BRANCH   1  15
ATOM     12  C   UNL     1      -0.017   1.378   0.010  0.00  0.00    +0.000 A 
ATOM     13  C   UNL     1       1.171   2.086   0.002  0.00  0.00    +0.000 A 
ATOM     14  C   UNL     1       2.377   1.411  -0.013  0.00  0.00    +0.004 A 
ATOM     15  C   UNL     1       2.396   0.029  -0.020  0.00  0.00    -0.039 A 
ATOM     16  C   UNL     1       1.208  -0.679  -0.012  0.00  0.00    +0.004 A 
ATOM     17  C   UNL     1       0.002  -0.004   0.002  0.00  0.00    +0.000 A 
ENDBRANCH   1  15
BRANCH   1  18
ATOM     18  C   UNL     1       3.791  -1.579  -1.292  0.00  0.00    +0.116 C 
BRANCH  18  19
ATOM     19  N   UNL     1       3.810  -0.724  -2.481  0.00  0.00    -0.313 N 
ATOM     20  C   UNL     1       3.878  -1.277  -3.708  0.00  0.00    +0.231 C 
ATOM     21  O   UNL     1       3.923  -2.483  -3.828  0.00  0.00    -0.274 OA
ATOM     22  H   UNL     1       3.773   0.241  -2.385  0.00  0.00    +0.149 HD
BRANCH  20  23
ATOM     23  C   UNL     1       3.897  -0.397  -4.932  0.00  0.00    +0.212 C 
BRANCH  23  24
ATOM     24  N   UNL     1       3.973  -1.232  -6.133  0.00  0.00    -0.233 N 
ATOM     25  C   UNL     1       5.147  -1.623  -6.695  0.00  0.00    +0.226 C 
ATOM     26  O   UNL     1       6.252  -1.536  -6.205  0.00  0.00    -0.275 OA
ATOM     27  C   UNL     1       4.800  -2.183  -8.041  0.00  0.00    +0.091 C 
ATOM     28  C   UNL     1       5.615  -3.346  -8.565  0.00  0.00    +0.040 C 
ATOM     29  C   UNL     1       4.852  -3.925  -9.738  0.00  0.00    -0.030 C 
ATOM     30  C   UNL     1       3.591  -3.713  -9.969  0.00  0.00    -0.030 C 
ATOM     31  C   UNL     1       2.690  -2.876  -9.086  0.00  0.00    +0.040 C 
ATOM     32  C   UNL     1       3.371  -2.734  -7.749  0.00  0.00    +0.091 C 
ATOM     33  C   UNL     1       2.878  -1.695  -6.789  0.00  0.00    +0.226 C 
ATOM     34  O   UNL     1       1.730  -1.338  -6.631  0.00  0.00    -0.275 OA
ENDBRANCH  23  24
ENDBRANCH  20  23
ENDBRANCH  18  19
ENDBRANCH   1  18
TORSDOF 6
