REMARK  Name = ZINC66731939
REMARK  9 active torsions:
REMARK  status: ('A' for Active; 'I' for Inactive)
REMARK    1  A    between atoms: C_1  and  C_2
REMARK    2  A    between atoms: C_4  and  N_9
REMARK    3  A    between atoms: C_6  and  C_8
REMARK    4  A    between atoms: C_13  and  O_16
REMARK    5  A    between atoms: O_16  and  C_17
REMARK    6  A    between atoms: C_17  and  C_19
REMARK    7  A    between atoms: C_19  and  C_21
REMARK    8  A    between atoms: C_19  and  N_22
REMARK    9  A    between atoms: C_23  and  C_25
REMARK                            x       y       z     vdW  Elec       q    Type
REMARK                         _______ _______ _______ _____ _____    ______ ____
ROOT
ATOM      1  N   UNL     1       0.030  -2.832  -2.322  0.00  0.00    -0.312 N 
ATOM      2  C   UNL     1       0.044  -4.300  -2.279  0.00  0.00    +0.107 C 
ATOM      3  C   UNL     1       1.214  -4.807  -3.129  0.00  0.00    +0.023 C 
ATOM      4  C   UNL     1       1.108  -4.220  -4.538  0.00  0.00    +0.048 C 
ATOM      5  C   UNL     1       1.190  -2.693  -4.464  0.00  0.00    +0.194 C 
ATOM      6  C   UNL     1       0.014  -2.163  -3.630  0.00  0.00    +0.151 C 
ENDROOT
BRANCH   1  10
ATOM      7  C   UNL     1      -0.452   1.464   0.034  0.00  0.00    +0.063 C 
ATOM      8  C   UNL     1      -0.204  -0.023   0.013  0.00  0.00    +0.017 A 
ATOM      9  C   UNL     1      -0.210  -0.716  -1.181  0.00  0.00    +0.064 A 
ATOM     10  C   UNL     1       0.026  -2.092  -1.150  0.00  0.00    +0.125 A 
ATOM     11  N   UNL     1       0.245  -2.681   0.022  0.00  0.00    -0.220 NA
ATOM     12  C   UNL     1       0.241  -1.980   1.137  0.00  0.00    +0.106 A 
ATOM     13  N   UNL     1       0.028  -0.680   1.141  0.00  0.00    -0.347 N 
ATOM     14  C   UNL     1       0.495  -2.684   2.445  0.00  0.00    +0.086 C 
ATOM     15  H   UNL     1       0.036  -0.197   1.982  0.00  0.00    +0.167 HD
ENDBRANCH   1  10
BRANCH   5  16
ATOM     16  O   UNL     1       1.122  -2.147  -5.783  0.00  0.00    -0.458 OA
BRANCH  16  17
ATOM     17  C   UNL     1       2.284  -1.974  -6.431  0.00  0.00    +0.328 C 
ATOM     18  O   UNL     1       3.325  -2.276  -5.897  0.00  0.00    -0.249 OA
BRANCH  17  19
ATOM     19  C   UNL     1       2.291  -1.404  -7.826  0.00  0.00    +0.179 C 
ATOM     20  C   UNL     1       1.666  -0.007  -7.809  0.00  0.00    +0.040 C 
BRANCH  19  21
ATOM     21  N   UNL     1       3.671  -1.315  -8.310  0.00  0.00    -0.302 N 
ATOM     22  C   UNL     1       3.923  -1.327  -9.635  0.00  0.00    +0.217 C 
ATOM     23  O   UNL     1       3.007  -1.411 -10.425  0.00  0.00    -0.275 OA
ATOM     24  H   UNL     1       4.404  -1.248  -7.678  0.00  0.00    +0.150 HD
BRANCH  22  25
ATOM     25  C   UNL     1       5.342  -1.236 -10.133  0.00  0.00    +0.075 C 
ATOM     26  C   UNL     1       5.882   0.203 -10.195  0.00  0.00    +0.013 C 
ATOM     27  C   UNL     1       6.552  -0.190 -11.522  0.00  0.00    +0.001 C 
ATOM     28  C   UNL     1       5.460  -1.263 -11.666  0.00  0.00    +0.013 C 
ENDBRANCH  22  25
ENDBRANCH  19  21
ENDBRANCH  17  19
ENDBRANCH  16  17
ENDBRANCH   5  16
TORSDOF 6
