REMARK  Name = ZINC50922991
REMARK  7 active torsions:
REMARK  status: ('A' for Active; 'I' for Inactive)
REMARK    1  A    between atoms: C_1  and  C_2
REMARK    2  A    between atoms: C_2  and  C_3
REMARK    3  A    between atoms: C_3  and  C_4
REMARK    4  A    between atoms: C_4  and  N_5
REMARK    5  A    between atoms: C_6  and  C_8
REMARK    6  A    between atoms: N_13  and  C_15
REMARK    7  A    between atoms: C_15  and  N_16
REMARK                            x       y       z     vdW  Elec       q    Type
REMARK                         _______ _______ _______ _____ _____    ______ ____
ROOT
ATOM      1  C   UNL     1       3.056  -7.780  -5.119  0.00  0.00    +0.043 C 
ENDROOT
BRANCH   1   2
ATOM      2  N   UNL     1       3.846  -8.248  -6.253  0.00  0.00    -0.241 N 
ATOM      3  C   UNL     1       3.362  -8.527  -7.484  0.00  0.00    +0.245 C 
ATOM      4  O   UNL     1       2.328  -8.156  -7.983  0.00  0.00    -0.273 OA
ATOM      5  C   UNL     1       4.397  -9.459  -8.089  0.00  0.00    +0.112 C 
ATOM      6  C   UNL     1       4.119 -10.877  -7.594  0.00  0.00    +0.035 C 
ATOM      7  C   UNL     1       4.840 -11.924  -8.443  0.00  0.00    +0.003 C 
ATOM      8  C   UNL     1       6.306 -12.122  -8.021  0.00  0.00    +0.000 C 
ATOM      9  C   UNL     1       7.131 -10.939  -8.559  0.00  0.00    +0.000 C 
ATOM     10  C   UNL     1       6.696 -10.615  -9.989  0.00  0.00    +0.000 C 
ATOM     11  C   UNL     1       5.950  -9.287 -10.056  0.00  0.00    +0.003 C 
ATOM     12  C   UNL     1       4.497  -9.380  -9.595  0.00  0.00    +0.035 C 
ATOM     13  N   UNL     1       5.599  -8.889  -7.445  0.00  0.00    -0.285 N 
ATOM     14  C   UNL     1       5.173  -8.428  -6.244  0.00  0.00    +0.308 C 
ATOM     15  O   UNL     1       5.896  -8.210  -5.300  0.00  0.00    -0.252 OA
ATOM     16  H   UNL     1       6.475  -8.740  -7.800  0.00  0.00    +0.151 HD
ENDBRANCH   1   2
BRANCH   1  21
ATOM     17  C   UNL     1       2.269  -4.308  -3.932  0.00  0.00    +0.058 C 
ATOM     18  C   UNL     1       1.528  -3.803  -5.173  0.00  0.00    +0.009 C 
ATOM     19  C   UNL     1       2.206  -4.366  -6.425  0.00  0.00    -0.018 C 
ATOM     20  C   UNL     1       2.227  -5.894  -6.344  0.00  0.00    -0.077 C 
ATOM     21  N   UNL     1       2.972  -6.314  -5.151  0.00  0.00    +0.391 N 
ATOM     22  C   UNL     1       2.288  -5.838  -3.942  0.00  0.00    -0.064 C 
ATOM     23  H   UNL     1       3.903  -5.927  -5.184  0.00  0.00    -0.079 HD
BRANCH  17  25
ATOM     24  N   UNL     1       1.425  -2.500  -2.470  0.00  0.00    -0.315 N 
ATOM     25  C   UNL     1       1.564  -3.822  -2.692  0.00  0.00    +0.214 C 
ATOM     26  O   UNL     1       1.121  -4.620  -1.894  0.00  0.00    -0.276 OA
ATOM     27  H   UNL     1       1.779  -1.861  -3.109  0.00  0.00    +0.149 HD
BRANCH  24  28
ATOM     28  C   UNL     1       0.739  -2.027  -1.265  0.00  0.00    +0.104 C 
BRANCH  28  29
ATOM     29  C   UNL     1       0.718  -0.497  -1.257  0.00  0.00    +0.018 C 
BRANCH  29  31
ATOM     30  C   UNL     1      -0.019   1.526   0.010  0.00  0.00    +0.004 C 
ATOM     31  C   UNL     1       0.002  -0.004   0.002  0.00  0.00    -0.002 C 
ENDBRANCH  29  31
ENDBRANCH  28  29
ENDBRANCH  24  28
ENDBRANCH  17  25
ENDBRANCH   1  21
TORSDOF 6
