REMARK  Name = ZINC09059315
REMARK  6 active torsions:
REMARK  status: ('A' for Active; 'I' for Inactive)
REMARK    1  A    between atoms: C_1  and  C_2
REMARK    2  A    between atoms: C_4  and  C_21
REMARK    3  A    between atoms: C_6  and  C_13
REMARK    4  A    between atoms: C_8  and  C_12
REMARK    5  A    between atoms: C_18  and  O_19
REMARK    6  A    between atoms: C_26  and  O_27
REMARK                            x       y       z     vdW  Elec       q    Type
REMARK                         _______ _______ _______ _____ _____    ______ ____
ROOT
ATOM      1  C   UNL     1      -3.886   0.677  -0.963  0.00  0.00    +0.014 C 
ATOM      2  C   UNL     1      -3.601  -0.598  -0.167  0.00  0.00    +0.043 C 
ATOM      3  C   UNL     1      -2.382  -0.382   0.737  0.00  0.00    -0.026 C 
ATOM      4  C   UNL     1      -0.858  -1.407  -0.851  0.00  0.00    -0.026 C 
ATOM      5  C   UNL     1      -1.973  -1.693  -1.863  0.00  0.00    +0.043 C 
ATOM      6  C   UNL     1      -3.290  -1.736  -1.117  0.00  0.00    +0.136 C 
ATOM      7  O   UNL     1      -4.067  -2.647  -1.274  0.00  0.00    -0.297 OA
ATOM      8  C   UNL     1      -2.013  -0.584  -2.916  0.00  0.00    +0.014 C 
ATOM      9  N   UNL     1      -1.178  -0.180  -0.095  0.00  0.00    +0.389 N 
ATOM     10  H   UNL     1      -0.385   0.059   0.512  0.00  0.00    -0.084 HD
ATOM     11  H   UNL     1      -1.349   0.588  -0.754  0.00  0.00    -0.084 HD
ENDROOT
BRANCH   4  12
ATOM     12  C   UNL     1       0.445  -1.207  -1.583  0.00  0.00    -0.018 A 
ATOM     13  C   UNL     1       0.915   0.070  -1.819  0.00  0.00    +0.020 A 
ATOM     14  C   UNL     1       2.110   0.255  -2.491  0.00  0.00    +0.018 A 
ATOM     15  C   UNL     1       2.837  -0.839  -2.927  0.00  0.00    +0.019 A 
ATOM     16  C   UNL     1       2.370  -2.117  -2.693  0.00  0.00    +0.047 A 
ATOM     17  C   UNL     1       1.171  -2.305  -2.019  0.00  0.00    +0.119 A 
ATOM     18 BR   UNL     1       2.752   2.004  -2.813  0.00  0.00    -0.050 Br
BRANCH  17  19
ATOM     19  O   UNL     1       0.710  -3.562  -1.787  0.00  0.00    -0.507 OA
ATOM     20  H   UNL     1       0.142  -3.908  -2.489  0.00  0.00    +0.292 HD
ENDBRANCH  17  19
ENDBRANCH   4  12
BRANCH   3  21
ATOM     21  C   UNL     1      -2.192  -1.585   1.624  0.00  0.00    -0.018 A 
ATOM     22  C   UNL     1      -3.203  -2.519   1.746  0.00  0.00    +0.020 A 
ATOM     23  C   UNL     1      -3.030  -3.624   2.560  0.00  0.00    +0.018 A 
ATOM     24  C   UNL     1      -1.845  -3.796   3.253  0.00  0.00    +0.019 A 
ATOM     25  C   UNL     1      -0.832  -2.865   3.133  0.00  0.00    +0.047 A 
ATOM     26  C   UNL     1      -1.002  -1.759   2.313  0.00  0.00    +0.119 A 
ATOM     27 BR   UNL     1      -4.416  -4.901   2.726  0.00  0.00    -0.050 Br
BRANCH  26  28
ATOM     28  O   UNL     1      -0.004  -0.845   2.190  0.00  0.00    -0.507 OA
ATOM     29  H   UNL     1      -0.045  -0.128   2.838  0.00  0.00    +0.292 HD
ENDBRANCH  26  28
ENDBRANCH   3  21
TORSDOF 4
