REMARK  Name = ZINC63529234
REMARK  7 active torsions:
REMARK  status: ('A' for Active; 'I' for Inactive)
REMARK    1  A    between atoms: C_1  and  O_2
REMARK    2  A    between atoms: O_2  and  C_3
REMARK    3  A    between atoms: C_6  and  C_9
REMARK    4  A    between atoms: N_13  and  C_22
REMARK    5  A    between atoms: C_14  and  C_16
REMARK    6  A    between atoms: C_22  and  C_23
REMARK    7  A    between atoms: C_23  and  C_24
REMARK                            x       y       z     vdW  Elec       q    Type
REMARK                         _______ _______ _______ _____ _____    ______ ____
ROOT
ATOM      1  C   UNL     1      -4.943  -2.609   0.037  0.00  0.00    +0.041 C 
ATOM      2  C   UNL     1      -5.000  -3.983  -0.069  0.00  0.00    +0.129 C 
ATOM      3  C   UNL     1      -6.212  -4.814  -0.184  0.00  0.00    +0.270 C 
ATOM      4  O   UNL     1      -7.368  -4.432  -0.206  0.00  0.00    -0.268 OA
ATOM      5  N   UNL     1      -5.771  -6.089  -0.260  0.00  0.00    -0.248 N 
ATOM      6  C   UNL     1      -4.395  -6.073  -0.199  0.00  0.00    +0.171 C 
ATOM      7  N   UNL     1      -3.947  -4.846  -0.093  0.00  0.00    -0.223 NA
ENDROOT
BRANCH   1  11
ATOM      8  C   UNL     1      -1.199  -0.636  -0.004  0.00  0.00    +0.120 A 
ATOM      9  C   UNL     1      -1.250  -2.026   0.017  0.00  0.00    +0.046 A 
ATOM     10  C   UNL     1      -2.459  -2.671   0.030  0.00  0.00    +0.011 A 
ATOM     11  C   UNL     1      -3.648  -1.926   0.023  0.00  0.00    -0.023 A 
ATOM     12  C   UNL     1      -3.590  -0.525   0.002  0.00  0.00    +0.011 A 
ATOM     13  C   UNL     1      -2.374   0.108  -0.006  0.00  0.00    +0.046 A 
BRANCH   8  15
ATOM     14  C   UNL     1       1.169  -0.827  -0.015  0.00  0.00    +0.277 C 
ATOM     15  O   UNL     1       0.001  -0.003  -0.018  0.00  0.00    -0.495 OA
ENDBRANCH   8  15
ENDBRANCH   1  11
BRANCH   6  16
ATOM     16  C   UNL     1      -3.546  -7.268  -0.250  0.00  0.00    +0.169 A 
ATOM     17  C   UNL     1      -2.182  -7.286  -0.187  0.00  0.00    +0.054 A 
ATOM     18  C   UNL     1      -1.791  -8.633  -0.272  0.00  0.00    +0.057 A 
ATOM     19  C   UNL     1      -2.919  -9.368  -0.382  0.00  0.00    +0.171 A 
ATOM     20  O   UNL     1      -3.976  -8.542  -0.364  0.00  0.00    -0.445 OA
ATOM     21 BR   UNL     1      -2.997 -11.252  -0.531  0.00  0.00    -0.008 Br
ENDBRANCH   6  16
BRANCH   5  22
ATOM     22  C   UNL     1      -6.612  -7.283  -0.386  0.00  0.00    +0.119 C 
BRANCH  22  23
ATOM     23  C   UNL     1      -6.841  -7.591  -1.866  0.00  0.00    +0.066 C 
BRANCH  23  24
ATOM     24  C   UNL     1      -7.719  -8.837  -1.998  0.00  0.00    +0.175 C 
ATOM     25  N   UNL     1      -7.030 -10.002  -1.427  0.00  0.00    -0.363 N 
ATOM     26  C   UNL     1      -6.877 -10.872  -2.382  0.00  0.00    +0.060 A 
ATOM     27  C   UNL     1      -6.269 -12.209  -2.428  0.00  0.00    +0.027 A 
ATOM     28  C   UNL     1      -6.256 -12.895  -3.588  0.00  0.00    +0.002 A 
ATOM     29  C   UNL     1      -6.805 -12.383  -4.777  0.00  0.00    +0.002 A 
ATOM     30  C   UNL     1      -7.386 -11.168  -4.846  0.00  0.00    +0.027 A 
ATOM     31  C   UNL     1      -7.458 -10.330  -3.641  0.00  0.00    +0.060 A 
ATOM     32  N   UNL     1      -7.948  -9.146  -3.415  0.00  0.00    -0.363 N 
ATOM     33  H   UNL     1      -6.741 -10.103  -0.506  0.00  0.00    +0.162 HD
ATOM     34  H   UNL     1      -8.385  -8.572  -4.064  0.00  0.00    +0.162 HD
ENDBRANCH  23  24
ENDBRANCH  22  23
ENDBRANCH   5  22
TORSDOF 6
