REMARK  Name = ZINC04411111
REMARK  11 active torsions:
REMARK  status: ('A' for Active; 'I' for Inactive)
REMARK    1  A    between atoms: C_1  and  C_2
REMARK    2  A    between atoms: C_5  and  C_37
REMARK    3  A    between atoms: C_6  and  N_8
REMARK    4  A    between atoms: N_8  and  C_9
REMARK    5  A    between atoms: C_9  and  C_11
REMARK    6  A    between atoms: C_9  and  C_16
REMARK    7  A    between atoms: N_18  and  C_19
REMARK    8  A    between atoms: C_24  and  C_26
REMARK    9  A    between atoms: C_26  and  C_27
REMARK   10  A    between atoms: C_27  and  C_28
REMARK   11  A    between atoms: C_33  and  C_36
REMARK                            x       y       z     vdW  Elec       q    Type
REMARK                         _______ _______ _______ _____ _____    ______ ____
ROOT
ATOM      1  N   UNL     1       0.046  -2.905   2.541  0.00  0.00    -0.252 N 
ATOM      2  C   UNL     1       1.142  -2.973   3.322  0.00  0.00    +0.221 C 
ATOM      3  O   UNL     1       1.050  -3.381   4.460  0.00  0.00    -0.275 OA
ENDROOT
BRANCH   1   9
ATOM      4  C   UNL     1      -0.112   0.845  -0.636  0.00  0.00    +0.044 C 
ATOM      5  C   UNL     1       0.079  -0.621  -0.341  0.00  0.00    -0.049 A 
ATOM      6  C   UNL     1       0.358  -1.502  -1.370  0.00  0.00    +0.004 A 
ATOM      7  C   UNL     1       0.535  -2.847  -1.103  0.00  0.00    +0.005 A 
ATOM      8  C   UNL     1       0.432  -3.315   0.192  0.00  0.00    -0.029 A 
ATOM      9  C   UNL     1       0.151  -2.434   1.227  0.00  0.00    +0.041 A 
ATOM     10  C   UNL     1      -0.020  -1.082   0.957  0.00  0.00    +0.027 A 
ATOM     11  C   UNL     1       0.624  -4.782   0.482  0.00  0.00    +0.045 C 
ENDBRANCH   1   9
BRANCH   1  12
ATOM     12  C   UNL     1      -1.256  -3.324   3.066  0.00  0.00    +0.233 C 
BRANCH  12  13
ATOM     13  C   UNL     1      -1.873  -4.333   2.133  0.00  0.00    +0.135 A 
ATOM     14  C   UNL     1      -2.408  -5.514   2.492  0.00  0.00    +0.047 A 
ATOM     15  C   UNL     1      -2.866  -6.134   1.307  0.00  0.00    +0.041 A 
ATOM     16  C   UNL     1      -2.584  -5.295   0.294  0.00  0.00    +0.195 A 
ATOM     17  O   UNL     1      -1.988  -4.204   0.801  0.00  0.00    -0.465 OA
ENDBRANCH  12  13
BRANCH  12  18
ATOM     18  C   UNL     1      -2.162  -2.125   3.180  0.00  0.00    +0.242 C 
ATOM     19  O   UNL     1      -1.760  -1.028   2.854  0.00  0.00    -0.273 OA
ATOM     20  N   UNL     1      -3.418  -2.272   3.644  0.00  0.00    -0.311 N 
ATOM     21  H   UNL     1      -3.740  -3.149   3.905  0.00  0.00    +0.149 HD
BRANCH  20  22
ATOM     22  C   UNL     1      -4.299  -1.106   3.755  0.00  0.00    +0.073 C 
ATOM     23  C   UNL     1      -4.105  -0.425   5.125  0.00  0.00    +0.022 C 
ATOM     24  C   UNL     1      -5.528   0.040   5.523  0.00  0.00    +0.002 C 
ATOM     25  C   UNL     1      -6.420  -1.122   5.021  0.00  0.00    +0.002 C 
ATOM     26  C   UNL     1      -5.771  -1.549   3.688  0.00  0.00    +0.022 C 
ENDBRANCH  20  22
ENDBRANCH  12  18
ENDBRANCH   1  12
BRANCH   2  27
ATOM     27  C   UNL     1       2.481  -2.542   2.781  0.00  0.00    +0.105 C 
BRANCH  27  28
ATOM     28  C   UNL     1       3.548  -2.718   3.863  0.00  0.00    +0.105 C 
BRANCH  28  29
ATOM     29  C   UNL     1       4.887  -2.287   3.322  0.00  0.00    +0.219 C 
ATOM     30  O   UNL     1       4.979  -1.879   2.184  0.00  0.00    -0.275 OA
ATOM     31  N   UNL     1       5.983  -2.355   4.104  0.00  0.00    -0.268 N 
ATOM     32  C   UNL     1       7.223  -1.956   3.603  0.00  0.00    +0.168 A 
ATOM     33  C   UNL     1       7.474  -1.457   2.306  0.00  0.00    +0.091 A 
ATOM     34  C   UNL     1       8.788  -1.186   2.210  0.00  0.00    +0.136 A 
ATOM     35  O   UNL     1       9.365  -1.491   3.383  0.00  0.00    -0.358 OA
ATOM     36  N   UNL     1       8.357  -1.972   4.255  0.00  0.00    -0.063 NA
ATOM     37  C   UNL     1       9.490  -0.634   0.996  0.00  0.00    +0.089 C 
ATOM     38  H   UNL     1       5.910  -2.682   5.014  0.00  0.00    +0.156 HD
ENDBRANCH  28  29
ENDBRANCH  27  28
ENDBRANCH   2  27
TORSDOF 8
