REMARK  Name = ZINC39296809
REMARK  4 active torsions:
REMARK  status: ('A' for Active; 'I' for Inactive)
REMARK    1  A    between atoms: C_7  and  C_9
REMARK    2  A    between atoms: C_9  and  C_10
REMARK    3  A    between atoms: N_12  and  C_13
REMARK    4  A    between atoms: C_15  and  C_26
REMARK                            x       y       z     vdW  Elec       q    Type
REMARK                         _______ _______ _______ _____ _____    ______ ____
ROOT
ATOM      1  C   UNL     1       5.874  -4.681   1.915  0.00  0.00    +0.143 C 
ATOM      2  C   UNL     1       5.861  -5.817   2.956  0.00  0.00    +0.109 C 
ATOM      3  C   UNL     1       6.607  -7.052   2.515  0.00  0.00    +0.016 C 
ATOM      4  C   UNL     1       7.402  -7.729   3.584  0.00  0.00    +0.005 C 
ATOM      5  C   UNL     1       8.901  -7.519   3.501  0.00  0.00    +0.000 C 
ATOM      6  C   UNL     1       9.400  -7.723   2.073  0.00  0.00    +0.001 C 
ATOM      7  C   UNL     1       8.704  -6.715   1.158  0.00  0.00    +0.014 C 
ATOM      8  C   UNL     1       7.222  -7.005   1.127  0.00  0.00    +0.052 C 
ATOM      9  S   UNL     1       6.371  -5.545   0.369  0.00  0.00    -0.134 S 
ENDROOT
BRANCH   2  10
ATOM     10  C   UNL     1       4.430  -6.197   3.236  0.00  0.00    +0.216 C 
ATOM     11  O   UNL     1       4.043  -7.322   2.996  0.00  0.00    -0.276 OA
ATOM     12  N   UNL     1       3.580  -5.289   3.755  0.00  0.00    -0.329 N 
ATOM     13  H   UNL     1       3.890  -4.390   3.947  0.00  0.00    +0.145 HD
ATOM     14  H   UNL     1       2.659  -5.534   3.935  0.00  0.00    +0.145 HD
ENDBRANCH   2  10
BRANCH   1  17
ATOM     15  C   UNL     1       4.401  -2.753   1.687  0.00  0.00    +0.223 C 
ATOM     16  O   UNL     1       5.380  -2.038   1.725  0.00  0.00    -0.275 OA
ATOM     17  N   UNL     1       4.540  -4.091   1.774  0.00  0.00    -0.302 N 
ATOM     18  H   UNL     1       3.758  -4.663   1.743  0.00  0.00    +0.150 HD
BRANCH  15  19
ATOM     19  C   UNL     1       3.030  -2.146   1.542  0.00  0.00    +0.191 C 
BRANCH  19  26
ATOM     20  C   UNL     1      -0.019   1.526   0.010  0.00  0.00    +0.003 C 
ATOM     21  C   UNL     1       1.417   2.058  -0.000  0.00  0.00    +0.019 C 
ATOM     22  C   UNL     1       2.144   1.577   1.259  0.00  0.00    +0.108 C 
ATOM     23  N   UNL     1       2.043   0.113   1.334  0.00  0.00    -0.301 N 
ATOM     24  C   UNL     1       0.714  -0.508   1.262  0.00  0.00    +0.108 C 
ATOM     25  C   UNL     1       0.002  -0.004   0.002  0.00  0.00    +0.019 C 
ATOM     26  C   UNL     1       3.149  -0.646   1.466  0.00  0.00    +0.224 C 
ATOM     27  O   UNL     1       4.241  -0.121   1.524  0.00  0.00    -0.275 OA
ENDBRANCH  19  26
ENDBRANCH  15  19
ENDBRANCH   1  17
TORSDOF 4
