REMARK  Name = ZINC39154624
REMARK  6 active torsions:
REMARK  status: ('A' for Active; 'I' for Inactive)
REMARK    1  A    between atoms: C_1  and  C_2
REMARK    2  A    between atoms: C_2  and  O_3
REMARK    3  A    between atoms: O_3  and  C_4
REMARK    4  A    between atoms: C_8  and  C_10
REMARK    5  A    between atoms: C_26  and  C_28
REMARK    6  A    between atoms: C_26  and  C_29
REMARK                            x       y       z     vdW  Elec       q    Type
REMARK                         _______ _______ _______ _____ _____    ______ ____
ROOT
ATOM      1  C   UNL     1       2.222  -4.257  -3.827  0.00  0.00    +0.222 C 
ATOM      2  N   UNL     1       3.317  -3.371  -4.244  0.00  0.00    -0.242 NA
ATOM      3  C   UNL     1       4.433  -4.045  -4.161  0.00  0.00    +0.150 C 
ATOM      4  C   UNL     1       5.822  -3.607  -4.471  0.00  0.00    +0.048 A 
ATOM      5  C   UNL     1       6.277  -2.304  -4.948  0.00  0.00    -0.020 A 
ATOM      6  C   UNL     1       7.605  -2.156  -5.157  0.00  0.00    +0.021 A 
ATOM      7  S   UNL     1       8.307  -3.724  -4.732  0.00  0.00    -0.075 S 
ATOM      8  C   UNL     1       6.811  -4.567  -4.279  0.00  0.00    +0.084 A 
ATOM      9  N   UNL     1       6.518  -5.828  -3.836  0.00  0.00    -0.262 N 
ATOM     10  C   UNL     1       5.251  -6.192  -3.567  0.00  0.00    +0.326 C 
ATOM     11  O   UNL     1       5.028  -7.321  -3.176  0.00  0.00    -0.251 OA
ATOM     12  N   UNL     1       4.221  -5.332  -3.720  0.00  0.00    -0.168 N 
ATOM     13  N   UNL     1       2.880  -5.534  -3.495  0.00  0.00    -0.203 NA
ATOM     14  C   UNL     1       8.293  -0.919  -5.644  0.00  0.00    +0.203 C 
ATOM     15  O   UNL     1       7.289  -0.027  -6.152  0.00  0.00    -0.368 OA
ATOM     16  C   UNL     1       6.180   0.148  -5.266  0.00  0.00    +0.068 C 
ATOM     17  C   UNL     1       5.338  -1.130  -5.214  0.00  0.00    +0.071 C 
ATOM     18  C   UNL     1       6.699   0.470  -3.863  0.00  0.00    +0.041 C 
ATOM     19  C   UNL     1       5.313   1.307  -5.761  0.00  0.00    +0.041 C 
ATOM     20  H   UNL     1       2.708  -5.791  -2.535  0.00  0.00    +0.148 HD
ATOM     21  H   UNL     1       7.234  -6.470  -3.714  0.00  0.00    +0.157 HD
ENDROOT
BRANCH   1  26
ATOM     22  C   UNL     1       0.777  -1.810  -1.336  0.00  0.00    +0.121 A 
ATOM     23  C   UNL     1       0.243  -2.669  -0.386  0.00  0.00    +0.045 A 
ATOM     24  C   UNL     1       0.351  -4.036  -0.554  0.00  0.00    +0.004 A 
ATOM     25  C   UNL     1       0.991  -4.548  -1.667  0.00  0.00    +0.007 A 
ATOM     26  C   UNL     1       1.525  -3.695  -2.615  0.00  0.00    -0.004 A 
ATOM     27  C   UNL     1       1.414  -2.327  -2.455  0.00  0.00    +0.052 A 
BRANCH  22  28
ATOM     28  O   UNL     1       0.671  -0.465  -1.174  0.00  0.00    -0.492 OA
BRANCH  28  30
ATOM     29  C   UNL     1      -0.019   1.526   0.010  0.00  0.00    +0.048 C 
ATOM     30  C   UNL     1       0.002  -0.004   0.002  0.00  0.00    +0.225 C 
ENDBRANCH  28  30
ENDBRANCH  22  28
ENDBRANCH   1  26
TORSDOF 3
