REMARK  Name = ZINC39687363
REMARK  4 active torsions:
REMARK  status: ('A' for Active; 'I' for Inactive)
REMARK    1  A    between atoms: C_4  and  C_35
REMARK    2  A    between atoms: C_5  and  C_7
REMARK    3  A    between atoms: C_11  and  C_20
REMARK    4  A    between atoms: N_22  and  C_23
REMARK                            x       y       z     vdW  Elec       q    Type
REMARK                         _______ _______ _______ _____ _____    ______ ____
ROOT
ATOM      1  C   UNL     1       1.385  -2.421  -0.153  0.00  0.00    +0.247 C 
ATOM      2  O   UNL     1       2.381  -3.108  -0.272  0.00  0.00    -0.270 OA
ATOM      3  N   UNL     1       0.180  -3.003   0.009  0.00  0.00    -0.296 N 
ATOM      4  C   UNL     1      -1.145  -2.344   0.071  0.00  0.00    +0.121 C 
ATOM      5  C   UNL     1      -2.086  -3.286  -0.715  0.00  0.00    +0.100 C 
ATOM      6  C   UNL     1      -1.407  -4.664  -0.647  0.00  0.00    -0.004 C 
ATOM      7  C   UNL     1      -0.118  -4.448   0.158  0.00  0.00    +0.115 C 
ATOM      8  C   UNL     1      -1.068  -5.155  -2.052  0.00  0.00    -0.010 C 
ATOM      9  C   UNL     1      -0.446  -6.551  -1.963  0.00  0.00    -0.082 C 
ATOM     10  N   UNL     1      -1.392  -7.470  -1.317  0.00  0.00    +0.379 N 
ATOM     11  C   UNL     1      -1.641  -7.042   0.065  0.00  0.00    -0.082 C 
ATOM     12  C   UNL     1      -2.313  -5.666   0.062  0.00  0.00    -0.010 C 
ATOM     13  H   UNL     1      -2.261  -7.471  -1.829  0.00  0.00    -0.086 HD
ATOM     14  H   UNL     1      -1.005  -8.402  -1.314  0.00  0.00    -0.086 HD
ENDROOT
BRANCH   1  19
ATOM     15  C   UNL     1       0.852   1.206   0.661  0.00  0.00    +0.001 A 
ATOM     16  C   UNL     1       1.702   1.814  -0.246  0.00  0.00    +0.001 A 
ATOM     17  C   UNL     1       2.450   1.048  -1.122  0.00  0.00    +0.013 A 
ATOM     18  C   UNL     1       2.352  -0.328  -1.097  0.00  0.00    +0.067 A 
ATOM     19  C   UNL     1       1.496  -0.947  -0.185  0.00  0.00    +0.049 A 
ATOM     20  C   UNL     1       0.745  -0.169   0.697  0.00  0.00    +0.013 A 
BRANCH  18  21
ATOM     21  C   UNL     1       3.167  -1.161  -2.053  0.00  0.00    +0.418 C 
ATOM     22  F   UNL     1       3.940  -0.321  -2.861  0.00  0.00    -0.166 F 
ATOM     23  F   UNL     1       4.006  -2.015  -1.329  0.00  0.00    -0.166 F 
ATOM     24  F   UNL     1       2.310  -1.921  -2.856  0.00  0.00    -0.166 F 
ENDBRANCH  18  21
ENDBRANCH   1  19
BRANCH   5  25
ATOM     25  C   UNL     1      -2.211  -2.829  -2.145  0.00  0.00    +0.218 C 
ATOM     26  O   UNL     1      -1.290  -2.248  -2.679  0.00  0.00    -0.275 OA
ATOM     27  N   UNL     1      -3.347  -3.065  -2.831  0.00  0.00    -0.312 N 
ATOM     28  H   UNL     1      -4.084  -3.530  -2.404  0.00  0.00    +0.149 HD
BRANCH  27  29
ATOM     29  C   UNL     1      -3.469  -2.621  -4.222  0.00  0.00    +0.076 C 
ATOM     30  C   UNL     1      -3.926  -1.161  -4.253  0.00  0.00    +0.041 C 
ATOM     31  C   UNL     1      -4.019  -0.690  -5.707  0.00  0.00    +0.108 C 
ATOM     32  N   UNL     1      -4.891  -1.611  -6.448  0.00  0.00    -0.317 N 
ATOM     33  C   UNL     1      -4.594  -3.049  -6.410  0.00  0.00    +0.108 C 
ATOM     34  C   UNL     1      -4.495  -3.494  -4.948  0.00  0.00    +0.041 C 
ATOM     35  C   UNL     1      -5.977  -1.131  -7.170  0.00  0.00    +0.099 A 
ATOM     36  C   UNL     1      -6.720  -2.003  -7.960  0.00  0.00    +0.042 A 
ATOM     37  C   UNL     1      -7.798  -1.512  -8.673  0.00  0.00    +0.005 A 
ATOM     38  C   UNL     1      -8.099  -0.159  -8.573  0.00  0.00    +0.018 A 
ATOM     39  C   UNL     1      -7.319   0.649  -7.771  0.00  0.00    +0.084 A 
ATOM     40  N   UNL     1      -6.299   0.152  -7.097  0.00  0.00    -0.350 N 
ATOM     41  H   UNL     1      -5.769   0.741  -6.537  0.00  0.00    +0.166 HD
ENDBRANCH  27  29
ENDBRANCH   5  25
TORSDOF 4
