REMARK  Name = ZINC63140039
REMARK  12 active torsions:
REMARK  status: ('A' for Active; 'I' for Inactive)
REMARK    1  A    between atoms: C_1  and  C_2
REMARK    2  A    between atoms: C_2  and  N_3
REMARK    3  A    between atoms: N_3  and  C_4
REMARK    4  A    between atoms: N_3  and  C_6
REMARK    5  A    between atoms: C_4  and  C_5
REMARK    6  A    between atoms: C_6  and  C_7
REMARK    7  A    between atoms: C_7  and  C_8
REMARK    8  A    between atoms: C_8  and  N_9
REMARK    9  A    between atoms: C_29  and  C_31
REMARK   10  A    between atoms: C_34  and  C_37
REMARK   11  A    between atoms: C_37  and  C_38
REMARK   12  A    between atoms: C_37  and  C_39
REMARK                            x       y       z     vdW  Elec       q    Type
REMARK                         _______ _______ _______ _____ _____    ______ ____
ROOT
ATOM      1  N   UNL     1      -3.867  -3.373   0.183  0.00  0.00    -0.291 N 
ATOM      2  C   UNL     1      -4.502  -3.482   1.486  0.00  0.00    +0.203 C 
ATOM      3  C   UNL     1      -5.763  -4.279   1.433  0.00  0.00    +0.234 C 
ATOM      4  O   UNL     1      -6.375  -4.434   2.469  0.00  0.00    -0.274 OA
ATOM      5  N   UNL     1      -6.268  -4.834   0.325  0.00  0.00    -0.279 N 
ATOM      6  C   UNL     1      -5.633  -4.700  -0.982  0.00  0.00    +0.167 C 
ATOM      7  C   UNL     1      -4.368  -3.909  -0.928  0.00  0.00    +0.237 C 
ATOM      8  O   UNL     1      -3.755  -3.748  -1.962  0.00  0.00    -0.274 OA
ATOM      9  C   UNL     1      -6.608  -4.043  -1.976  0.00  0.00    +0.065 C 
ATOM     10  C   UNL     1      -7.934  -4.742  -1.803  0.00  0.00    -0.034 C 
ATOM     11  C   UNL     1      -8.753  -5.305  -2.682  0.00  0.00    -0.001 A 
ATOM     12  C   UNL     1      -8.727  -5.357  -4.152  0.00  0.00    +0.010 A 
ATOM     13  C   UNL     1      -9.734  -6.052  -4.745  0.00  0.00    +0.001 A 
ATOM     14  C   UNL     1     -10.751  -6.693  -4.032  0.00  0.00    +0.002 A 
ATOM     15  C   UNL     1     -10.859  -6.688  -2.679  0.00  0.00    +0.026 A 
ATOM     16  C   UNL     1      -9.863  -5.983  -1.944  0.00  0.00    +0.043 A 
ATOM     17  N   UNL     1      -9.736  -5.798  -0.663  0.00  0.00    -0.375 N 
ATOM     18  C   UNL     1      -8.575  -4.937  -0.433  0.00  0.00    +0.131 C 
ATOM     19  C   UNL     1      -7.521  -5.611   0.450  0.00  0.00    +0.133 C 
ATOM     20  H   UNL     1     -10.312  -6.168   0.024  0.00  0.00    +0.160 HD
ENDROOT
BRANCH  19  21
ATOM     21  C   UNL     1      -7.982  -5.611   1.885  0.00  0.00    -0.025 A 
ATOM     22  C   UNL     1      -8.748  -4.566   2.365  0.00  0.00    +0.006 A 
ATOM     23  C   UNL     1      -9.170  -4.566   3.681  0.00  0.00    +0.004 A 
ATOM     24  C   UNL     1      -8.826  -5.612   4.517  0.00  0.00    -0.045 A 
ATOM     25  C   UNL     1      -8.061  -6.658   4.037  0.00  0.00    +0.004 A 
ATOM     26  C   UNL     1      -7.643  -6.660   2.719  0.00  0.00    +0.006 A 
BRANCH  24  27
ATOM     27  C   UNL     1      -9.286  -5.611   5.952  0.00  0.00    +0.013 C 
ATOM     28  C   UNL     1     -10.147  -6.849   6.213  0.00  0.00    +0.012 C 
ATOM     29  C   UNL     1      -8.068  -5.634   6.878  0.00  0.00    +0.012 C 
ENDBRANCH  24  27
ENDBRANCH  19  21
BRANCH   1  30
ATOM     30  C   UNL     1      -2.610  -2.627   0.086  0.00  0.00    +0.106 C 
BRANCH  30  31
ATOM     31  C   UNL     1      -2.912  -1.154  -0.199  0.00  0.00    +0.000 C 
BRANCH  31  32
ATOM     32  C   UNL     1      -1.599  -0.375  -0.300  0.00  0.00    -0.077 C 
BRANCH  32  33
ATOM     33  N   UNL     1      -1.881   1.011  -0.697  0.00  0.00    +0.379 N 
ATOM     34  H   UNL     1      -2.412   1.014  -1.555  0.00  0.00    -0.082 HD
BRANCH  33  36
ATOM     35  C   UNL     1      -3.057   3.076  -0.105  0.00  0.00    -0.017 C 
ATOM     36  C   UNL     1      -2.656   1.675   0.360  0.00  0.00    -0.082 C 
ENDBRANCH  33  36
BRANCH  33  37
ATOM     37  C   UNL     1      -0.616   1.729  -0.902  0.00  0.00    -0.082 C 
ATOM     38  C   UNL     1       0.118   1.136  -2.106  0.00  0.00    -0.017 C 
ENDBRANCH  33  37
ENDBRANCH  32  33
ENDBRANCH  31  32
ENDBRANCH  30  31
ENDBRANCH   1  30
TORSDOF 8
