REMARK  Name = ZINC28834427
REMARK  6 active torsions:
REMARK  status: ('A' for Active; 'I' for Inactive)
REMARK    1  A    between atoms: C_3  and  S_16
REMARK    2  A    between atoms: C_6  and  C_7
REMARK    3  A    between atoms: N_9  and  N_10
REMARK    4  A    between atoms: C_11  and  C_13
REMARK    5  A    between atoms: S_16  and  N_19
REMARK    6  A    between atoms: N_19  and  C_20
REMARK                            x       y       z     vdW  Elec       q    Type
REMARK                         _______ _______ _______ _____ _____    ______ ____
ROOT
ATOM      1  C   UNL     1      -5.859   4.402  -0.444  0.00  0.00    +0.015 A 
ATOM      2  C   UNL     1      -5.366   3.162  -0.096  0.00  0.00    +0.029 A 
ATOM      3  C   UNL     1      -4.229   3.060   0.686  0.00  0.00    +0.109 A 
ATOM      4  C   UNL     1      -3.583   4.201   1.130  0.00  0.00    +0.029 A 
ATOM      5  C   UNL     1      -4.064   5.447   0.786  0.00  0.00    +0.015 A 
ATOM      6  C   UNL     1      -5.210   5.557  -0.004  0.00  0.00    +0.038 A 
ENDROOT
BRANCH   6   7
ATOM      7  C   UNL     1      -5.732   6.889  -0.373  0.00  0.00    +0.260 C 
ATOM      8  O   UNL     1      -6.730   6.981  -1.061  0.00  0.00    -0.269 OA
ATOM      9  N   UNL     1      -5.103   8.002   0.053  0.00  0.00    -0.230 N 
ATOM     10  H   UNL     1      -4.200   7.919   0.676  0.00  0.00    +0.173 HD
BRANCH   9  11
ATOM     11  N   UNL     1      -5.598   9.265  -0.297  0.00  0.00    -0.234 N 
ATOM     12  C   UNL     1      -4.969  10.378   0.130  0.00  0.00    +0.232 C 
ATOM     13  O   UNL     1      -3.973  10.286   0.816  0.00  0.00    -0.274 OA
ATOM     14  H   UNL     1      -6.501   9.348  -0.919  0.00  0.00    +0.173 HD
BRANCH  12  15
ATOM     15  C   UNL     1      -5.502  11.736  -0.247  0.00  0.00    +0.076 C 
ATOM     16  C   UNL     1      -4.668  12.579  -1.214  0.00  0.00    +0.013 C 
ATOM     17  C   UNL     1      -4.741  12.960   0.266  0.00  0.00    +0.013 C 
ENDBRANCH  12  15
ENDBRANCH   9  11
ENDBRANCH   6   7
BRANCH   3  18
ATOM     18  S   UNL     1      -3.605   1.472   1.126  0.00  0.00    +0.072 S 
ATOM     19  O   UNL     1      -4.688   0.561   0.998  0.00  0.00    -0.150 OA
ATOM     20  O   UNL     1      -2.890   1.639   2.342  0.00  0.00    -0.150 OA
BRANCH  18  21
ATOM     21  N   UNL     1      -2.491   1.048  -0.025  0.00  0.00    -0.216 N 
ATOM     22  H   UNL     1      -2.669   0.173  -0.666  0.00  0.00    +0.174 HD
BRANCH  21  23
ATOM     23  C   UNL     1      -1.331   1.800  -0.179  0.00  0.00    +0.051 A 
ATOM     24  C   UNL     1      -1.178   2.665  -1.263  0.00  0.00    +0.042 A 
ATOM     25  C   UNL     1      -0.014   3.397  -1.377  0.00  0.00    +0.084 A 
ATOM     26  N   UNL     1       0.948   3.282  -0.480  0.00  0.00    -0.367 N 
ATOM     27  C   UNL     1       0.843   2.471   0.556  0.00  0.00    +0.084 A 
ATOM     28  C   UNL     1      -0.288   1.705   0.743  0.00  0.00    +0.042 A 
ATOM     29  H   UNL     1       1.870   3.873  -0.585  0.00  0.00    +0.165 HD
ENDBRANCH  21  23
ENDBRANCH  18  21
ENDBRANCH   3  18
TORSDOF 6
