REMARK  Name = ZINC04995030
REMARK  7 active torsions:
REMARK  status: ('A' for Active; 'I' for Inactive)
REMARK    1  A    between atoms: C_1  and  C_2
REMARK    2  A    between atoms: C_2  and  O_3
REMARK    3  A    between atoms: O_3  and  C_4
REMARK    4  A    between atoms: N_6  and  C_7
REMARK    5  A    between atoms: N_6  and  O_21
REMARK    6  A    between atoms: C_10  and  C_13
REMARK    7  A    between atoms: C_14  and  C_15
REMARK                            x       y       z     vdW  Elec       q    Type
REMARK                         _______ _______ _______ _____ _____    ______ ____
ROOT
ATOM      1  C   UNL     1      -1.677   6.108   0.803  0.00  0.00    +0.067 A 
ATOM      2  C   UNL     1      -2.807   5.298   0.822  0.00  0.00    +0.026 A 
ATOM      3  C   UNL     1      -2.682   3.933   0.684  0.00  0.00    +0.010 A 
ATOM      4  C   UNL     1      -1.415   3.363   0.524  0.00  0.00    -0.025 A 
ATOM      5  C   UNL     1      -0.281   4.180   0.510  0.00  0.00    +0.010 A 
ATOM      6  C   UNL     1      -0.416   5.544   0.645  0.00  0.00    +0.026 A 
ENDROOT
BRANCH   1   9
ATOM      7  C   UNL     1      -2.430   8.003   2.026  0.00  0.00    +0.431 C 
ATOM      8  O   UNL     1      -2.800   7.266   2.919  0.00  0.00    -0.224 OA
ATOM      9  N   UNL     1      -1.809   7.492   0.944  0.00  0.00    -0.116 N 
BRANCH   9  10
ATOM     10  O   UNL     1      -1.291   8.358  -0.049  0.00  0.00    -0.285 OA
ATOM     11  H   UNL     1      -1.430   9.297   0.136  0.00  0.00    +0.242 HD
ENDBRANCH   9  10
BRANCH   7  12
ATOM     12  O   UNL     1      -2.641   9.330   2.117  0.00  0.00    -0.449 OA
BRANCH  12  14
ATOM     13  C   UNL     1      -3.464  11.331   3.235  0.00  0.00    +0.048 C 
ATOM     14  C   UNL     1      -3.316   9.810   3.310  0.00  0.00    +0.230 C 
ENDBRANCH  12  14
ENDBRANCH   7  12
ENDBRANCH   1   9
BRANCH   4  15
ATOM     15  C   UNL     1      -1.276   1.903   0.376  0.00  0.00    +0.008 C 
ATOM     16  C   UNL     1      -0.339   1.398  -0.443  0.00  0.00    +0.008 C 
BRANCH  16  17
ATOM     17  C   UNL     1       0.398   2.288  -1.357  0.00  0.00    -0.025 A 
ATOM     18  C   UNL     1      -0.268   3.322  -2.020  0.00  0.00    +0.008 A 
ATOM     19  C   UNL     1       0.430   4.154  -2.871  0.00  0.00    +0.001 A 
ATOM     20  C   UNL     1       1.785   3.960  -3.076  0.00  0.00    +0.000 A 
ATOM     21  C   UNL     1       2.450   2.935  -2.426  0.00  0.00    +0.001 A 
ATOM     22  C   UNL     1       1.767   2.098  -1.569  0.00  0.00    +0.008 A 
ENDBRANCH  16  17
ENDBRANCH   4  15
TORSDOF 6
