REMARK  Name = ZINC27241663
REMARK  9 active torsions:
REMARK  status: ('A' for Active; 'I' for Inactive)
REMARK    1  A    between atoms: C_1  and  O_2
REMARK    2  A    between atoms: O_2  and  C_3
REMARK    3  A    between atoms: C_6  and  C_9
REMARK    4  A    between atoms: C_9  and  C_10
REMARK    5  A    between atoms: C_9  and  C_17
REMARK    6  A    between atoms: C_9  and  O_32
REMARK    7  A    between atoms: C_17  and  C_19
REMARK    8  A    between atoms: C_17  and  C_26
REMARK    9  A    between atoms: C_19  and  N_20
REMARK                            x       y       z     vdW  Elec       q    Type
REMARK                         _______ _______ _______ _____ _____    ______ ____
ROOT
ATOM      1  C   UNL     1       1.518   3.754   0.076  0.00  0.00    +0.099 C 
ENDROOT
BRANCH   1   2
ATOM      2  C   UNL     1       1.903   2.300   0.161  0.00  0.00    -0.015 A 
ATOM      3  C   UNL     1       2.568   1.698  -0.891  0.00  0.00    +0.007 A 
ATOM      4  C   UNL     1       2.921   0.364  -0.814  0.00  0.00    +0.015 A 
ATOM      5  C   UNL     1       2.608  -0.369   0.316  0.00  0.00    +0.018 A 
ATOM      6  C   UNL     1       1.943   0.233   1.369  0.00  0.00    +0.015 A 
ATOM      7  C   UNL     1       1.590   1.567   1.291  0.00  0.00    +0.007 A 
ATOM      8 BR   UNL     1       3.091  -2.195   0.422  0.00  0.00    -0.050 Br
ENDBRANCH   1   2
BRANCH   1  12
ATOM      9  C   UNL     1       5.541   4.884   1.200  0.00  0.00    +0.118 C 
ATOM     10  C   UNL     1       4.407   5.184   2.183  0.00  0.00    +0.032 C 
ATOM     11  C   UNL     1       3.195   4.315   1.842  0.00  0.00    +0.009 C 
ATOM     12  C   UNL     1       2.730   4.623   0.417  0.00  0.00    +0.026 C 
ATOM     13  C   UNL     1       3.865   4.323  -0.565  0.00  0.00    +0.009 C 
ATOM     14  C   UNL     1       5.077   5.192  -0.224  0.00  0.00    +0.032 C 
BRANCH   9  16
ATOM     15  C   UNL     1       7.929   5.097   1.188  0.00  0.00    +0.194 C 
ATOM     16  O   UNL     1       6.674   5.695   1.519  0.00  0.00    -0.380 OA
ENDBRANCH   9  16
ENDBRANCH   1  12
BRANCH   1  17
ATOM     17  O   UNL     1       0.464   4.023   1.004  0.00  0.00    -0.383 OA
ATOM     18  H   UNL     1      -0.494   3.489   0.917  0.00  0.00    +0.211 HD
ENDBRANCH   1  17
BRANCH   1  19
ATOM     19  C   UNL     1       1.043   4.075  -1.342  0.00  0.00    +0.039 C 
BRANCH  19  20
ATOM     20  C   UNL     1       0.734   5.546  -1.448  0.00  0.00    -0.043 A 
ATOM     21  C   UNL     1      -0.410   6.055  -0.862  0.00  0.00    +0.004 A 
ATOM     22  C   UNL     1      -0.692   7.406  -0.956  0.00  0.00    +0.000 A 
ATOM     23  C   UNL     1       0.166   8.244  -1.643  0.00  0.00    +0.000 A 
ATOM     24  C   UNL     1       1.307   7.734  -2.233  0.00  0.00    +0.000 A 
ATOM     25  C   UNL     1       1.591   6.385  -2.136  0.00  0.00    +0.004 A 
ENDBRANCH  19  20
BRANCH  19  26
ATOM     26  C   UNL     1      -0.217   3.265  -1.654  0.00  0.00    -0.068 C 
BRANCH  26  27
ATOM     27  N   UNL     1      -0.628   3.512  -3.042  0.00  0.00    +0.380 N 
ATOM     28  C   UNL     1      -2.037   3.154  -3.246  0.00  0.00    -0.079 C 
ATOM     29  C   UNL     1      -2.469   3.559  -4.657  0.00  0.00    -0.019 C 
ATOM     30  C   UNL     1      -1.587   2.840  -5.682  0.00  0.00    -0.004 C 
ATOM     31  C   UNL     1      -0.120   3.192  -5.417  0.00  0.00    -0.019 C 
ATOM     32  C   UNL     1       0.243   2.797  -3.984  0.00  0.00    -0.079 C 
ATOM     33  H   UNL     1      -0.523   4.589  -3.240  0.00  0.00    -0.082 HD
ENDBRANCH  26  27
ENDBRANCH  19  26
ENDBRANCH   1  19
TORSDOF 8
