REMARK  Name = ZINC32074213
REMARK  8 active torsions:
REMARK  status: ('A' for Active; 'I' for Inactive)
REMARK    1  A    between atoms: C_1  and  C_2
REMARK    2  A    between atoms: C_2  and  C_3
REMARK    3  A    between atoms: C_3  and  O_4
REMARK    4  A    between atoms: O_4  and  C_5
REMARK    5  A    between atoms: C_8  and  C_11
REMARK    6  A    between atoms: C_19  and  C_30
REMARK    7  A    between atoms: C_25  and  O_28
REMARK    8  A    between atoms: O_28  and  C_29
REMARK                            x       y       z     vdW  Elec       q    Type
REMARK                         _______ _______ _______ _____ _____    ______ ____
ROOT
ATOM      1  C   UNL     1       3.240  -4.426  -5.648  0.00  0.00    +0.063 C 
ATOM      2  C   UNL     1       4.392  -5.306  -5.152  0.00  0.00    +0.109 C 
ATOM      3  C   UNL     1       4.827  -6.279  -6.211  0.00  0.00    +0.219 C 
ATOM      4  O   UNL     1       6.009  -6.522  -6.336  0.00  0.00    -0.275 OA
ATOM      5  N   UNL     1       3.944  -6.892  -7.027  0.00  0.00    -0.270 N 
ATOM      6  C   UNL     1       2.620  -6.458  -7.006  0.00  0.00    +0.134 A 
ATOM      7  C   UNL     1       2.248  -5.304  -6.367  0.00  0.00    +0.023 A 
ATOM      8  C   UNL     1       0.878  -5.150  -6.521  0.00  0.00    +0.066 A 
ATOM      9  N   UNL     1       0.428  -6.156  -7.236  0.00  0.00    -0.168 NA
ATOM     10  N   UNL     1       1.511  -6.990  -7.562  0.00  0.00    -0.198 N 
ATOM     11  C   UNL     1       1.452  -8.161  -8.327  0.00  0.00    +0.178 A 
ATOM     12  C   UNL     1       0.261  -8.881  -8.411  0.00  0.00    +0.055 A 
ATOM     13  C   UNL     1       0.251 -10.032  -9.180  0.00  0.00    +0.072 A 
ATOM     14  C   UNL     1       1.432 -10.399  -9.822  0.00  0.00    +0.234 A 
ATOM     15  N   UNL     1       2.516  -9.654  -9.684  0.00  0.00    -0.110 NA
ATOM     16  N   UNL     1       2.524  -8.583  -8.976  0.00  0.00    -0.126 NA
ATOM     17  C   UNL     1       0.048  -4.023  -5.964  0.00  0.00    +0.068 C 
ATOM     18  H   UNL     1       4.223  -7.614  -7.612  0.00  0.00    +0.156 HD
ENDROOT
BRANCH   1  22
ATOM     19  C   UNL     1       1.341  -2.529  -2.322  0.00  0.00    +0.121 A 
ATOM     20  C   UNL     1       1.909  -1.762  -3.329  0.00  0.00    +0.046 A 
ATOM     21  C   UNL     1       2.522  -2.377  -4.403  0.00  0.00    +0.008 A 
ATOM     22  C   UNL     1       2.571  -3.757  -4.475  0.00  0.00    -0.039 A 
ATOM     23  C   UNL     1       2.006  -4.524  -3.473  0.00  0.00    +0.008 A 
ATOM     24  C   UNL     1       1.397  -3.914  -2.394  0.00  0.00    +0.046 A 
BRANCH  19  25
ATOM     25  O   UNL     1       0.738  -1.926  -1.265  0.00  0.00    -0.492 OA
BRANCH  25  26
ATOM     26  C   UNL     1       0.718  -0.497  -1.257  0.00  0.00    +0.229 C 
BRANCH  26  28
ATOM     27  C   UNL     1      -0.019   1.526   0.010  0.00  0.00    +0.007 C 
ATOM     28  C   UNL     1       0.002  -0.004   0.002  0.00  0.00    +0.038 C 
ENDBRANCH  26  28
ENDBRANCH  25  26
ENDBRANCH  19  25
ENDBRANCH   1  22
BRANCH  14  29
ATOM     29  O   UNL     1       1.471 -11.521 -10.586  0.00  0.00    -0.479 OA
ATOM     30  C   UNL     1       2.715 -11.835 -11.214  0.00  0.00    +0.279 C 
ENDBRANCH  14  29
TORSDOF 5
