REMARK  Name = ZINC63829902
REMARK  4 active torsions:
REMARK  status: ('A' for Active; 'I' for Inactive)
REMARK    1  A    between atoms: C_7  and  C_10
REMARK    2  A    between atoms: C_13  and  S_15
REMARK    3  A    between atoms: S_15  and  C_16
REMARK    4  A    between atoms: C_16  and  C_17
REMARK                            x       y       z     vdW  Elec       q    Type
REMARK                         _______ _______ _______ _____ _____    ______ ____
ROOT
ATOM      1  C   UNL     1       0.676  -3.130  -0.022  0.00  0.00    +0.248 A 
ATOM      2  N   UNL     1      -0.646  -3.061  -0.014  0.00  0.00    -0.107 NA
ATOM      3  N   UNL     1      -1.132  -4.253  -0.015  0.00  0.00    -0.101 NA
ATOM      4  C   UNL     1      -0.141  -5.131  -0.023  0.00  0.00    +0.278 A 
ATOM      5  O   UNL     1       1.013  -4.441  -0.033  0.00  0.00    -0.411 OA
ENDROOT
BRANCH   1  12
ATOM      6  C   UNL     1      -0.016   1.354   0.009  0.00  0.00    +0.001 A 
ATOM      7  C   UNL     1       1.163   2.101   0.002  0.00  0.00    +0.002 A 
ATOM      8  C   UNL     1       2.384   1.511  -0.013  0.00  0.00    +0.026 A 
ATOM      9  C   UNL     1       2.483   0.096  -0.022  0.00  0.00    +0.043 A 
ATOM     10  N   UNL     1       3.531  -0.705  -0.037  0.00  0.00    -0.380 N 
ATOM     11  C   UNL     1       3.075  -2.098  -0.041  0.00  0.00    +0.154 C 
ATOM     12  C   UNL     1       1.563  -2.044  -0.025  0.00  0.00    +0.044 C 
ATOM     13  C   UNL     1       1.237  -0.687  -0.013  0.00  0.00    +0.008 A 
ATOM     14  C   UNL     1       0.002  -0.004   0.002  0.00  0.00    +0.010 A 
ATOM     15  H   UNL     1       4.457  -0.417  -0.045  0.00  0.00    +0.160 HD
ENDBRANCH   1  12
BRANCH   4  16
ATOM     16  S   UNL     1      -0.305  -6.886  -0.026  0.00  0.00    -0.061 S 
BRANCH  16  17
ATOM     17  C   UNL     1      -2.099  -7.159  -0.017  0.00  0.00    +0.115 C 
BRANCH  17  18
ATOM     18  C   UNL     1      -2.382  -8.639  -0.018  0.00  0.00    -0.019 A 
ATOM     19  C   UNL     1      -2.512  -9.315  -1.217  0.00  0.00    +0.055 A 
ATOM     20  C   UNL     1      -2.771 -10.677  -1.222  0.00  0.00    +0.162 A 
ATOM     21  C   UNL     1      -2.898 -11.361  -0.018  0.00  0.00    +0.163 A 
ATOM     22  C   UNL     1      -2.768 -10.677   1.181  0.00  0.00    +0.065 A 
ATOM     23  C   UNL     1      -2.505  -9.319   1.179  0.00  0.00    +0.026 A 
ATOM     24 BR   UNL     1      -2.319  -8.391   2.816  0.00  0.00    -0.050 Br
ATOM     25  O   UNL     1      -3.144 -12.700  -0.000  0.00  0.00    -0.485 OA
ATOM     26  C   UNL     1      -3.638 -13.279  -1.213  0.00  0.00    +0.270 C 
ATOM     27  C   UNL     1      -2.786 -12.755  -2.377  0.00  0.00    +0.270 C 
ATOM     28  O   UNL     1      -2.901 -11.328  -2.410  0.00  0.00    -0.485 OA
ENDBRANCH  17  18
ENDBRANCH  16  17
ENDBRANCH   4  16
TORSDOF 4
