REMARK  Name = ZINC39711356
REMARK  9 active torsions:
REMARK  status: ('A' for Active; 'I' for Inactive)
REMARK    1  A    between atoms: C_1  and  O_2
REMARK    2  A    between atoms: O_2  and  C_3
REMARK    3  A    between atoms: C_3  and  C_4
REMARK    4  A    between atoms: C_4  and  N_5
REMARK    5  A    between atoms: C_6  and  C_10
REMARK    6  A    between atoms: C_10  and  C_12
REMARK    7  A    between atoms: C_10  and  N_26
REMARK    8  A    between atoms: C_17  and  O_24
REMARK    9  A    between atoms: O_24  and  C_25
REMARK                            x       y       z     vdW  Elec       q    Type
REMARK                         _______ _______ _______ _____ _____    ______ ____
ROOT
ATOM      1  C   UNL     1      -0.752  -2.832  -3.744  0.00  0.00    +0.142 C 
ENDROOT
BRANCH   1   2
ATOM      2  C   UNL     1      -1.443  -4.198  -3.722  0.00  0.00    +0.123 C 
ATOM      3  C   UNL     1      -1.230  -4.805  -2.349  0.00  0.00    -0.003 C 
ATOM      4  C   UNL     1      -2.341  -5.131  -1.630  0.00  0.00    -0.003 A 
ATOM      5  C   UNL     1      -2.225  -5.722  -0.297  0.00  0.00    +0.055 A 
ATOM      6  C   UNL     1      -3.363  -6.032   0.385  0.00  0.00    +0.121 A 
ATOM      7  C   UNL     1      -4.628  -5.796  -0.167  0.00  0.00    +0.047 A 
ATOM      8  C   UNL     1      -4.798  -5.251  -1.399  0.00  0.00    +0.027 A 
ATOM      9  C   UNL     1      -3.686  -4.894  -2.184  0.00  0.00    +0.041 A 
ATOM     10  N   UNL     1      -3.869  -4.359  -3.391  0.00  0.00    -0.284 N 
ATOM     11  C   UNL     1      -2.870  -4.003  -4.181  0.00  0.00    +0.226 C 
ATOM     12  O   UNL     1      -3.100  -3.519  -5.273  0.00  0.00    -0.275 OA
ATOM     13  H   UNL     1      -4.777  -4.226  -3.705  0.00  0.00    +0.155 HD
BRANCH   6  14
ATOM     14  O   UNL     1      -3.268  -6.582   1.624  0.00  0.00    -0.495 OA
ATOM     15  C   UNL     1      -4.493  -6.887   2.294  0.00  0.00    +0.277 C 
ENDBRANCH   6  14
ENDBRANCH   1   2
BRANCH   1  16
ATOM     16  N   UNL     1      -0.859  -2.251  -5.088  0.00  0.00    -0.287 NA
ATOM     17  C   UNL     1      -0.192  -3.103  -6.085  0.00  0.00    +0.113 C 
ATOM     18  C   UNL     1      -0.378  -2.492  -7.476  0.00  0.00    +0.175 C 
ATOM     19  O   UNL     1       0.132  -1.156  -7.477  0.00  0.00    -0.377 OA
ATOM     20  C   UNL     1      -0.495  -0.299  -6.519  0.00  0.00    +0.175 C 
ATOM     21  C   UNL     1      -0.310  -0.888  -5.118  0.00  0.00    +0.113 C 
ENDBRANCH   1  16
BRANCH   1  23
ATOM     22  N   UNL     1       1.279  -2.677  -2.210  0.00  0.00    -0.225 N 
ATOM     23  C   UNL     1       0.701  -2.999  -3.382  0.00  0.00    +0.170 A 
ATOM     24  N   UNL     1       1.647  -3.486  -4.147  0.00  0.00    -0.112 NA
ATOM     25  N   UNL     1       2.749  -3.464  -3.480  0.00  0.00    -0.023 NA
ATOM     26  N   UNL     1       2.531  -2.971  -2.311  0.00  0.00    -0.044 NA
BRANCH  22  27
ATOM     27  C   UNL     1       0.613  -2.097  -1.041  0.00  0.00    +0.175 C 
BRANCH  27  28
ATOM     28  C   UNL     1       0.652  -0.570  -1.138  0.00  0.00    +0.183 C 
BRANCH  28  30
ATOM     29  C   UNL     1      -0.017   1.425   0.010  0.00  0.00    +0.194 C 
ATOM     30  O   UNL     1       0.002  -0.004   0.002  0.00  0.00    -0.381 OA
ENDBRANCH  28  30
ENDBRANCH  27  28
ENDBRANCH  22  27
ENDBRANCH   1  23
TORSDOF 7
