REMARK  Name = ZINC06589136
REMARK  8 active torsions:
REMARK  status: ('A' for Active; 'I' for Inactive)
REMARK    1  A    between atoms: C_1  and  C_2
REMARK    2  A    between atoms: C_5  and  C_7
REMARK    3  A    between atoms: C_7  and  N_48
REMARK    4  A    between atoms: C_8  and  N_48
REMARK    5  A    between atoms: C_9  and  C_10
REMARK    6  A    between atoms: C_9  and  N_48
REMARK    7  A    between atoms: N_12  and  C_13
REMARK    8  A    between atoms: C_14  and  C_22
REMARK                            x       y       z     vdW  Elec       q    Type
REMARK                         _______ _______ _______ _____ _____    ______ ____
ROOT
ATOM      1  C   UNL     1      -2.796  -2.706   2.873  0.00  0.00    +0.201 C 
ATOM      2  O   UNL     1      -2.142  -2.199   3.760  0.00  0.00    -0.278 OA
ATOM      3  N   UNL     1      -3.688  -3.673   3.163  0.00  0.00    -0.281 N 
ATOM      4  H   UNL     1      -4.211  -4.079   2.454  0.00  0.00    +0.155 HD
ENDROOT
BRANCH   3   5
ATOM      5  C   UNL     1      -3.860  -4.088   4.475  0.00  0.00    +0.084 A 
ATOM      6  C   UNL     1      -4.724  -5.055   4.968  0.00  0.00    +0.068 A 
ATOM      7  C   UNL     1      -4.707  -5.305   6.399  0.00  0.00    -0.023 A 
ATOM      8  C   UNL     1      -3.841  -4.547   7.105  0.00  0.00    -0.004 A 
ATOM      9  S   UNL     1      -3.051  -3.520   5.898  0.00  0.00    -0.077 S 
ATOM     10  C   UNL     1      -3.610  -4.579   8.584  0.00  0.00    +0.043 C 
ATOM     11  C   UNL     1      -4.772  -5.341   9.238  0.00  0.00    +0.005 C 
ATOM     12  C   UNL     1      -5.003  -6.644   8.468  0.00  0.00    +0.005 C 
ATOM     13  C   UNL     1      -5.591  -6.336   7.090  0.00  0.00    +0.037 C 
BRANCH   6  14
ATOM     14  C   UNL     1      -5.620  -5.800   4.076  0.00  0.00    +0.244 C 
ATOM     15  O   UNL     1      -5.247  -6.843   3.572  0.00  0.00    -0.270 OA
ATOM     16  N   UNL     1      -6.855  -5.329   3.815  0.00  0.00    -0.325 N 
ATOM     17  H   UNL     1      -7.152  -4.497   4.217  0.00  0.00    +0.145 HD
ATOM     18  H   UNL     1      -7.447  -5.821   3.226  0.00  0.00    +0.145 HD
ENDBRANCH   6  14
ENDBRANCH   3   5
BRANCH   1  19
ATOM     19  C   UNL     1      -2.609  -2.255   1.447  0.00  0.00    +0.019 C 
BRANCH  19  21
ATOM     20  C   UNL     1      -2.047   0.011   2.089  0.00  0.00    -0.095 C 
ATOM     21  N   UNL     1      -1.565  -1.210   1.410  0.00  0.00    +0.388 N 
ATOM     22  H   UNL     1      -0.730  -1.556   1.898  0.00  0.00    -0.081 HD
BRANCH  21  23
ATOM     23  C   UNL     1      -1.208  -0.902   0.009  0.00  0.00    -0.003 C 
BRANCH  23  28
ATOM     24  C   UNL     1       1.647   3.256   0.004  0.00  0.00    +0.086 C 
ATOM     25  C   UNL     1       1.244   1.804  -0.000  0.00  0.00    +0.102 A 
ATOM     26  C   UNL     1       2.084   0.754  -0.014  0.00  0.00    +0.044 A 
ATOM     27  C   UNL     1       1.284  -0.412  -0.012  0.00  0.00    +0.043 A 
ATOM     28  C   UNL     1       0.002  -0.004   0.002  0.00  0.00    +0.089 A 
ATOM     29  O   UNL     1      -0.016   1.339   0.009  0.00  0.00    -0.467 OA
ENDBRANCH  23  28
ENDBRANCH  21  23
ENDBRANCH  19  21
ENDBRANCH   1  19
TORSDOF 6
