REMARK  Name = ZINC08792014
REMARK  7 active torsions:
REMARK  status: ('A' for Active; 'I' for Inactive)
REMARK    1  A    between atoms: C_1  and  C_2
REMARK    2  A    between atoms: N_5  and  C_17
REMARK    3  A    between atoms: N_8  and  C_9
REMARK    4  A    between atoms: C_12  and  O_15
REMARK    5  A    between atoms: O_15  and  C_16
REMARK    6  A    between atoms: C_17  and  C_18
REMARK    7  A    between atoms: C_25  and  C_38
REMARK                            x       y       z     vdW  Elec       q    Type
REMARK                         _______ _______ _______ _____ _____    ______ ____
ROOT
ATOM      1  C   UNL     1       1.454  -2.988  -2.182  0.00  0.00    -0.064 C 
ENDROOT
BRANCH   1   2
ATOM      2  C   UNL     1       1.088  -4.466  -2.035  0.00  0.00    +0.088 C 
ATOM      3  C   UNL     1       1.766  -5.312  -3.155  0.00  0.00    +0.042 C 
ATOM      4  C   UNL     1       2.090  -6.673  -2.535  0.00  0.00    +0.014 C 
ATOM      5  C   UNL     1       2.319  -7.721  -3.621  0.00  0.00    +0.030 C 
ATOM      6  C   UNL     1       1.015  -7.881  -4.416  0.00  0.00    -0.023 C 
ATOM      7  C   UNL     1       1.184  -8.997  -5.446  0.00  0.00    +0.007 C 
ATOM      8  C   UNL     1       1.434 -10.327  -4.734  0.00  0.00    +0.003 C 
ATOM      9  C   UNL     1       2.747 -10.248  -3.949  0.00  0.00    +0.037 C 
ATOM     10  C   UNL     1       2.697  -9.058  -2.982  0.00  0.00    +0.096 C 
ATOM     11  C   UNL     1       3.659  -9.040  -1.796  0.00  0.00    +0.196 C 
ATOM     12  O   UNL     1       2.263  -9.309  -1.647  0.00  0.00    -0.368 OA
ATOM     13  C   UNL     1       0.732  -6.557  -5.127  0.00  0.00    +0.052 C 
ATOM     14  C   UNL     1       0.594  -5.406  -4.151  0.00  0.00    +0.181 C 
ATOM     15  O   UNL     1      -0.559  -5.526  -3.311  0.00  0.00    -0.461 OA
ATOM     16  C   UNL     1      -0.397  -4.673  -2.270  0.00  0.00    +0.309 C 
ATOM     17  O   UNL     1      -1.287  -4.161  -1.634  0.00  0.00    -0.251 OA
ATOM     18  C   UNL     1      -0.130  -8.228  -3.463  0.00  0.00    +0.011 C 
ENDBRANCH   1   2
BRANCH   1  22
ATOM     19  C   UNL     1       0.770   1.492  -0.319  0.00  0.00    +0.026 C 
ATOM     20  C   UNL     1       0.398   0.013  -0.193  0.00  0.00    +0.054 C 
ATOM     21  C   UNL     1       1.112  -0.792  -1.283  0.00  0.00    -0.056 C 
ATOM     22  N   UNL     1       0.862  -2.224  -1.076  0.00  0.00    +0.382 N 
ATOM     23  C   UNL     1       1.460  -2.658   0.192  0.00  0.00    -0.060 C 
ATOM     24  C   UNL     1       0.762  -1.945   1.355  0.00  0.00    +0.087 C 
ATOM     25  N   UNL     1       0.822  -0.493   1.121  0.00  0.00    -0.331 N 
ATOM     26  H   UNL     1      -0.134  -2.390  -1.052  0.00  0.00    -0.082 HD
BRANCH  25  27
ATOM     27  C   UNL     1       1.275   0.379   2.117  0.00  0.00    +0.030 A 
ATOM     28  C   UNL     1       2.635   0.621   2.263  0.00  0.00    +0.027 A 
ATOM     29  C   UNL     1       3.080   1.483   3.246  0.00  0.00    +0.047 A 
ATOM     30  C   UNL     1       2.171   2.107   4.087  0.00  0.00    +0.120 A 
ATOM     31  C   UNL     1       0.813   1.865   3.942  0.00  0.00    +0.047 A 
ATOM     32  C   UNL     1       0.364   1.008   2.956  0.00  0.00    +0.027 A 
BRANCH  30  33
ATOM     33  O   UNL     1       2.611   2.955   5.054  0.00  0.00    -0.495 OA
ATOM     34  C   UNL     1       1.619   3.563   5.884  0.00  0.00    +0.277 C 
ENDBRANCH  30  33
ENDBRANCH  25  27
ENDBRANCH   1  22
TORSDOF 4
