REMARK  Name = ZINC58927554
REMARK  6 active torsions:
REMARK  status: ('A' for Active; 'I' for Inactive)
REMARK    1  A    between atoms: C_1  and  C_2
REMARK    2  A    between atoms: C_3  and  C_7
REMARK    3  A    between atoms: C_10  and  S_12
REMARK    4  A    between atoms: S_12  and  C_13
REMARK    5  A    between atoms: C_13  and  C_14
REMARK    6  A    between atoms: C_15  and  C_23
REMARK                            x       y       z     vdW  Elec       q    Type
REMARK                         _______ _______ _______ _____ _____    ______ ____
ROOT
ATOM      1  C   UNL     1      -8.760   0.232   0.048  0.00  0.00    +0.061 A 
ATOM      2  C   UNL     1      -9.587   0.205  -1.034  0.00  0.00    +0.094 A 
ATOM      3  N   UNL     1     -10.835  -0.041  -0.604  0.00  0.00    -0.228 NA
ATOM      4  C   UNL     1     -10.822  -0.170   0.714  0.00  0.00    +0.138 A 
ATOM      5  N   UNL     1      -9.532  -0.010   1.150  0.00  0.00    -0.302 N 
ATOM      6  C   UNL     1      -9.235  -0.101   2.479  0.00  0.00    +0.093 A 
ATOM      7  C   UNL     1     -10.203  -0.354   3.384  0.00  0.00    +0.018 A 
ATOM      8  C   UNL     1     -11.534  -0.527   2.969  0.00  0.00    +0.005 A 
ATOM      9  C   UNL     1     -11.846  -0.429   1.649  0.00  0.00    +0.047 A 
ENDROOT
BRANCH   2  10
ATOM     10  C   UNL     1      -9.179   0.413  -2.445  0.00  0.00    +0.002 A 
ATOM     11  C   UNL     1      -8.014  -0.177  -2.930  0.00  0.00    +0.010 A 
ATOM     12  C   UNL     1      -7.639   0.019  -4.244  0.00  0.00    +0.001 A 
ATOM     13  C   UNL     1      -8.418   0.801  -5.079  0.00  0.00    +0.000 A 
ATOM     14  C   UNL     1      -9.576   1.389  -4.602  0.00  0.00    +0.001 A 
ATOM     15  C   UNL     1      -9.963   1.194  -3.292  0.00  0.00    +0.010 A 
ENDBRANCH   2  10
BRANCH   1  16
ATOM     16  C   UNL     1      -7.273   0.475   0.032  0.00  0.00    +0.135 C 
BRANCH  16  17
ATOM     17  S   UNL     1      -6.400  -1.115   0.017  0.00  0.00    -0.059 S 
BRANCH  17  21
ATOM     18  C   UNL     1      -2.538  -0.744  -0.025  0.00  0.00    +0.253 A 
ATOM     19  N   UNL     1      -2.930   0.507  -0.016  0.00  0.00    -0.106 NA
ATOM     20  N   UNL     1      -4.215   0.553  -0.001  0.00  0.00    -0.101 NA
ATOM     21  C   UNL     1      -4.697  -0.667  -0.001  0.00  0.00    +0.278 A 
ATOM     22  O   UNL     1      -3.649  -1.514  -0.022  0.00  0.00    -0.411 OA
BRANCH  18  25
ATOM     23  C   UNL     1       0.038   1.042  -0.035  0.00  0.00    +0.087 C 
ATOM     24  C   UNL     1      -0.011  -0.464  -0.047  0.00  0.00    +0.114 A 
ATOM     25  C   UNL     1      -1.141  -1.224  -0.043  0.00  0.00    +0.079 A 
ATOM     26  C   UNL     1      -0.682  -2.619  -0.060  0.00  0.00    +0.054 A 
ATOM     27  C   UNL     1       0.660  -2.567  -0.072  0.00  0.00    +0.196 A 
ATOM     28  O   UNL     1       1.050  -1.284  -0.070  0.00  0.00    -0.467 OA
ENDBRANCH  18  25
ENDBRANCH  17  21
ENDBRANCH  16  17
ENDBRANCH   1  16
TORSDOF 5
