REMARK  Name = ZINC44879405
REMARK  11 active torsions:
REMARK  status: ('A' for Active; 'I' for Inactive)
REMARK    1  A    between atoms: C_1  and  C_2
REMARK    2  A    between atoms: N_7  and  C_9
REMARK    3  A    between atoms: C_9  and  C_10
REMARK    4  A    between atoms: C_13  and  C_16
REMARK    5  A    between atoms: C_16  and  N_17
REMARK    6  A    between atoms: N_17  and  S_18
REMARK    7  A    between atoms: S_18  and  C_21
REMARK    8  A    between atoms: C_24  and  S_36
REMARK    9  A    between atoms: C_25  and  C_27
REMARK   10  A    between atoms: C_32  and  C_35
REMARK   11  A    between atoms: S_36  and  C_37
REMARK                            x       y       z     vdW  Elec       q    Type
REMARK                         _______ _______ _______ _____ _____    ______ ____
ROOT
ATOM      1  S   UNL     1       0.409 -10.311   1.060  0.00  0.00    +0.059 S 
ATOM      2  O   UNL     1      -0.381 -10.497  -0.107  0.00  0.00    -0.153 OA
ATOM      3  O   UNL     1       1.783 -10.667   1.114  0.00  0.00    -0.153 OA
ENDROOT
BRANCH   1   4
ATOM      4  C   UNL     1      -0.392 -11.195   2.356  0.00  0.00    +0.106 A 
ATOM      5  C   UNL     1       0.339 -11.618   3.456  0.00  0.00    +0.029 A 
ATOM      6  C   UNL     1      -0.275 -12.312   4.478  0.00  0.00    +0.017 A 
ATOM      7  C   UNL     1      -1.635 -12.591   4.411  0.00  0.00    +0.020 A 
ATOM      8  C   UNL     1      -2.378 -12.163   3.299  0.00  0.00    +0.052 A 
ATOM      9  C   UNL     1      -1.742 -11.457   2.275  0.00  0.00    +0.042 A 
BRANCH   8  10
ATOM     10  C   UNL     1      -3.821 -12.452   3.215  0.00  0.00    +0.248 C 
ATOM     11  O   UNL     1      -4.560 -12.127   4.125  0.00  0.00    -0.270 OA
ATOM     12  N   UNL     1      -4.322 -13.075   2.130  0.00  0.00    -0.297 N 
ATOM     13  C   UNL     1      -5.771 -13.253   1.972  0.00  0.00    +0.108 C 
ATOM     14  C   UNL     1      -6.062 -14.737   1.726  0.00  0.00    +0.022 C 
ATOM     15  C   UNL     1      -5.234 -15.225   0.534  0.00  0.00    -0.011 C 
ATOM     16  C   UNL     1      -3.745 -15.070   0.848  0.00  0.00    +0.022 C 
ATOM     17  C   UNL     1      -3.428 -13.585   1.081  0.00  0.00    +0.108 C 
ATOM     18  C   UNL     1      -5.548 -16.698   0.265  0.00  0.00    +0.007 C 
ENDBRANCH   8  10
BRANCH   7  19
ATOM     19  S   UNL     1      -2.423 -13.476   5.715  0.00  0.00    -0.128 S 
ATOM     20  C   UNL     1      -1.084 -13.803   6.895  0.00  0.00    +0.090 C 
ENDBRANCH   7  19
ENDBRANCH   1   4
BRANCH   1  21
ATOM     21  N   UNL     1       0.322  -8.701   1.438  0.00  0.00    -0.186 NA
ATOM     22  H   UNL     1      -0.191  -8.098   0.878  0.00  0.00    +0.148 HD
BRANCH  21  23
ATOM     23  C   UNL     1       1.019  -8.188   2.621  0.00  0.00    +0.141 C 
BRANCH  23  27
ATOM     24  C   UNL     1       1.240  -3.927   2.409  0.00  0.00    -0.064 A 
ATOM     25  C   UNL     1       0.160  -4.534   3.022  0.00  0.00    +0.002 A 
ATOM     26  C   UNL     1       0.088  -5.912   3.090  0.00  0.00    +0.005 A 
ATOM     27  C   UNL     1       1.097  -6.685   2.545  0.00  0.00    -0.032 A 
ATOM     28  C   UNL     1       2.177  -6.079   1.931  0.00  0.00    +0.005 A 
ATOM     29  C   UNL     1       2.246  -4.700   1.859  0.00  0.00    +0.002 A 
BRANCH  24  30
ATOM     30  C   UNL     1       1.319  -2.424   2.334  0.00  0.00    -0.043 C 
BRANCH  30  36
ATOM     31  C   UNL     1      -0.157   1.523  -0.157  0.00  0.00    +0.005 C 
ATOM     32  C   UNL     1      -0.122  -0.006  -0.149  0.00  0.00    -0.031 C 
ATOM     33  C   UNL     1       0.598  -0.509  -1.403  0.00  0.00    -0.001 C 
ATOM     34  C   UNL     1       0.696  -2.036  -1.347  0.00  0.00    -0.018 C 
ATOM     35  C   UNL     1       1.417  -2.447  -0.061  0.00  0.00    -0.078 C 
ATOM     36  N   UNL     1       0.666  -1.961   1.102  0.00  0.00    +0.383 N 
ATOM     37  C   UNL     1       0.628  -0.493   1.093  0.00  0.00    -0.075 C 
ATOM     38  H   UNL     1      -0.276  -2.320   1.068  0.00  0.00    -0.081 HD
ENDBRANCH  30  36
ENDBRANCH  24  30
ENDBRANCH  23  27
ENDBRANCH  21  23
ENDBRANCH   1  21
TORSDOF 8
