REMARK  Name = ZINC63492804
REMARK  6 active torsions:
REMARK  status: ('A' for Active; 'I' for Inactive)
REMARK    1  A    between atoms: C_7  and  C_10
REMARK    2  A    between atoms: C_10  and  C_11
REMARK    3  A    between atoms: C_11  and  C_13
REMARK    4  A    between atoms: C_11  and  N_23
REMARK    5  A    between atoms: N_15  and  C_16
REMARK    6  A    between atoms: C_16  and  C_17
REMARK                            x       y       z     vdW  Elec       q    Type
REMARK                         _______ _______ _______ _____ _____    ______ ____
ROOT
ATOM      1  C   UNL     1       0.457  -3.653  -1.462  0.00  0.00    +0.175 C 
ENDROOT
BRANCH   1   2
ATOM      2  N   UNL     1      -0.238  -2.603  -2.210  0.00  0.00    -0.211 N 
ATOM      3  C   UNL     1       0.340  -2.072  -3.306  0.00  0.00    +0.236 C 
ATOM      4  O   UNL     1       1.483  -2.359  -3.592  0.00  0.00    -0.274 OA
ATOM      5  C   UNL     1      -0.437  -1.125  -4.170  0.00  0.00    +0.144 C 
ATOM      6  C   UNL     1       0.430  -0.060  -4.766  0.00  0.00    -0.008 C 
ATOM      7  C   UNL     1      -0.032   1.177  -4.954  0.00  0.00    -0.003 C 
ATOM      8  C   UNL     1      -1.343   1.544  -4.572  0.00  0.00    +0.001 C 
ATOM      9  C   UNL     1      -2.096   0.721  -3.796  0.00  0.00    +0.022 C 
ATOM     10  C   UNL     1      -1.565  -0.508  -3.396  0.00  0.00    +0.051 C 
ATOM     11  N   UNL     1      -2.030  -1.095  -2.315  0.00  0.00    -0.166 NA
ATOM     12  C   UNL     1      -1.447  -2.184  -1.799  0.00  0.00    +0.333 C 
ATOM     13  O   UNL     1      -2.025  -2.809  -0.930  0.00  0.00    -0.250 OA
ENDBRANCH   1   2
BRANCH   1  14
ATOM     14  C   UNL     1      -0.385  -4.904  -1.452  0.00  0.00    +0.234 C 
ATOM     15  O   UNL     1      -1.459  -4.916  -2.016  0.00  0.00    -0.274 OA
ATOM     16  N   UNL     1       0.057  -6.008  -0.819  0.00  0.00    -0.311 N 
ATOM     17  H   UNL     1       0.915  -5.998  -0.368  0.00  0.00    +0.149 HD
BRANCH  16  18
ATOM     18  C   UNL     1      -0.761  -7.224  -0.810  0.00  0.00    +0.135 C 
BRANCH  18  19
ATOM     19  C   UNL     1      -0.036  -8.321  -0.028  0.00  0.00    +0.135 C 
ATOM     20  C   UNL     1      -0.833  -9.640  -0.115  0.00  0.00    +0.035 C 
ATOM     21  C   UNL     1      -0.676 -10.215   1.319  0.00  0.00    +0.031 C 
ATOM     22  C   UNL     1      -0.661  -8.913   2.158  0.00  0.00    +0.160 C 
ATOM     23  O   UNL     1       0.051  -7.956   1.354  0.00  0.00    -0.375 OA
ENDBRANCH  18  19
ENDBRANCH  16  18
ENDBRANCH   1  14
BRANCH   1  24
ATOM     24  C   UNL     1       0.691  -3.186  -0.024  0.00  0.00    +0.065 C 
BRANCH  24  31
ATOM     25  C   UNL     1      -0.016   1.348   0.009  0.00  0.00    +0.001 A 
ATOM     26  C   UNL     1       1.166   2.101   0.002  0.00  0.00    +0.002 A 
ATOM     27  C   UNL     1       2.391   1.535  -0.013  0.00  0.00    +0.026 A 
ATOM     28  C   UNL     1       2.529   0.120  -0.022  0.00  0.00    +0.043 A 
ATOM     29  N   UNL     1       3.587  -0.654  -0.037  0.00  0.00    -0.380 N 
ATOM     30  C   UNL     1       3.143  -2.053  -0.041  0.00  0.00    +0.144 C 
ATOM     31  C   UNL     1       1.631  -2.008  -0.025  0.00  0.00    -0.039 C 
ATOM     32  C   UNL     1       1.295  -0.698  -0.014  0.00  0.00    -0.001 A 
ATOM     33  C   UNL     1       0.002  -0.004   0.002  0.00  0.00    +0.010 A 
ATOM     34  H   UNL     1       4.509  -0.353  -0.045  0.00  0.00    +0.160 HD
ENDBRANCH  24  31
ENDBRANCH   1  24
TORSDOF 6
