REMARK  Name = ZINC26493714
REMARK  9 active torsions:
REMARK  status: ('A' for Active; 'I' for Inactive)
REMARK    1  A    between atoms: C_1  and  C_2
REMARK    2  A    between atoms: C_2  and  C_4
REMARK    3  A    between atoms: C_2  and  N_14
REMARK    4  A    between atoms: C_15  and  C_17
REMARK    5  A    between atoms: C_17  and  C_19
REMARK    6  A    between atoms: C_17  and  S_20
REMARK    7  A    between atoms: S_20  and  C_21
REMARK    8  A    between atoms: C_24  and  C_28
REMARK    9  A    between atoms: C_25  and  N_27
REMARK                            x       y       z     vdW  Elec       q    Type
REMARK                         _______ _______ _______ _____ _____    ______ ____
ROOT
ATOM      1  N   UNL     1      -6.749  -0.393   2.328  0.00  0.00    -0.308 N 
ATOM      2  C   UNL     1      -7.833  -1.193   2.304  0.00  0.00    +0.227 C 
ATOM      3  O   UNL     1      -8.520  -1.254   1.306  0.00  0.00    -0.275 OA
ATOM      4  H   UNL     1      -6.127  -0.338   3.233  0.00  0.00    +0.149 HD
ENDROOT
BRANCH   1   6
ATOM      5  C   UNL     1      -7.187   1.715   1.167  0.00  0.00    +0.033 C 
ATOM      6  C   UNL     1      -6.400   0.403   1.149  0.00  0.00    +0.100 C 
BRANCH   6   7
ATOM      7  C   UNL     1      -4.923   0.703   1.164  0.00  0.00    -0.027 A 
ATOM      8  C   UNL     1      -4.293   1.023   2.353  0.00  0.00    +0.006 A 
ATOM      9  C   UNL     1      -2.941   1.299   2.358  0.00  0.00    +0.004 A 
ATOM     10  C   UNL     1      -2.208   1.258   1.179  0.00  0.00    -0.044 A 
ATOM     11  C   UNL     1      -2.834   0.935  -0.003  0.00  0.00    -0.044 A 
ATOM     12  C   UNL     1      -4.196   0.659  -0.007  0.00  0.00    +0.009 A 
ATOM     13  C   UNL     1      -2.100   0.864  -1.316  0.00  0.00    +0.035 C 
ATOM     14  C   UNL     1      -0.765   1.599  -1.226  0.00  0.00    +0.005 C 
ATOM     15  C   UNL     1      -0.013   1.086   0.008  0.00  0.00    +0.005 C 
ATOM     16  C   UNL     1      -0.738   1.584   1.257  0.00  0.00    +0.035 C 
ENDBRANCH   6   7
ENDBRANCH   1   6
BRANCH   2  17
ATOM     17  C   UNL     1      -8.193  -2.012   3.517  0.00  0.00    +0.137 C 
ATOM     18  C   UNL     1      -7.316  -3.265   3.564  0.00  0.00    +0.029 C 
BRANCH  17  19
ATOM     19  S   UNL     1      -9.934  -2.497   3.424  0.00  0.00    -0.074 S 
BRANCH  19  20
ATOM     20  C   UNL     1     -10.117  -3.285   4.989  0.00  0.00    +0.191 A 
ATOM     21  N   UNL     1      -9.068  -3.353   5.801  0.00  0.00    -0.229 NA
ATOM     22  C   UNL     1      -9.159  -3.929   6.986  0.00  0.00    +0.136 A 
ATOM     23  C   UNL     1     -10.382  -4.485   7.380  0.00  0.00    +0.109 A 
ATOM     24  C   UNL     1     -11.472  -4.398   6.487  0.00  0.00    +0.138 A 
ATOM     25  N   UNL     1     -11.295  -3.796   5.317  0.00  0.00    -0.206 NA
BRANCH  24  26
ATOM     26  N   UNL     1     -12.700  -4.928   6.825  0.00  0.00    -0.342 N 
ATOM     27  H   UNL     1     -13.543  -4.855   6.122  0.00  0.00    +0.144 HD
ATOM     28  H   UNL     1     -12.837  -5.424   7.797  0.00  0.00    +0.144 HD
ENDBRANCH  24  26
BRANCH  23  29
ATOM     29  C   UNL     1     -10.523  -5.124   8.653  0.00  0.00    +0.104 C 
ATOM     30  N   UNL     1     -10.634  -5.631   9.664  0.00  0.00    -0.191 NA
ENDBRANCH  23  29
ENDBRANCH  19  20
ENDBRANCH  17  19
ENDBRANCH   2  17
TORSDOF 7
