REMARK  Name = ZINC15881428
REMARK  6 active torsions:
REMARK  status: ('A' for Active; 'I' for Inactive)
REMARK    1  A    between atoms: C_1  and  C_2
REMARK    2  A    between atoms: C_2  and  C_3
REMARK    3  A    between atoms: C_3  and  C_4
REMARK    4  A    between atoms: C_7  and  C_9
REMARK    5  A    between atoms: N_17  and  C_18
REMARK    6  A    between atoms: C_18  and  C_19
REMARK                            x       y       z     vdW  Elec       q    Type
REMARK                         _______ _______ _______ _____ _____    ______ ____
ROOT
ATOM      1  C   UNL     1      -0.416   2.705   1.879  0.00  0.00    +0.108 A 
ATOM      2  C   UNL     1      -1.242   2.836   2.951  0.00  0.00    +0.041 A 
ATOM      3  C   UNL     1      -2.109   1.660   2.965  0.00  0.00    +0.001 A 
ATOM      4  C   UNL     1      -3.140   1.228   3.806  0.00  0.00    +0.010 A 
ATOM      5  C   UNL     1      -3.777   0.049   3.546  0.00  0.00    +0.001 A 
ATOM      6  C   UNL     1      -3.411  -0.726   2.453  0.00  0.00    +0.002 A 
ATOM      7  C   UNL     1      -2.399  -0.320   1.611  0.00  0.00    +0.026 A 
ATOM      8  C   UNL     1      -1.734   0.878   1.855  0.00  0.00    +0.050 A 
ATOM      9  N   UNL     1      -0.709   1.535   1.213  0.00  0.00    -0.327 N 
ENDROOT
BRANCH   1  13
ATOM     10  C   UNL     1       1.940   5.377   1.428  0.00  0.00    +0.218 A 
ATOM     11  N   UNL     1       2.215   4.589   0.426  0.00  0.00    -0.112 NA
ATOM     12  N   UNL     1       1.435   3.566   0.456  0.00  0.00    -0.106 NA
ATOM     13  C   UNL     1       0.628   3.667   1.489  0.00  0.00    +0.265 A 
ATOM     14  O   UNL     1       0.930   4.820   2.120  0.00  0.00    -0.419 OA
BRANCH  10  15
ATOM     15  C   UNL     1       2.626   6.680   1.748  0.00  0.00    +0.097 C 
BRANCH  15  17
ATOM     16  C   UNL     1       2.598   9.149   1.365  0.00  0.00    +0.004 C 
ATOM     17  C   UNL     1       1.901   7.826   1.039  0.00  0.00    +0.006 C 
ENDBRANCH  15  17
ENDBRANCH  10  15
ENDBRANCH   1  13
BRANCH   9  18
ATOM     18  C   UNL     1      -0.029   1.060   0.006  0.00  0.00    +0.218 C 
BRANCH  18  19
ATOM     19  C   UNL     1      -0.742   1.585  -1.213  0.00  0.00    +0.240 C 
ATOM     20  O   UNL     1      -1.772   2.212  -1.089  0.00  0.00    -0.273 OA
ATOM     21  N   UNL     1      -0.234   1.358  -2.441  0.00  0.00    -0.270 N 
ATOM     22  C   UNL     1       0.970   0.533  -2.610  0.00  0.00    +0.114 C 
ATOM     23  C   UNL     1       1.892   1.248  -3.607  0.00  0.00    +0.024 C 
ATOM     24  C   UNL     1       1.186   1.331  -4.960  0.00  0.00    +0.038 C 
ATOM     25  C   UNL     1      -0.194   1.912  -4.800  0.00  0.00    -0.026 A 
ATOM     26  C   UNL     1      -0.849   1.901  -3.577  0.00  0.00    +0.039 A 
ATOM     27  C   UNL     1      -2.121   2.446  -3.465  0.00  0.00    +0.024 A 
ATOM     28  C   UNL     1      -2.740   2.992  -4.572  0.00  0.00    +0.002 A 
ATOM     29  C   UNL     1      -2.088   3.001  -5.791  0.00  0.00    +0.000 A 
ATOM     30  C   UNL     1      -0.821   2.464  -5.905  0.00  0.00    +0.005 A 
ENDBRANCH  18  19
ENDBRANCH   9  18
TORSDOF 5
