REMARK  Name = ZINC08436564
REMARK  3 active torsions:
REMARK  status: ('A' for Active; 'I' for Inactive)
REMARK    1  A    between atoms: C_10  and  C_12
REMARK    2  A    between atoms: C_12  and  C_20
REMARK    3  A    between atoms: C_13  and  C_14
REMARK                            x       y       z     vdW  Elec       q    Type
REMARK                         _______ _______ _______ _____ _____    ______ ____
ROOT
ATOM      1  C   UNL     1       1.139   3.147  -0.126  0.00  0.00    +0.001 A 
ATOM      2  C   UNL     1       1.166   1.762  -0.038  0.00  0.00    +0.001 A 
ATOM      3  C   UNL     1      -0.019   1.050   0.034  0.00  0.00    +0.016 A 
ATOM      4  C   UNL     1      -1.210   1.736   0.011  0.00  0.00    +0.027 A 
ATOM      5  C   UNL     1      -1.262   3.145  -0.073  0.00  0.00    +0.055 A 
ATOM      6  C   UNL     1      -0.049   3.840  -0.144  0.00  0.00    +0.014 A 
ATOM      7  C   UNL     1      -2.545   3.841  -0.089  0.00  0.00    +0.279 A 
ATOM      8  O   UNL     1      -2.462   5.056  -0.169  0.00  0.00    -0.265 OA
ATOM      9  N   UNL     1      -3.773   3.380  -0.049  0.00  0.00    -0.201 NA
ATOM     10  C   UNL     1      -4.148   2.105   0.039  0.00  0.00    +0.123 A 
ATOM     11  S   UNL     1      -2.794   0.939   0.090  0.00  0.00    -0.068 S 
ENDROOT
BRANCH  10  12
ATOM     12  C   UNL     1      -5.560   1.690   0.090  0.00  0.00    +0.084 C 
ATOM     13  C   UNL     1      -6.548   2.629   0.047  0.00  0.00    +0.029 C 
BRANCH  13  14
ATOM     14  C   UNL     1      -7.954   2.212  -0.059  0.00  0.00    -0.021 A 
ATOM     15  C   UNL     1      -8.303   1.002  -0.677  0.00  0.00    +0.027 A 
ATOM     16  C   UNL     1      -9.635   0.649  -0.750  0.00  0.00    +0.111 A 
ATOM     17  N   UNL     1     -10.573   1.435  -0.258  0.00  0.00    -0.263 NA
ATOM     18  C   UNL     1     -10.291   2.583   0.327  0.00  0.00    +0.111 A 
ATOM     19  C   UNL     1      -8.986   3.015   0.450  0.00  0.00    +0.027 A 
ENDBRANCH  13  14
BRANCH  12  20
ATOM     20  C   UNL     1      -5.895   0.301   0.185  0.00  0.00    +0.102 C 
ATOM     21  N   UNL     1      -6.161  -0.801   0.261  0.00  0.00    -0.191 NA
ENDBRANCH  12  20
ENDBRANCH  10  12
TORSDOF 3
