REMARK  Name = ZINC39632158
REMARK  14 active torsions:
REMARK  status: ('A' for Active; 'I' for Inactive)
REMARK    1  A    between atoms: C_1  and  C_2
REMARK    2  A    between atoms: C_2  and  C_4
REMARK    3  A    between atoms: C_2  and  N_11
REMARK    4  A    between atoms: C_4  and  C_5
REMARK    5  A    between atoms: C_5  and  C_6
REMARK    6  A    between atoms: C_6  and  C_7
REMARK    7  A    between atoms: C_7  and  C_8
REMARK    8  A    between atoms: C_7  and  C_9
REMARK    9  A    between atoms: C_7  and  O_10
REMARK   10  A    between atoms: C_12  and  C_14
REMARK   11  A    between atoms: C_25  and  C_27
REMARK   12  A    between atoms: C_27  and  C_28
REMARK   13  A    between atoms: C_28  and  O_29
REMARK   14  A    between atoms: O_29  and  C_30
REMARK                            x       y       z     vdW  Elec       q    Type
REMARK                         _______ _______ _______ _____ _____    ______ ____
ROOT
ATOM      1  C   UNL     1       0.780  -1.133   3.576  0.00  0.00    +0.100 C 
ATOM      2  C   UNL     1       1.973  -0.207   3.907  0.00  0.00    +0.121 C 
ATOM      3  N   UNL     1       1.444   0.739   4.916  0.00  0.00    -0.300 N 
ATOM      4  C   UNL     1       0.577  -0.093   5.784  0.00  0.00    +0.115 C 
ATOM      5  C   UNL     1      -0.132  -1.058   4.812  0.00  0.00    -0.004 C 
ATOM      6  C   UNL     1      -0.275  -2.438   5.448  0.00  0.00    -0.010 C 
ATOM      7  C   UNL     1      -1.232  -2.349   6.640  0.00  0.00    -0.082 C 
ATOM      8  N   UNL     1      -2.539  -1.860   6.184  0.00  0.00    +0.379 N 
ATOM      9  C   UNL     1      -2.409  -0.496   5.660  0.00  0.00    -0.082 C 
ATOM     10  C   UNL     1      -1.501  -0.506   4.426  0.00  0.00    -0.010 C 
ATOM     11  C   UNL     1       1.694   2.059   5.022  0.00  0.00    +0.218 C 
ATOM     12  O   UNL     1       1.181   2.705   5.912  0.00  0.00    -0.276 OA
ATOM     13  H   UNL     1      -2.889  -2.466   5.458  0.00  0.00    -0.086 HD
ATOM     14  H   UNL     1      -3.186  -1.861   6.959  0.00  0.00    -0.086 HD
ENDROOT
BRANCH   1  16
ATOM     15  N   UNL     1      -0.597  -1.503   1.555  0.00  0.00    -0.312 N 
ATOM     16  C   UNL     1       0.051  -0.633   2.355  0.00  0.00    +0.218 C 
ATOM     17  O   UNL     1       0.047   0.551   2.093  0.00  0.00    -0.275 OA
ATOM     18  H   UNL     1      -0.594  -2.450   1.764  0.00  0.00    +0.149 HD
BRANCH  15  20
ATOM     19  C   UNL     1      -0.323  -0.900  -0.800  0.00  0.00    +0.028 C 
ATOM     20  C   UNL     1      -1.305  -1.018   0.368  0.00  0.00    +0.070 C 
BRANCH  20  21
ATOM     21  C   UNL     1      -2.418  -2.001   0.001  0.00  0.00    +0.022 C 
BRANCH  21  22
ATOM     22  C   UNL     1      -3.466  -2.024   1.116  0.00  0.00    +0.005 C 
BRANCH  22  23
ATOM     23  C   UNL     1      -4.579  -3.007   0.750  0.00  0.00    +0.034 C 
BRANCH  23  24
ATOM     24  C   UNL     1      -5.627  -3.031   1.865  0.00  0.00    +0.061 C 
ATOM     25  C   UNL     1      -6.219  -1.631   2.038  0.00  0.00    +0.041 C 
ATOM     26  C   UNL     1      -6.740  -4.014   1.498  0.00  0.00    +0.041 C 
BRANCH  24  27
ATOM     27  O   UNL     1      -5.011  -3.443   3.087  0.00  0.00    -0.389 OA
ATOM     28  H   UNL     1      -4.614  -4.323   3.050  0.00  0.00    +0.210 HD
ENDBRANCH  24  27
ENDBRANCH  23  24
ENDBRANCH  22  23
ENDBRANCH  21  22
ENDBRANCH  20  21
ENDBRANCH  15  20
ENDBRANCH   1  16
BRANCH  11  29
ATOM     29  C   UNL     1       2.612   2.734   4.035  0.00  0.00    +0.124 C 
BRANCH  29  30
ATOM     30  C   UNL     1       2.725   4.221   4.377  0.00  0.00    +0.168 C 
BRANCH  30  31
ATOM     31  O   UNL     1       3.595   4.860   3.441  0.00  0.00    -0.382 OA
ATOM     32  C   UNL     1       3.770   6.259   3.673  0.00  0.00    +0.194 C 
ENDBRANCH  30  31
ENDBRANCH  29  30
ENDBRANCH  11  29
TORSDOF 10
