REMARK  Name = ZINC20205689
REMARK  8 active torsions:
REMARK  status: ('A' for Active; 'I' for Inactive)
REMARK    1  A    between atoms: C_1  and  C_2
REMARK    2  A    between atoms: C_6  and  O_8
REMARK    3  A    between atoms: O_8  and  C_9
REMARK    4  A    between atoms: C_9  and  C_10
REMARK    5  A    between atoms: C_10  and  N_11
REMARK    6  A    between atoms: C_13  and  C_20
REMARK    7  A    between atoms: C_31  and  S_32
REMARK    8  A    between atoms: S_32  and  C_35
REMARK                            x       y       z     vdW  Elec       q    Type
REMARK                         _______ _______ _______ _____ _____    ______ ____
ROOT
ATOM      1  N   UNL     1       0.101  -6.032   3.051  0.00  0.00    -0.343 N 
ATOM      2  C   UNL     1      -0.904  -6.927   3.129  0.00  0.00    +0.095 A 
ATOM      3  C   UNL     1      -0.382  -8.193   3.313  0.00  0.00    +0.001 A 
ATOM      4  C   UNL     1       1.085  -8.032   3.349  0.00  0.00    +0.007 A 
ATOM      5  C   UNL     1       1.325  -6.660   3.174  0.00  0.00    +0.050 A 
ATOM      6  C   UNL     1       2.635  -6.195   3.156  0.00  0.00    +0.026 A 
ATOM      7  C   UNL     1       3.682  -7.079   3.307  0.00  0.00    +0.002 A 
ATOM      8  C   UNL     1       3.442  -8.435   3.476  0.00  0.00    +0.001 A 
ATOM      9  C   UNL     1       2.150  -8.914   3.505  0.00  0.00    +0.010 A 
ENDROOT
BRANCH   3  10
ATOM     10  C   UNL     1      -1.108  -9.399   3.443  0.00  0.00    +0.026 C 
ATOM     11  C   UNL     1      -2.293  -9.420   4.154  0.00  0.00    +0.078 C 
ATOM     12  C   UNL     1      -3.180 -10.617   4.169  0.00  0.00    +0.117 C 
ATOM     13  N   UNL     1      -2.734 -11.843   4.095  0.00  0.00    -0.386 N 
ATOM     14  N   UNL     1      -4.548 -10.293   4.272  0.00  0.00    -0.203 N 
ATOM     15  C   UNL     1      -4.894  -9.076   4.819  0.00  0.00    +0.183 C 
ATOM     16  N   UNL     1      -4.072  -8.115   5.176  0.00  0.00    -0.152 NA
ATOM     17  C   UNL     1      -2.749  -8.255   4.948  0.00  0.00    +0.273 C 
ATOM     18  O   UNL     1      -1.949  -7.442   5.380  0.00  0.00    -0.268 OA
ATOM     19  S   UNL     1      -6.558  -9.145   4.881  0.00  0.00    +0.049 S 
ATOM     20  N   UNL     1      -6.796 -10.627   4.134  0.00  0.00    -0.174 NA
ATOM     21  C   UNL     1      -5.597 -11.060   3.895  0.00  0.00    +0.257 C 
ATOM     22  H   UNL     1      -1.793 -12.008   3.928  0.00  0.00    +0.157 HD
ATOM     23  H   UNL     1      -3.345 -12.589   4.207  0.00  0.00    +0.157 HD
BRANCH  21  24
ATOM     24  S   UNL     1      -5.341 -12.611   3.099  0.00  0.00    +0.026 S 
ATOM     25  O   UNL     1      -6.561 -12.876   2.420  0.00  0.00    -0.167 OA
ATOM     26  O   UNL     1      -4.130 -12.450   2.374  0.00  0.00    -0.167 OA
ATOM     27  C   UNL     1      -5.107 -13.797   4.451  0.00  0.00    +0.203 C 
ENDBRANCH  21  24
ENDBRANCH   3  10
BRANCH   1  28
ATOM     28  C   UNL     1      -0.080  -4.591   2.857  0.00  0.00    +0.163 C 
BRANCH  28  29
ATOM     29  C   UNL     1       0.029  -4.260   1.367  0.00  0.00    +0.250 C 
BRANCH  29  30
ATOM     30  O   UNL     1      -0.147  -2.855   1.178  0.00  0.00    -0.490 OA
BRANCH  30  36
ATOM     31  C   UNL     1      -0.348   0.902  -1.931  0.00  0.00    +0.044 C 
ATOM     32  C   UNL     1      -0.172  -0.568  -1.652  0.00  0.00    -0.047 A 
ATOM     33  C   UNL     1       0.059  -1.446  -2.694  0.00  0.00    +0.003 A 
ATOM     34  C   UNL     1       0.222  -2.796  -2.441  0.00  0.00    +0.004 A 
ATOM     35  C   UNL     1       0.153  -3.270  -1.145  0.00  0.00    +0.045 A 
ATOM     36  C   UNL     1      -0.079  -2.391  -0.098  0.00  0.00    +0.121 A 
ATOM     37  C   UNL     1      -0.235  -1.036  -0.354  0.00  0.00    +0.049 A 
ENDBRANCH  30  36
ENDBRANCH  29  30
ENDBRANCH  28  29
ENDBRANCH   1  28
TORSDOF 6
