REMARK  Name = ZINC24214081
REMARK  8 active torsions:
REMARK  status: ('A' for Active; 'I' for Inactive)
REMARK    1  A    between atoms: C_4  and  C_7
REMARK    2  A    between atoms: C_7  and  N_8
REMARK    3  A    between atoms: N_8  and  C_9
REMARK    4  A    between atoms: N_8  and  C_15
REMARK    5  A    between atoms: C_9  and  C_10
REMARK    6  A    between atoms: C_15  and  C_16
REMARK    7  A    between atoms: N_21  and  S_24
REMARK    8  A    between atoms: S_24  and  C_27
REMARK                            x       y       z     vdW  Elec       q    Type
REMARK                         _______ _______ _______ _____ _____    ______ ____
ROOT
ATOM      1  C   UNL     1       4.402  -0.577  -5.627  0.00  0.00    +0.199 C 
ATOM      2  O   UNL     1       4.867   0.377  -6.213  0.00  0.00    -0.278 OA
ATOM      3  N   UNL     1       4.039  -0.461  -4.334  0.00  0.00    -0.300 N 
ATOM      4  C   UNL     1       4.202   0.814  -3.622  0.00  0.00    +0.125 C 
ATOM      5  C   UNL     1       5.040   0.569  -2.361  0.00  0.00    +0.128 C 
ATOM      6  N   UNL     1       4.474  -0.579  -1.638  0.00  0.00    -0.173 NA
ATOM      7  C   UNL     1       4.316  -1.856  -2.348  0.00  0.00    +0.128 C 
ATOM      8  C   UNL     1       3.473  -1.609  -3.610  0.00  0.00    +0.125 C 
ENDROOT
BRANCH   6   9
ATOM      9  S   UNL     1       4.028  -0.437  -0.049  0.00  0.00    +0.067 S 
ATOM     10  O   UNL     1       4.784   0.639   0.490  0.00  0.00    -0.152 OA
ATOM     11  O   UNL     1       4.066  -1.746   0.502  0.00  0.00    -0.152 OA
BRANCH   9  12
ATOM     12  C   UNL     1       2.341   0.071  -0.024  0.00  0.00    +0.144 A 
ATOM     13  C   UNL     1       1.221  -0.692  -0.008  0.00  0.00    +0.038 A 
ATOM     14  C   UNL     1      -0.014  -0.069   0.009  0.00  0.00    +0.030 A 
ATOM     15  C   UNL     1      -0.066   1.286   0.009  0.00  0.00    +0.080 A 
ATOM     16  S   UNL     1       1.665   1.723  -0.016  0.00  0.00    -0.057 S 
ATOM     17 CL   UNL     1      -1.456   2.326   0.022  0.00  0.00    -0.076 Cl
ENDBRANCH   9  12
ENDBRANCH   6   9
BRANCH   1  18
ATOM     18  C   UNL     1       4.229  -1.891  -6.343  0.00  0.00    +0.020 C 
BRANCH  18  19
ATOM     19  N   UNL     1       4.592  -1.730  -7.757  0.00  0.00    +0.393 N 
ATOM     20  H   UNL     1       4.180  -0.771  -8.105  0.00  0.00    -0.080 HD
BRANCH  19  21
ATOM     21  C   UNL     1       6.051  -1.680  -7.924  0.00  0.00    -0.042 C 
BRANCH  21  25
ATOM     22  C   UNL     1       6.989  -0.521 -11.927  0.00  0.00    +0.000 A 
ATOM     23  C   UNL     1       6.837   0.442 -10.946  0.00  0.00    +0.000 A 
ATOM     24  C   UNL     1       6.533   0.067  -9.651  0.00  0.00    +0.002 A 
ATOM     25  C   UNL     1       6.382  -1.271  -9.336  0.00  0.00    -0.064 A 
ATOM     26  C   UNL     1       6.540  -2.234 -10.315  0.00  0.00    +0.002 A 
ATOM     27  C   UNL     1       6.839  -1.858 -11.612  0.00  0.00    +0.000 A 
ENDBRANCH  21  25
ENDBRANCH  19  21
BRANCH  19  28
ATOM     28  C   UNL     1       4.005  -2.797  -8.577  0.00  0.00    -0.002 C 
BRANCH  28  29
ATOM     29  C   UNL     1       2.531  -2.539  -8.757  0.00  0.00    +0.089 A 
ATOM     30  C   UNL     1       1.979  -1.750  -9.696  0.00  0.00    +0.042 A 
ATOM     31  C   UNL     1       0.580  -1.796  -9.500  0.00  0.00    +0.041 A 
ATOM     32  C   UNL     1       0.360  -2.612  -8.453  0.00  0.00    +0.195 A 
ATOM     33  O   UNL     1       1.545  -3.063  -8.010  0.00  0.00    -0.470 OA
ENDBRANCH  28  29
ENDBRANCH  19  28
ENDBRANCH  18  19
ENDBRANCH   1  18
TORSDOF 8
