REMARK  Name = ZINC52909321
REMARK  13 active torsions:
REMARK  status: ('A' for Active; 'I' for Inactive)
REMARK    1  A    between atoms: C_1  and  C_2
REMARK    2  A    between atoms: C_2  and  C_4
REMARK    3  A    between atoms: C_2  and  C_25
REMARK    4  A    between atoms: C_4  and  N_5
REMARK    5  A    between atoms: C_6  and  C_8
REMARK    6  A    between atoms: C_8  and  C_10
REMARK    7  A    between atoms: C_8  and  N_11
REMARK    8  A    between atoms: C_14  and  N_17
REMARK    9  A    between atoms: C_18  and  O_20
REMARK   10  A    between atoms: O_20  and  C_21
REMARK   11  A    between atoms: C_21  and  C_22
REMARK   12  A    between atoms: C_21  and  C_23
REMARK   13  A    between atoms: C_21  and  C_24
REMARK                            x       y       z     vdW  Elec       q    Type
REMARK                         _______ _______ _______ _____ _____    ______ ____
ROOT
ATOM      1  N   UNL     1       0.331  -0.691   6.079  0.00  0.00    +0.387 N 
ATOM      2  C   UNL     1      -0.491  -0.427   7.266  0.00  0.00    -0.076 C 
ATOM      3  C   UNL     1       0.135  -1.107   8.486  0.00  0.00    +0.004 C 
ATOM      4  C   UNL     1       1.545  -0.551   8.705  0.00  0.00    +0.073 C 
ATOM      5  C   UNL     1       2.371  -0.765   7.434  0.00  0.00    +0.004 C 
ATOM      6  C   UNL     1       1.662  -0.098   6.253  0.00  0.00    -0.076 C 
ATOM      7  H   UNL     1       0.422  -1.687   5.950  0.00  0.00    -0.081 HD
ENDROOT
BRANCH   4   8
ATOM      8  N   UNL     1       2.179  -1.251   9.825  0.00  0.00    -0.278 N 
ATOM      9  C   UNL     1       3.161  -0.651  10.527  0.00  0.00    +0.401 C 
ATOM     10  O   UNL     1       3.520   0.472  10.230  0.00  0.00    -0.226 OA
ATOM     11  H   UNL     1       1.893  -2.147  10.062  0.00  0.00    +0.152 HD
BRANCH   9  12
ATOM     12  O   UNL     1       3.743  -1.294  11.556  0.00  0.00    -0.445 OA
BRANCH  12  13
ATOM     13  C   UNL     1       4.777  -0.598  12.255  0.00  0.00    +0.107 C 
ATOM     14  C   UNL     1       4.211   0.695  12.846  0.00  0.00    +0.055 C 
ATOM     15  C   UNL     1       5.315  -1.482  13.382  0.00  0.00    +0.055 C 
ATOM     16  C   UNL     1       5.911  -0.261  11.285  0.00  0.00    +0.055 C 
ENDBRANCH  12  13
ENDBRANCH   9  12
ENDBRANCH   4   8
BRANCH   1  17
ATOM     17  C   UNL     1      -0.315  -0.103   4.898  0.00  0.00    +0.016 C 
ATOM     18  C   UNL     1      -1.725  -0.678   4.748  0.00  0.00    -0.004 C 
BRANCH  17  20
ATOM     19  N   UNL     1       0.456   0.392   2.600  0.00  0.00    -0.316 N 
ATOM     20  C   UNL     1       0.494  -0.428   3.669  0.00  0.00    +0.199 C 
ATOM     21  O   UNL     1       1.179  -1.428   3.641  0.00  0.00    -0.278 OA
ATOM     22  H   UNL     1      -0.092   1.192   2.623  0.00  0.00    +0.149 HD
BRANCH  19  23
ATOM     23  C   UNL     1       1.242   0.076   1.405  0.00  0.00    +0.112 C 
BRANCH  23  25
ATOM     24  C   UNL     1       1.578   2.490   0.858  0.00  0.00    +0.014 C 
ATOM     25  C   UNL     1       1.022   1.160   0.348  0.00  0.00    +0.033 C 
BRANCH  25  26
ATOM     26  C   UNL     1       1.732   0.773  -0.923  0.00  0.00    -0.043 A 
ATOM     27  C   UNL     1       3.100   0.577  -0.919  0.00  0.00    +0.004 A 
ATOM     28  C   UNL     1       3.751   0.222  -2.086  0.00  0.00    +0.000 A 
ATOM     29  C   UNL     1       3.034   0.062  -3.256  0.00  0.00    +0.000 A 
ATOM     30  C   UNL     1       1.665   0.257  -3.261  0.00  0.00    +0.000 A 
ATOM     31  C   UNL     1       1.014   0.608  -2.093  0.00  0.00    +0.004 A 
ENDBRANCH  25  26
ENDBRANCH  23  25
ENDBRANCH  19  23
ENDBRANCH  17  20
ENDBRANCH   1  17
TORSDOF 8
