REMARK  Name = ZINC63540991
REMARK  3 active torsions:
REMARK  status: ('A' for Active; 'I' for Inactive)
REMARK    1  A    between atoms: C_1  and  C_2
REMARK    2  A    between atoms: N_6  and  C_7
REMARK    3  A    between atoms: C_10  and  O_24
REMARK                            x       y       z     vdW  Elec       q    Type
REMARK                         _______ _______ _______ _____ _____    ______ ____
ROOT
ATOM      1  C   UNL     1       0.170  -4.263   1.826  0.00  0.00    +0.283 C 
ATOM      2  O   UNL     1       0.203  -5.158   2.840  0.00  0.00    -0.265 OA
ATOM      3  C   UNL     1       0.274  -4.697   0.513  0.00  0.00    +0.113 C 
ATOM      4  C   UNL     1       0.289  -6.175   0.177  0.00  0.00    +0.187 C 
ATOM      5  C   UNL     1       0.417  -6.530  -1.288  0.00  0.00    +0.007 A 
ATOM      6  C   UNL     1       0.443  -7.853  -1.671  0.00  0.00    +0.008 A 
ATOM      7  C   UNL     1       0.561  -8.183  -3.009  0.00  0.00    +0.001 A 
ATOM      8  C   UNL     1       0.656  -7.178  -3.952  0.00  0.00    +0.005 A 
ATOM      9  C   UNL     1       0.629  -5.851  -3.569  0.00  0.00    -0.026 A 
ATOM     10  C   UNL     1       0.506  -5.506  -2.227  0.00  0.00    +0.046 A 
ATOM     11  N   UNL     1       0.468  -4.168  -1.829  0.00  0.00    -0.267 N 
ATOM     12  C   UNL     1       0.362  -3.790  -0.541  0.00  0.00    +0.255 C 
ATOM     13  O   UNL     1       0.348  -2.598  -0.284  0.00  0.00    -0.270 OA
ATOM     14  C   UNL     1       0.532  -3.092  -2.831  0.00  0.00    +0.114 C 
ATOM     15  C   UNL     1       1.386  -3.541  -4.016  0.00  0.00    +0.024 C 
ATOM     16  C   UNL     1       0.740  -4.786  -4.632  0.00  0.00    +0.038 C 
ENDROOT
BRANCH   1  22
ATOM     17  C   UNL     1       0.005   0.362   5.722  0.00  0.00    +0.064 C 
ATOM     18  C   UNL     1       0.031  -1.033   5.151  0.00  0.00    +0.022 A 
ATOM     19  C   UNL     1       0.065  -2.108   5.944  0.00  0.00    +0.069 A 
ATOM     20  S   UNL     1       0.082  -3.442   4.761  0.00  0.00    -0.058 S 
ATOM     21  C   UNL     1       0.043  -2.531   3.349  0.00  0.00    +0.174 A 
ATOM     22  N   UNL     1       0.037  -2.959   2.089  0.00  0.00    -0.184 NA
ATOM     23  N   UNL     1       0.013  -1.248   3.807  0.00  0.00    -0.338 N 
ATOM     24  H   UNL     1      -0.016  -0.502   3.188  0.00  0.00    +0.168 HD
ENDBRANCH   1  22
BRANCH   4  25
ATOM     25  O   UNL     1      -0.921  -6.754   0.668  0.00  0.00    -0.382 OA
ATOM     26  H   UNL     1      -1.039  -6.667   1.624  0.00  0.00    +0.211 HD
ENDBRANCH   4  25
TORSDOF 2
