REMARK  Name = ZINC36266670
REMARK  7 active torsions:
REMARK  status: ('A' for Active; 'I' for Inactive)
REMARK    1  A    between atoms: C_1  and  C_2
REMARK    2  A    between atoms: C_3  and  S_8
REMARK    3  A    between atoms: C_4  and  C_7
REMARK    4  A    between atoms: S_8  and  N_11
REMARK    5  A    between atoms: N_11  and  C_12
REMARK    6  A    between atoms: C_12  and  C_13
REMARK    7  A    between atoms: C_13  and  N_19
REMARK                            x       y       z     vdW  Elec       q    Type
REMARK                         _______ _______ _______ _____ _____    ______ ____
ROOT
ATOM      1  N   UNL     1       1.570  -0.091  -3.285  0.00  0.00    -0.191 NA
ATOM      2  H   UNL     1       1.915   0.789  -3.504  0.00  0.00    +0.148 HD
ENDROOT
BRANCH   1   3
ATOM      3  S   UNL     1      -0.008  -0.267  -2.813  0.00  0.00    +0.063 S 
ATOM      4  O   UNL     1      -0.547  -1.328  -3.589  0.00  0.00    -0.153 OA
ATOM      5  O   UNL     1      -0.577   1.035  -2.802  0.00  0.00    -0.153 OA
BRANCH   3   8
ATOM      6  C   UNL     1      -0.018   1.503   0.010  0.00  0.00    +0.071 C 
ATOM      7  C   UNL     1       0.002  -0.004   0.002  0.00  0.00    +0.107 A 
ATOM      8  C   UNL     1       0.008  -0.824  -1.141  0.00  0.00    +0.169 A 
ATOM      9  C   UNL     1       0.027  -2.108  -0.735  0.00  0.00    +0.161 A 
ATOM     10  O   UNL     1       0.034  -2.119   0.606  0.00  0.00    -0.358 OA
ATOM     11  N   UNL     1       0.023  -0.775   1.052  0.00  0.00    -0.081 NA
ATOM     12  C   UNL     1       0.039  -3.320  -1.631  0.00  0.00    +0.091 C 
ENDBRANCH   3   8
ENDBRANCH   1   3
BRANCH   1  13
ATOM     13  C   UNL     1       2.444  -1.263  -3.371  0.00  0.00    +0.093 C 
BRANCH  13  14
ATOM     14  C   UNL     1       3.700  -0.905  -4.169  0.00  0.00    -0.057 C 
ATOM     15  C   UNL     1       3.300  -0.461  -5.577  0.00  0.00    -0.012 C 
ATOM     16  C   UNL     1       2.558  -1.600  -6.279  0.00  0.00    -0.001 C 
ATOM     17  C   UNL     1       3.471  -2.825  -6.370  0.00  0.00    -0.000 C 
ATOM     18  C   UNL     1       3.871  -3.268  -4.961  0.00  0.00    -0.001 C 
ATOM     19  C   UNL     1       4.613  -2.129  -4.259  0.00  0.00    -0.012 C 
BRANCH  14  20
ATOM     20  N   UNL     1       4.413   0.189  -3.495  0.00  0.00    +0.383 N 
ATOM     21  H   UNL     1       4.676  -0.104  -2.566  0.00  0.00    -0.089 HD
ATOM     22  H   UNL     1       5.241   0.425  -4.020  0.00  0.00    -0.089 HD
ATOM     23  H   UNL     1       3.810   0.996  -3.435  0.00  0.00    -0.089 HD
ENDBRANCH  14  20
ENDBRANCH  13  14
ENDBRANCH   1  13
TORSDOF 5
