REMARK  Name = ZINC36116758
REMARK  15 active torsions:
REMARK  status: ('A' for Active; 'I' for Inactive)
REMARK    1  A    between atoms: C_1  and  C_2
REMARK    2  A    between atoms: C_2  and  C_3
REMARK    3  A    between atoms: C_3  and  C_5
REMARK    4  A    between atoms: C_3  and  N_6
REMARK    5  A    between atoms: N_6  and  C_7
REMARK    6  A    between atoms: C_7  and  C_8
REMARK    7  A    between atoms: C_18  and  C_20
REMARK    8  A    between atoms: C_20  and  O_21
REMARK    9  A    between atoms: O_21  and  C_22
REMARK   10  A    between atoms: C_25  and  C_28
REMARK   11  A    between atoms: C_28  and  C_29
REMARK   12  A    between atoms: C_28  and  C_30
REMARK   13  A    between atoms: C_31  and  C_33
REMARK   14  A    between atoms: C_33  and  C_34
REMARK   15  A    between atoms: C_33  and  C_35
REMARK                            x       y       z     vdW  Elec       q    Type
REMARK                         _______ _______ _______ _____ _____    ______ ____
ROOT
ATOM      1  C   UNL     1      -4.170   0.158   1.058  0.00  0.00    +0.234 C 
ATOM      2  O   UNL     1      -4.196  -0.946   0.556  0.00  0.00    -0.274 OA
ATOM      3  N   UNL     1      -5.298   0.892   1.129  0.00  0.00    -0.289 N 
ATOM      4  C   UNL     1      -5.278   2.234   1.730  0.00  0.00    +0.114 C 
ATOM      5  C   UNL     1      -5.612   3.258   0.634  0.00  0.00    +0.061 C 
ATOM      6  C   UNL     1      -6.747   2.732  -0.184  0.00  0.00    -0.004 A 
ATOM      7  C   UNL     1      -7.213   1.455  -0.243  0.00  0.00    -0.014 A 
ATOM      8  C   UNL     1      -8.288   1.221  -1.099  0.00  0.00    +0.013 A 
ATOM      9  C   UNL     1      -8.818   2.240  -1.814  0.00  0.00    +0.046 A 
ATOM     10  S   UNL     1      -7.800   3.616  -1.303  0.00  0.00    -0.101 S 
ATOM     11  C   UNL     1      -6.564   0.365   0.600  0.00  0.00    +0.144 C 
ENDROOT
BRANCH   1  12
ATOM     12  C   UNL     1      -2.878   0.708   1.604  0.00  0.00    +0.203 C 
BRANCH  12  13
ATOM     13  N   UNL     1      -1.808  -0.274   1.409  0.00  0.00    -0.290 N 
ATOM     14  C   UNL     1      -1.523  -1.162   2.381  0.00  0.00    +0.219 C 
ATOM     15  O   UNL     1      -0.582  -1.916   2.257  0.00  0.00    -0.275 OA
BRANCH  14  16
ATOM     16  C   UNL     1      -2.374  -1.217   3.624  0.00  0.00    +0.069 C 
ATOM     17  C   UNL     1      -3.555  -2.161   3.392  0.00  0.00    +0.017 C 
ATOM     18  C   UNL     1      -1.534  -1.730   4.795  0.00  0.00    +0.017 C 
ENDBRANCH  14  16
BRANCH  13  19
ATOM     19  C   UNL     1      -1.048  -0.290   0.156  0.00  0.00    +0.073 C 
ATOM     20  C   UNL     1      -1.188  -1.661  -0.507  0.00  0.00    +0.028 C 
BRANCH  19  22
ATOM     21  C   UNL     1       0.586   1.419   0.964  0.00  0.00    +0.005 C 
ATOM     22  C   UNL     1       0.427  -0.014   0.451  0.00  0.00    +0.019 C 
ENDBRANCH  19  22
ENDBRANCH  13  19
ENDBRANCH  12  13
ENDBRANCH   1  12
BRANCH  11  23
ATOM     23  C   UNL     1      -7.492  -0.010   1.757  0.00  0.00    +0.256 C 
BRANCH  23  24
ATOM     24  O   UNL     1      -7.851   1.169   2.482  0.00  0.00    -0.490 OA
BRANCH  24  25
ATOM     25  C   UNL     1      -8.677   1.010   3.549  0.00  0.00    +0.121 A 
ATOM     26  C   UNL     1      -9.130  -0.255   3.894  0.00  0.00    +0.046 A 
ATOM     27  C   UNL     1      -9.970  -0.414   4.980  0.00  0.00    +0.007 A 
ATOM     28  C   UNL     1     -10.360   0.686   5.721  0.00  0.00    -0.045 A 
ATOM     29  C   UNL     1      -9.911   1.948   5.378  0.00  0.00    +0.007 A 
ATOM     30  C   UNL     1      -9.066   2.111   4.297  0.00  0.00    +0.046 A 
BRANCH  28  31
ATOM     31  C   UNL     1     -11.276   0.509   6.904  0.00  0.00    +0.013 C 
ATOM     32  C   UNL     1     -10.578   1.010   8.169  0.00  0.00    +0.012 C 
ATOM     33  C   UNL     1     -12.560   1.311   6.678  0.00  0.00    +0.012 C 
ENDBRANCH  28  31
ENDBRANCH  24  25
ENDBRANCH  23  24
ENDBRANCH  11  23
TORSDOF 9
