REMARK  Name = ZINC39510480
REMARK  3 active torsions:
REMARK  status: ('A' for Active; 'I' for Inactive)
REMARK    1  A    between atoms: C_4  and  O_21
REMARK    2  A    between atoms: C_5  and  C_7
REMARK    3  A    between atoms: N_18  and  O_19
REMARK                            x       y       z     vdW  Elec       q    Type
REMARK                         _______ _______ _______ _____ _____    ______ ____
ROOT
ATOM      1  C   UNL     1       1.227  -2.187  -0.022  0.00  0.00    +0.025 C 
ATOM      2  C   UNL     1       0.451  -2.746   1.197  0.00  0.00    +0.010 C 
ATOM      3  C   UNL     1       0.050  -4.166   0.725  0.00  0.00    +0.028 C 
ATOM      4  C   UNL     1      -0.288  -3.986  -0.766  0.00  0.00    +0.078 C 
ATOM      5  C   UNL     1       0.459  -2.730  -1.245  0.00  0.00    +0.035 C 
ATOM      6  C   UNL     1       0.188  -5.205  -1.554  0.00  0.00    +0.188 C 
ATOM      7  C   UNL     1      -0.564  -6.447  -1.066  0.00  0.00    +0.040 C 
ATOM      8  C   UNL     1      -2.070  -6.214  -1.220  0.00  0.00    +0.021 C 
ATOM      9  C   UNL     1      -2.474  -4.970  -0.426  0.00  0.00    +0.115 C 
ATOM     10  N   UNL     1      -1.733  -3.805  -0.928  0.00  0.00    -0.182 NA
ATOM     11  F   UNL     1      -0.066  -5.009  -2.916  0.00  0.00    -0.243 F 
ENDROOT
BRANCH   1  16
ATOM     12  C   UNL     1      -0.017   1.378   0.010  0.00  0.00    +0.001 A 
ATOM     13  C   UNL     1       1.170   2.088   0.002  0.00  0.00    +0.004 A 
ATOM     14  C   UNL     1       2.377   1.417  -0.013  0.00  0.00    +0.046 A 
ATOM     15  C   UNL     1       2.399   0.030  -0.021  0.00  0.00    +0.120 A 
ATOM     16  C   UNL     1       1.207  -0.680  -0.013  0.00  0.00    -0.003 A 
ATOM     17  C   UNL     1       0.002  -0.004   0.002  0.00  0.00    +0.007 A 
BRANCH  15  18
ATOM     18  O   UNL     1       3.586  -0.632  -0.037  0.00  0.00    -0.506 OA
ATOM     19  H   UNL     1       3.938  -0.829   0.842  0.00  0.00    +0.292 HD
ENDBRANCH  15  18
ENDBRANCH   1  16
BRANCH  10  20
ATOM     20  O   UNL     1      -2.184  -2.576  -0.277  0.00  0.00    -0.312 OA
ATOM     21  H   UNL     1      -3.134  -2.413  -0.357  0.00  0.00    +0.237 HD
ENDBRANCH  10  20
TORSDOF 3
