REMARK  Name = ZINC00985818
REMARK  4 active torsions:
REMARK  status: ('A' for Active; 'I' for Inactive)
REMARK    1  A    between atoms: C_5  and  C_7
REMARK    2  A    between atoms: C_14  and  N_29
REMARK    3  A    between atoms: C_15  and  C_27
REMARK    4  A    between atoms: C_16  and  C_18
REMARK                            x       y       z     vdW  Elec       q    Type
REMARK                         _______ _______ _______ _____ _____    ______ ____
ROOT
ATOM      1  C   UNL     1       1.269  -2.507  -0.172  0.00  0.00    +0.102 A 
ATOM      2  C   UNL     1       0.069  -3.197   0.025  0.00  0.00    +0.054 A 
ATOM      3  C   UNL     1       0.345  -4.534   0.026  0.00  0.00    +0.223 A 
ATOM      4  N   UNL     1       1.672  -4.679  -0.167  0.00  0.00    -0.246 N 
ATOM      5  H   UNL     1       2.153  -5.520  -0.213  0.00  0.00    +0.192 HD
ATOM      6  N   UNL     1       2.234  -3.399  -0.293  0.00  0.00    -0.171 NA
ATOM      7  O   UNL     1      -0.613  -5.479   0.199  0.00  0.00    -0.423 OA
ATOM      8  C   UNL     1      -1.818  -5.072   0.646  0.00  0.00    +0.200 C 
ATOM      9  C   UNL     1      -2.210  -3.779   0.682  0.00  0.00    +0.098 C 
ATOM     10  C   UNL     1      -1.323  -2.653   0.212  0.00  0.00    +0.102 C 
ENDROOT
BRANCH  10  11
ATOM     11  C   UNL     1      -1.838  -2.112  -1.097  0.00  0.00    -0.031 A 
ATOM     12  C   UNL     1      -1.895  -2.933  -2.208  0.00  0.00    +0.008 A 
ATOM     13  C   UNL     1      -2.367  -2.441  -3.410  0.00  0.00    +0.050 A 
ATOM     14  C   UNL     1      -2.784  -1.124  -3.505  0.00  0.00    +0.166 A 
ATOM     15  C   UNL     1      -2.727  -0.297  -2.386  0.00  0.00    +0.167 A 
ATOM     16  C   UNL     1      -2.259  -0.798  -1.182  0.00  0.00    +0.054 A 
ATOM     17  O   UNL     1      -3.189   0.940  -2.733  0.00  0.00    -0.453 OA
ATOM     18  C   UNL     1      -3.145   0.977  -4.172  0.00  0.00    +0.466 C 
ATOM     19  O   UNL     1      -3.281  -0.405  -4.554  0.00  0.00    -0.453 OA
ENDBRANCH  10  11
BRANCH   1  24
ATOM     20  C   UNL     1       0.994   1.149   0.660  0.00  0.00    +0.001 A 
ATOM     21  C   UNL     1       1.725   1.717  -0.368  0.00  0.00    +0.001 A 
ATOM     22  C   UNL     1       2.308   0.917  -1.334  0.00  0.00    +0.020 A 
ATOM     23  C   UNL     1       2.163  -0.456  -1.276  0.00  0.00    +0.050 A 
ATOM     24  C   UNL     1       1.429  -1.034  -0.241  0.00  0.00    +0.021 A 
ATOM     25  C   UNL     1       0.843  -0.221   0.728  0.00  0.00    +0.011 A 
ATOM     26 CL   UNL     1       2.895  -1.460  -2.488  0.00  0.00    -0.083 Cl
ENDBRANCH   1  24
BRANCH   8  27
ATOM     27  N   UNL     1      -2.698  -6.027   1.092  0.00  0.00    -0.328 N 
ATOM     28  H   UNL     1      -2.445  -6.963   1.078  0.00  0.00    +0.145 HD
ATOM     29  H   UNL     1      -3.573  -5.765   1.420  0.00  0.00    +0.145 HD
ENDBRANCH   8  27
BRANCH   9  30
ATOM     30  C   UNL     1      -3.515  -3.467   1.183  0.00  0.00    +0.101 C 
ATOM     31  N   UNL     1      -4.550  -3.220   1.581  0.00  0.00    -0.191 NA
ENDBRANCH   9  30
TORSDOF 4
