REMARK  Name = ZINC59462874
REMARK  9 active torsions:
REMARK  status: ('A' for Active; 'I' for Inactive)
REMARK    1  A    between atoms: C_1  and  C_2
REMARK    2  A    between atoms: C_2  and  C_3
REMARK    3  A    between atoms: C_2  and  C_4
REMARK    4  A    between atoms: C_7  and  N_10
REMARK    5  A    between atoms: C_11  and  C_22
REMARK    6  A    between atoms: C_25  and  C_28
REMARK    7  A    between atoms: C_28  and  C_29
REMARK    8  A    between atoms: C_28  and  C_30
REMARK    9  A    between atoms: C_28  and  C_31
REMARK                            x       y       z     vdW  Elec       q    Type
REMARK                         _______ _______ _______ _____ _____    ______ ____
ROOT
ATOM      1  N   UNL     1       2.746  -1.883   4.598  0.00  0.00    -0.244 N 
ATOM      2  C   UNL     1       2.017  -2.656   5.604  0.00  0.00    +0.198 C 
ATOM      3  N   UNL     1       2.561  -2.393   6.941  0.00  0.00    -0.321 N 
ATOM      4  C   UNL     1       3.941  -2.346   7.104  0.00  0.00    +0.041 A 
ATOM      5  C   UNL     1       4.545  -2.686   8.303  0.00  0.00    +0.024 A 
ATOM      6  C   UNL     1       5.920  -2.614   8.421  0.00  0.00    +0.002 A 
ATOM      7  C   UNL     1       6.698  -2.202   7.351  0.00  0.00    +0.001 A 
ATOM      8  C   UNL     1       6.113  -1.864   6.148  0.00  0.00    +0.015 A 
ATOM      9  C   UNL     1       4.728  -1.938   6.013  0.00  0.00    +0.058 A 
ATOM     10  C   UNL     1       4.059  -1.615   4.740  0.00  0.00    +0.254 C 
ATOM     11  O   UNL     1       4.684  -1.108   3.829  0.00  0.00    -0.270 OA
ATOM     12  H   UNL     1       1.969  -2.254   7.696  0.00  0.00    +0.148 HD
ENDROOT
BRANCH   1  16
ATOM     13  C   UNL     1       0.730  -0.503   1.224  0.00  0.00    -0.045 A 
ATOM     14  C   UNL     1       1.831  -1.327   1.080  0.00  0.00    +0.006 A 
ATOM     15  C   UNL     1       2.502  -1.786   2.197  0.00  0.00    +0.024 A 
ATOM     16  C   UNL     1       2.069  -1.419   3.465  0.00  0.00    +0.039 A 
ATOM     17  C   UNL     1       0.963  -0.592   3.605  0.00  0.00    +0.024 A 
ATOM     18  C   UNL     1       0.299  -0.132   2.484  0.00  0.00    +0.006 A 
BRANCH  13  20
ATOM     19  C   UNL     1       0.962   0.803  -0.871  0.00  0.00    +0.012 C 
ATOM     20  C   UNL     1       0.000  -0.004   0.003  0.00  0.00    +0.013 C 
ATOM     21  C   UNL     1      -0.535  -1.195  -0.794  0.00  0.00    +0.012 C 
ENDBRANCH  13  20
ENDBRANCH   1  16
BRANCH   2  22
ATOM     22  C   UNL     1       2.148  -4.125   5.295  0.00  0.00    -0.009 A 
ATOM     23  C   UNL     1       2.299  -4.546   3.987  0.00  0.00    +0.007 A 
ATOM     24  C   UNL     1       2.419  -5.894   3.705  0.00  0.00    +0.004 A 
ATOM     25  C   UNL     1       2.389  -6.821   4.730  0.00  0.00    -0.042 A 
ATOM     26  C   UNL     1       2.239  -6.400   6.038  0.00  0.00    +0.004 A 
ATOM     27  C   UNL     1       2.123  -5.052   6.321  0.00  0.00    +0.007 A 
BRANCH  25  28
ATOM     28  C   UNL     1       2.519  -8.290   4.422  0.00  0.00    -0.013 C 
ATOM     29  C   UNL     1       3.859  -8.549   3.729  0.00  0.00    +0.015 C 
ATOM     30  C   UNL     1       2.455  -9.092   5.723  0.00  0.00    +0.015 C 
ATOM     31  C   UNL     1       1.377  -8.721   3.500  0.00  0.00    +0.015 C 
ENDBRANCH  25  28
ENDBRANCH   2  22
TORSDOF 4
