REMARK  Name = ZINC36612891
REMARK  13 active torsions:
REMARK  status: ('A' for Active; 'I' for Inactive)
REMARK    1  A    between atoms: C_1  and  C_2
REMARK    2  A    between atoms: C_2  and  C_3
REMARK    3  A    between atoms: C_2  and  C_4
REMARK    4  A    between atoms: C_2  and  C_5
REMARK    5  A    between atoms: C_5  and  C_6
REMARK    6  A    between atoms: C_6  and  C_7
REMARK    7  A    between atoms: C_6  and  C_8
REMARK    8  A    between atoms: C_6  and  N_9
REMARK    9  A    between atoms: N_9  and  C_10
REMARK   10  A    between atoms: C_10  and  C_11
REMARK   11  A    between atoms: C_14  and  O_18
REMARK   12  A    between atoms: O_18  and  C_19
REMARK   13  A    between atoms: C_19  and  C_20
REMARK                            x       y       z     vdW  Elec       q    Type
REMARK                         _______ _______ _______ _____ _____    ______ ____
ROOT
ATOM      1  C   UNL     1       4.386  -0.221  -3.522  0.00  0.00    -0.062 A 
ATOM      2  C   UNL     1       5.131  -1.383  -3.441  0.00  0.00    +0.020 A 
ATOM      3  C   UNL     1       5.778  -1.871  -4.561  0.00  0.00    +0.061 A 
ATOM      4  C   UNL     1       5.678  -1.193  -5.768  0.00  0.00    +0.149 A 
ATOM      5  C   UNL     1       4.929  -0.028  -5.847  0.00  0.00    +0.061 A 
ATOM      6  C   UNL     1       4.280   0.453  -4.725  0.00  0.00    +0.020 A 
ATOM      7 BR   UNL     1       4.790   0.898  -7.490  0.00  0.00    -0.046 Br
ATOM      8 BR   UNL     1       6.798  -3.459  -4.449  0.00  0.00    -0.046 Br
ENDROOT
BRANCH   1   9
ATOM      9  C   UNL     1       3.682   0.308  -2.299  0.00  0.00    -0.046 C 
BRANCH   9  10
ATOM     10  N   UNL     1       2.333  -0.268  -2.223  0.00  0.00    +0.385 N 
ATOM     11  H   UNL     1       2.400  -1.273  -2.164  0.00  0.00    -0.085 HD
ATOM     12  H   UNL     1       1.811  -0.013  -3.047  0.00  0.00    -0.085 HD
BRANCH  10  13
ATOM     13  C   UNL     1       1.648   0.248  -1.030  0.00  0.00    -0.073 C 
ATOM     14  C   UNL     1       1.346   1.736  -1.220  0.00  0.00    -0.010 C 
ATOM     15  C   UNL     1       2.545   0.061   0.195  0.00  0.00    -0.010 C 
BRANCH  13  16
ATOM     16  C   UNL     1       0.338  -0.516  -0.825  0.00  0.00    -0.007 C 
BRANCH  16  18
ATOM     17  C   UNL     1       0.519  -1.831  -2.941  0.00  0.00    +0.010 C 
ATOM     18  C   UNL     1      -0.310  -0.793  -2.183  0.00  0.00    -0.039 C 
ATOM     19  C   UNL     1      -0.368   0.504  -2.994  0.00  0.00    +0.010 C 
ATOM     20  C   UNL     1      -1.728  -1.327  -1.972  0.00  0.00    +0.010 C 
ENDBRANCH  16  18
ENDBRANCH  13  16
ENDBRANCH  10  13
ENDBRANCH   9  10
ENDBRANCH   1   9
BRANCH   4  21
ATOM     21  O   UNL     1       6.313  -1.670  -6.872  0.00  0.00    -0.481 OA
BRANCH  21  22
ATOM     22  C   UNL     1       5.585  -2.582  -7.696  0.00  0.00    +0.324 C 
BRANCH  22  23
ATOM     23  C   UNL     1       6.443  -3.000  -8.862  0.00  0.00    +0.248 C 
ATOM     24  O   UNL     1       7.568  -2.561  -8.976  0.00  0.00    -0.272 OA
ATOM     25  N   UNL     1       5.961  -3.863  -9.779  0.00  0.00    -0.327 N 
ATOM     26  H   UNL     1       5.061  -4.214  -9.688  0.00  0.00    +0.145 HD
ATOM     27  H   UNL     1       6.513  -4.132 -10.530  0.00  0.00    +0.145 HD
ENDBRANCH  22  23
ENDBRANCH  21  22
ENDBRANCH   4  21
TORSDOF 8
