REMARK  Name = ZINC35918338
REMARK  14 active torsions:
REMARK  status: ('A' for Active; 'I' for Inactive)
REMARK    1  A    between atoms: C_1  and  C_2
REMARK    2  A    between atoms: C_5  and  C_8
REMARK    3  A    between atoms: N_11  and  C_25
REMARK    4  A    between atoms: C_13  and  C_15
REMARK    5  A    between atoms: C_15  and  N_16
REMARK    6  A    between atoms: N_16  and  C_17
REMARK    7  A    between atoms: C_17  and  C_18
REMARK    8  A    between atoms: C_17  and  C_19
REMARK    9  A    between atoms: C_20  and  C_22
REMARK   10  A    between atoms: C_22  and  C_23
REMARK   11  A    between atoms: C_22  and  C_24
REMARK   12  A    between atoms: C_25  and  C_26
REMARK   13  A    between atoms: C_30  and  O_32
REMARK   14  A    between atoms: O_32  and  C_33
REMARK                            x       y       z     vdW  Elec       q    Type
REMARK                         _______ _______ _______ _____ _____    ______ ____
ROOT
ATOM      1  C   UNL     1       1.102  -6.581  -0.731  0.00  0.00    +0.005 C 
ATOM      2  C   UNL     1      -0.279  -7.174  -0.379  0.00  0.00    -0.070 C 
ATOM      3  N   UNL     1      -0.095  -7.780   0.965  0.00  0.00    +0.383 N 
ATOM      4  C   UNL     1       0.773  -6.813   1.685  0.00  0.00    -0.073 C 
ATOM      5  C   UNL     1       1.797  -6.344   0.625  0.00  0.00    -0.005 C 
ATOM      6  H   UNL     1       0.363  -8.676   0.888  0.00  0.00    -0.081 HD
ENDROOT
BRANCH   1  11
ATOM      7  C   UNL     1       0.474  -1.585  -3.567  0.00  0.00    +0.044 C 
ATOM      8  C   UNL     1       0.638  -2.888  -2.828  0.00  0.00    -0.050 A 
ATOM      9  C   UNL     1       1.603  -3.793  -3.228  0.00  0.00    +0.003 A 
ATOM     10  C   UNL     1       1.753  -4.988  -2.549  0.00  0.00    +0.004 A 
ATOM     11  C   UNL     1       0.939  -5.278  -1.470  0.00  0.00    -0.046 A 
ATOM     12  C   UNL     1      -0.026  -4.372  -1.070  0.00  0.00    +0.004 A 
ATOM     13  C   UNL     1      -0.173  -3.175  -1.746  0.00  0.00    +0.003 A 
ENDBRANCH   1  11
BRANCH   5  14
ATOM     14  C   UNL     1       2.110  -4.858   0.810  0.00  0.00    +0.110 C 
BRANCH  14  15
ATOM     15  N   UNL     1       3.486  -4.704   1.288  0.00  0.00    -0.299 N 
ATOM     16  C   UNL     1       3.730  -4.578   2.608  0.00  0.00    +0.218 C 
ATOM     17  O   UNL     1       4.868  -4.434   3.003  0.00  0.00    -0.275 OA
BRANCH  15  18
ATOM     18  C   UNL     1       4.596  -4.688   0.333  0.00  0.00    +0.070 C 
ATOM     19  C   UNL     1       5.334  -3.352   0.431  0.00  0.00    +0.028 C 
ATOM     20  C   UNL     1       5.563  -5.830   0.655  0.00  0.00    +0.028 C 
ENDBRANCH  15  18
BRANCH  16  21
ATOM     21  C   UNL     1       2.590  -4.615   3.592  0.00  0.00    +0.069 C 
ATOM     22  C   UNL     1       3.135  -4.899   4.994  0.00  0.00    +0.017 C 
ATOM     23  C   UNL     1       1.869  -3.265   3.590  0.00  0.00    +0.017 C 
ENDBRANCH  16  21
ENDBRANCH  14  15
ENDBRANCH   5  14
BRANCH   3  24
ATOM     24  C   UNL     1      -1.388  -7.918   1.648  0.00  0.00    -0.043 C 
BRANCH  24  25
ATOM     25  C   UNL     1      -2.238  -8.925   0.916  0.00  0.00    -0.060 A 
ATOM     26  C   UNL     1      -3.076  -8.510  -0.102  0.00  0.00    +0.002 A 
ATOM     27  C   UNL     1      -3.857  -9.431  -0.776  0.00  0.00    +0.004 A 
ATOM     28  C   UNL     1      -3.802 -10.768  -0.431  0.00  0.00    +0.045 A 
ATOM     29  C   UNL     1      -2.962 -11.186   0.590  0.00  0.00    +0.120 A 
ATOM     30  C   UNL     1      -2.175 -10.261   1.260  0.00  0.00    +0.047 A 
BRANCH  29  31
ATOM     31  O   UNL     1      -2.906 -12.501   0.930  0.00  0.00    -0.495 OA
ATOM     32  C   UNL     1      -3.740 -13.398   0.194  0.00  0.00    +0.277 C 
ENDBRANCH  29  31
ENDBRANCH  24  25
ENDBRANCH   3  24
TORSDOF 8
