REMARK  Name = ZINC12340432
REMARK  11 active torsions:
REMARK  status: ('A' for Active; 'I' for Inactive)
REMARK    1  A    between atoms: C_4  and  C_7
REMARK    2  A    between atoms: C_7  and  C_9
REMARK    3  A    between atoms: C_7  and  O_28
REMARK    4  A    between atoms: C_9  and  N_54
REMARK    5  A    between atoms: C_10  and  C_11
REMARK    6  A    between atoms: C_10  and  N_54
REMARK    7  A    between atoms: C_11  and  N_12
REMARK    8  A    between atoms: C_18  and  C_19
REMARK    9  A    between atoms: C_18  and  N_54
REMARK   10  A    between atoms: C_19  and  C_21
REMARK   11  A    between atoms: C_19  and  O_27
REMARK                            x       y       z     vdW  Elec       q    Type
REMARK                         _______ _______ _______ _____ _____    ______ ____
ROOT
ATOM      1  N   UNL     1      -0.180   1.101  -2.455  0.00  0.00    +0.384 N 
ATOM      2  H   UNL     1      -0.148   0.086  -2.302  0.00  0.00    -0.082 HD
ENDROOT
BRANCH   1   3
ATOM      3  C   UNL     1      -1.010   1.381  -3.646  0.00  0.00    -0.042 C 
BRANCH   3   4
ATOM      4  C   UNL     1      -2.353   0.664  -3.491  0.00  0.00    +0.128 C 
BRANCH   4   8
ATOM      5  C   UNL     1      -4.763   1.395  -6.942  0.00  0.00    +0.000 A 
ATOM      6  C   UNL     1      -4.906   2.187  -5.818  0.00  0.00    +0.000 A 
ATOM      7  C   UNL     1      -4.126   1.951  -4.702  0.00  0.00    +0.006 A 
ATOM      8  C   UNL     1      -3.203   0.922  -4.708  0.00  0.00    -0.021 A 
ATOM      9  C   UNL     1      -3.056   0.133  -5.834  0.00  0.00    +0.006 A 
ATOM     10  C   UNL     1      -3.839   0.366  -6.949  0.00  0.00    +0.000 A 
ENDBRANCH   4   8
BRANCH   4  11
ATOM     11  O   UNL     1      -2.130  -0.741  -3.354  0.00  0.00    -0.389 OA
ATOM     12  H   UNL     1      -1.678  -1.143  -4.109  0.00  0.00    +0.210 HD
ENDBRANCH   4  11
ENDBRANCH   3   4
ENDBRANCH   1   3
BRANCH   1  13
ATOM     13  C   UNL     1      -0.771   1.748  -1.265  0.00  0.00    -0.059 C 
BRANCH  13  14
ATOM     14  C   UNL     1      -0.908   3.256  -1.486  0.00  0.00    +0.091 C 
BRANCH  14  15
ATOM     15  N   UNL     1      -1.489   3.873  -0.291  0.00  0.00    -0.286 N 
ATOM     16  C   UNL     1      -2.925   4.072  -0.048  0.00  0.00    +0.128 C 
ATOM     17  C   UNL     1      -2.975   4.750   1.336  0.00  0.00    +0.124 C 
ATOM     18  N   UNL     1      -1.560   4.868   1.721  0.00  0.00    -0.298 N 
ATOM     19  C   UNL     1      -0.795   4.352   0.750  0.00  0.00    +0.302 C 
ATOM     20  O   UNL     1       0.419   4.320   0.809  0.00  0.00    -0.253 OA
ATOM     21  H   UNL     1      -1.234   5.259   2.546  0.00  0.00    +0.150 HD
ENDBRANCH  14  15
ENDBRANCH  13  14
ENDBRANCH   1  13
BRANCH   1  22
ATOM     22  C   UNL     1       1.195   1.598  -2.670  0.00  0.00    -0.042 C 
BRANCH  22  23
ATOM     23  C   UNL     1       2.127   0.908  -1.671  0.00  0.00    +0.128 C 
BRANCH  23  24
ATOM     24  C   UNL     1       3.531   1.422  -1.858  0.00  0.00    -0.021 A 
ATOM     25  C   UNL     1       4.320   0.922  -2.878  0.00  0.00    +0.006 A 
ATOM     26  C   UNL     1       5.607   1.396  -3.052  0.00  0.00    +0.000 A 
ATOM     27  C   UNL     1       6.109   2.362  -2.200  0.00  0.00    +0.000 A 
ATOM     28  C   UNL     1       5.322   2.858  -1.177  0.00  0.00    +0.000 A 
ATOM     29  C   UNL     1       4.033   2.388  -1.006  0.00  0.00    +0.006 A 
ENDBRANCH  23  24
BRANCH  23  30
ATOM     30  O   UNL     1       2.102  -0.503  -1.893  0.00  0.00    -0.389 OA
ATOM     31  H   UNL     1       2.387  -0.767  -2.779  0.00  0.00    +0.210 HD
ENDBRANCH  23  30
ENDBRANCH  22  23
ENDBRANCH   1  22
TORSDOF 11
