REMARK  Name = ZINC09494202
REMARK  7 active torsions:
REMARK  status: ('A' for Active; 'I' for Inactive)
REMARK    1  A    between atoms: C_1  and  C_2
REMARK    2  A    between atoms: C_2  and  C_4
REMARK    3  A    between atoms: C_2  and  O_13
REMARK    4  A    between atoms: C_4  and  C_6
REMARK    5  A    between atoms: O_13  and  C_14
REMARK    6  A    between atoms: C_14  and  C_16
REMARK    7  A    between atoms: N_18  and  C_23
REMARK                            x       y       z     vdW  Elec       q    Type
REMARK                         _______ _______ _______ _____ _____    ______ ____
ROOT
ATOM      1  C   UNL     1      -2.300  -0.115   1.874  0.00  0.00    +0.356 C 
ATOM      2  O   UNL     1      -1.368  -0.717   2.371  0.00  0.00    -0.244 OA
ENDROOT
BRANCH   1   3
ATOM      3  C   UNL     1      -3.649  -0.684   1.922  0.00  0.00    +0.144 C 
ATOM      4  N   UNL     1      -4.638  -0.032   1.393  0.00  0.00    -0.175 NA
ATOM      5  N   UNL     1      -5.939  -0.545   1.418  0.00  0.00    -0.188 N 
ATOM      6  C   UNL     1      -6.276  -1.501   2.305  0.00  0.00    +0.235 C 
ATOM      7  O   UNL     1      -7.408  -1.937   2.329  0.00  0.00    -0.274 OA
ATOM      8  C   UNL     1      -5.242  -2.027   3.268  0.00  0.00    +0.104 C 
ATOM      9  C   UNL     1      -3.871  -2.015   2.590  0.00  0.00    +0.073 C 
BRANCH   5  10
ATOM     10  C   UNL     1      -6.942  -0.037   0.478  0.00  0.00    +0.124 C 
ATOM     11  C   UNL     1      -7.135   1.472   0.703  0.00  0.00    +0.049 C 
ATOM     12  C   UNL     1      -7.952   2.039  -0.492  0.00  0.00    +0.168 C 
ATOM     13  S   UNL     1      -7.181   1.124  -1.893  0.00  0.00    -0.029 S 
ATOM     14  O   UNL     1      -6.122   1.907  -2.429  0.00  0.00    -0.174 OA
ATOM     15  O   UNL     1      -8.205   0.649  -2.756  0.00  0.00    -0.174 OA
ATOM     16  C   UNL     1      -6.466  -0.298  -0.972  0.00  0.00    +0.190 C 
ENDBRANCH   5  10
ENDBRANCH   1   3
BRANCH   1  17
ATOM     17  O   UNL     1      -2.091   1.077   1.277  0.00  0.00    -0.449 OA
BRANCH  17  19
ATOM     18  C   UNL     1      -0.013   1.086   0.008  0.00  0.00    +0.061 C 
ATOM     19  C   UNL     1      -0.729   1.579   1.267  0.00  0.00    +0.244 C 
BRANCH  19  20
ATOM     20  C   UNL     1      -0.749   3.086   1.275  0.00  0.00    +0.203 C 
ATOM     21  O   UNL     1      -1.774   3.680   1.016  0.00  0.00    -0.288 OA
BRANCH  20  22
ATOM     22  C   UNL     1       0.474   3.837   1.597  0.00  0.00    +0.021 A 
ATOM     23  C   UNL     1       1.657   3.155   1.902  0.00  0.00    +0.012 A 
ATOM     24  C   UNL     1       2.801   3.865   2.197  0.00  0.00    +0.016 A 
ATOM     25  C   UNL     1       2.779   5.250   2.204  0.00  0.00    +0.018 A 
ATOM     26  C   UNL     1       1.609   5.932   1.909  0.00  0.00    +0.016 A 
ATOM     27  C   UNL     1       0.459   5.235   1.606  0.00  0.00    +0.012 A 
ATOM     28 BR   UNL     1       4.351   6.214   2.618  0.00  0.00    -0.050 Br
ENDBRANCH  20  22
ENDBRANCH  19  20
ENDBRANCH  17  19
ENDBRANCH   1  17
TORSDOF 6
