REMARK  Name = ZINC56144160
REMARK  12 active torsions:
REMARK  status: ('A' for Active; 'I' for Inactive)
REMARK    1  A    between atoms: C_1  and  C_2
REMARK    2  A    between atoms: C_2  and  C_3
REMARK    3  A    between atoms: C_3  and  N_4
REMARK    4  A    between atoms: C_5  and  C_7
REMARK    5  A    between atoms: C_7  and  N_8
REMARK    6  A    between atoms: C_11  and  N_14
REMARK    7  A    between atoms: N_14  and  C_15
REMARK    8  A    between atoms: C_15  and  C_17
REMARK    9  A    between atoms: C_15  and  C_23
REMARK   10  A    between atoms: N_25  and  C_26
REMARK   11  A    between atoms: C_26  and  C_27
REMARK   12  A    between atoms: C_26  and  C_28
REMARK                            x       y       z     vdW  Elec       q    Type
REMARK                         _______ _______ _______ _____ _____    ______ ____
ROOT
ATOM      1  N   UNL     1       2.988  -6.552  -7.118  0.00  0.00    -0.299 NA
ATOM      2  H   UNL     1       2.820  -5.931  -7.896  0.00  0.00    +0.123 HD
ENDROOT
BRANCH   1   6
ATOM      3  N   UNL     1       2.029  -4.603  -3.502  0.00  0.00    +0.385 N 
ATOM      4  C   UNL     1       1.258  -4.211  -4.687  0.00  0.00    -0.077 C 
ATOM      5  C   UNL     1       2.010  -4.630  -5.952  0.00  0.00    -0.000 C 
ATOM      6  C   UNL     1       2.200  -6.150  -5.945  0.00  0.00    +0.051 C 
ATOM      7  C   UNL     1       2.941  -6.556  -4.668  0.00  0.00    -0.000 C 
ATOM      8  C   UNL     1       2.154  -6.065  -3.451  0.00  0.00    -0.077 C 
ATOM      9  H   UNL     1       2.948  -4.190  -3.549  0.00  0.00    -0.081 HD
BRANCH   3  10
ATOM     10  C   UNL     1       1.341  -4.130  -2.293  0.00  0.00    +0.019 C 
BRANCH  10  12
ATOM     11  N   UNL     1       0.738  -1.962  -1.265  0.00  0.00    -0.317 N 
ATOM     12  C   UNL     1       1.321  -2.623  -2.285  0.00  0.00    +0.196 C 
ATOM     13  O   UNL     1       1.829  -2.004  -3.196  0.00  0.00    -0.278 OA
ATOM     14  H   UNL     1       0.332  -2.457  -0.536  0.00  0.00    +0.149 HD
BRANCH  11  15
ATOM     15  C   UNL     1       0.718  -0.497  -1.257  0.00  0.00    +0.104 C 
BRANCH  15  17
ATOM     16  C   UNL     1      -0.019   1.526   0.010  0.00  0.00    +0.005 C 
ATOM     17  C   UNL     1       0.002  -0.004   0.002  0.00  0.00    +0.015 C 
ENDBRANCH  15  17
ENDBRANCH  11  15
ENDBRANCH  10  12
ENDBRANCH   3  10
ENDBRANCH   1   6
BRANCH   1  18
ATOM     18  C   UNL     1       2.710  -7.946  -7.487  0.00  0.00    +0.171 C 
BRANCH  18  19
ATOM     19  C   UNL     1       1.490  -7.998  -8.370  0.00  0.00    -0.022 A 
ATOM     20  C   UNL     1       1.301  -7.038  -9.346  0.00  0.00    +0.005 A 
ATOM     21  C   UNL     1       0.181  -7.086 -10.155  0.00  0.00    +0.000 A 
ATOM     22  C   UNL     1      -0.749  -8.094  -9.989  0.00  0.00    +0.000 A 
ATOM     23  C   UNL     1      -0.560  -9.055  -9.013  0.00  0.00    +0.000 A 
ATOM     24  C   UNL     1       0.561  -9.010  -8.206  0.00  0.00    +0.005 A 
ENDBRANCH  18  19
BRANCH  18  25
ATOM     25  C   UNL     1       3.892  -8.515  -8.230  0.00  0.00    +0.235 C 
ATOM     26  O   UNL     1       4.869  -7.826  -8.432  0.00  0.00    -0.274 OA
ATOM     27  N   UNL     1       3.862  -9.789  -8.669  0.00  0.00    -0.311 N 
ATOM     28  H   UNL     1       3.080 -10.339  -8.508  0.00  0.00    +0.149 HD
BRANCH  27  29
ATOM     29  C   UNL     1       5.010 -10.341  -9.391  0.00  0.00    +0.067 C 
ATOM     30  C   UNL     1       5.026 -11.863  -9.235  0.00  0.00    +0.027 C 
ATOM     31  C   UNL     1       4.902  -9.982 -10.874  0.00  0.00    +0.027 C 
ENDBRANCH  27  29
ENDBRANCH  18  25
ENDBRANCH   1  18
TORSDOF 9
