REMARK  Name = ZINC12226698
REMARK  13 active torsions:
REMARK  status: ('A' for Active; 'I' for Inactive)
REMARK    1  A    between atoms: C_1  and  C_2
REMARK    2  A    between atoms: N_11  and  C_12
REMARK    3  A    between atoms: C_12  and  C_13
REMARK    4  A    between atoms: C_13  and  N_64
REMARK    5  A    between atoms: C_14  and  N_64
REMARK    6  A    between atoms: C_15  and  N_64
REMARK    7  A    between atoms: C_16  and  C_18
REMARK    8  A    between atoms: C_21  and  S_24
REMARK    9  A    between atoms: S_24  and  N_27
REMARK   10  A    between atoms: N_27  and  C_28
REMARK   11  A    between atoms: N_27  and  C_31
REMARK   12  A    between atoms: C_28  and  C_29
REMARK   13  A    between atoms: C_31  and  C_32
REMARK                            x       y       z     vdW  Elec       q    Type
REMARK                         _______ _______ _______ _____ _____    ______ ____
ROOT
ATOM      1  C   UNL     1      -5.971  -4.578   1.348  0.00  0.00    +0.044 C 
ATOM      2  C   UNL     1      -4.725  -3.911   0.825  0.00  0.00    -0.049 A 
ATOM      3  C   UNL     1      -3.820  -4.624   0.052  0.00  0.00    +0.005 A 
ATOM      4  C   UNL     1      -2.680  -4.041  -0.437  0.00  0.00    +0.029 A 
ATOM      5  C   UNL     1      -2.389  -2.684  -0.165  0.00  0.00    +0.080 A 
ATOM      6  C   UNL     1      -3.334  -1.989   0.625  0.00  0.00    +0.041 A 
ATOM      7  C   UNL     1      -4.473  -2.582   1.110  0.00  0.00    +0.020 A 
ATOM      8  S   UNL     1      -2.614  -0.368   0.737  0.00  0.00    -0.052 S 
ATOM      9  C   UNL     1      -1.160  -0.700  -0.247  0.00  0.00    +0.168 A 
ATOM     10  N   UNL     1      -1.320  -1.964  -0.566  0.00  0.00    -0.224 NA
ATOM     11  N   UNL     1      -0.125   0.156  -0.583  0.00  0.00    -0.248 N 
ATOM     12  C   UNL     1      -0.141   1.433  -0.154  0.00  0.00    +0.252 C 
ATOM     13  O   UNL     1      -1.091   1.850   0.480  0.00  0.00    -0.270 OA
ENDROOT
BRANCH  12  14
ATOM     14  C   UNL     1       0.994   2.329  -0.459  0.00  0.00    +0.037 A 
ATOM     15  C   UNL     1       2.277   1.805  -0.623  0.00  0.00    +0.015 A 
ATOM     16  C   UNL     1       3.331   2.647  -0.913  0.00  0.00    +0.029 A 
ATOM     17  C   UNL     1       3.121   4.009  -1.030  0.00  0.00    +0.106 A 
ATOM     18  C   UNL     1       1.852   4.536  -0.863  0.00  0.00    +0.029 A 
ATOM     19  C   UNL     1       0.789   3.705  -0.579  0.00  0.00    +0.015 A 
BRANCH  17  20
ATOM     20  S   UNL     1       4.474   5.077  -1.395  0.00  0.00    +0.061 S 
ATOM     21  O   UNL     1       5.456   4.282  -2.043  0.00  0.00    -0.153 OA
ATOM     22  O   UNL     1       3.921   6.243  -1.992  0.00  0.00    -0.153 OA
BRANCH  20  23
ATOM     23  N   UNL     1       5.127   5.551   0.051  0.00  0.00    -0.169 NA
BRANCH  23  24
ATOM     24  C   UNL     1       6.197   4.762   0.665  0.00  0.00    +0.136 C 
BRANCH  24  25
ATOM     25  C   UNL     1       7.534   5.344   0.281  0.00  0.00    -0.018 C 
ATOM     26  C   UNL     1       8.391   5.685   1.212  0.00  0.00    +0.005 C 
ENDBRANCH  24  25
ENDBRANCH  23  24
BRANCH  23  27
ATOM     27  C   UNL     1       4.634   6.759   0.717  0.00  0.00    +0.136 C 
BRANCH  27  28
ATOM     28  C   UNL     1       3.580   6.382   1.727  0.00  0.00    -0.018 C 
ATOM     29  C   UNL     1       3.708   6.755   2.976  0.00  0.00    +0.005 C 
ENDBRANCH  27  28
ENDBRANCH  23  27
ENDBRANCH  20  23
ENDBRANCH  17  20
ENDBRANCH  12  14
BRANCH  11  30
ATOM     30  C   UNL     1       0.988  -0.327  -1.405  0.00  0.00    +0.097 C 
BRANCH  30  31
ATOM     31  C   UNL     1       1.859  -1.274  -0.578  0.00  0.00    -0.060 C 
BRANCH  31  34
ATOM     32  C   UNL     1       3.928  -0.836  -1.757  0.00  0.00    -0.097 C 
ATOM     33  C   UNL     1       3.520  -3.022  -0.800  0.00  0.00    -0.097 C 
ATOM     34  N   UNL     1       2.898  -1.853  -1.456  0.00  0.00    +0.377 N 
ATOM     35  H   UNL     1       2.461  -2.156  -2.334  0.00  0.00    -0.083 HD
ENDBRANCH  31  34
ENDBRANCH  30  31
ENDBRANCH  11  30
TORSDOF 10
