REMARK  Name = ZINC33287974
REMARK  10 active torsions:
REMARK  status: ('A' for Active; 'I' for Inactive)
REMARK    1  A    between atoms: C_1  and  C_2
REMARK    2  A    between atoms: C_2  and  N_3
REMARK    3  A    between atoms: C_4  and  C_11
REMARK    4  A    between atoms: C_7  and  S_8
REMARK    5  A    between atoms: S_8  and  C_9
REMARK    6  A    between atoms: C_9  and  C_10
REMARK    7  A    between atoms: N_14  and  C_16
REMARK    8  A    between atoms: N_19  and  S_21
REMARK    9  A    between atoms: S_21  and  C_24
REMARK   10  A    between atoms: C_29  and  C_30
REMARK                            x       y       z     vdW  Elec       q    Type
REMARK                         _______ _______ _______ _____ _____    ______ ____
ROOT
ATOM      1  C   UNL     1       0.033   1.742   0.019  0.00  0.00    +0.134 A 
ATOM      2  C   UNL     1       0.274   0.363  -0.088  0.00  0.00    +0.020 A 
ATOM      3  C   UNL     1       1.550   0.190  -0.509  0.00  0.00    +0.045 A 
ATOM      4  N   UNL     1       2.104   1.407  -0.660  0.00  0.00    -0.270 N 
ATOM      5  N   UNL     1       1.141   2.371  -0.327  0.00  0.00    -0.168 NA
ATOM      6  C   UNL     1       3.476   1.679  -1.097  0.00  0.00    +0.172 C 
ATOM      7  C   UNL     1       2.193  -1.152  -0.753  0.00  0.00    +0.072 C 
ATOM      8  C   UNL     1       1.371  -2.232  -0.040  0.00  0.00    +0.116 C 
ATOM      9  N   UNL     1      -0.057  -2.006  -0.307  0.00  0.00    -0.172 NA
ATOM     10  C   UNL     1      -0.678  -0.772   0.205  0.00  0.00    +0.148 C 
ENDROOT
BRANCH   1  12
ATOM     11  N   UNL     1      -1.477   3.725   0.551  0.00  0.00    -0.301 N 
ATOM     12  C   UNL     1      -1.235   2.376   0.439  0.00  0.00    +0.185 A 
ATOM     13  N   UNL     1      -2.341   1.757   0.779  0.00  0.00    -0.127 NA
ATOM     14  N   UNL     1      -3.247   2.615   1.088  0.00  0.00    -0.122 NA
ATOM     15  C   UNL     1      -2.775   3.834   0.963  0.00  0.00    +0.192 A 
BRANCH  11  17
ATOM     16  C   UNL     1      -0.648   5.235  -1.186  0.00  0.00    +0.027 C 
ATOM     17  C   UNL     1      -0.539   4.818   0.282  0.00  0.00    +0.122 C 
ENDBRANCH  11  17
BRANCH  15  18
ATOM     18  S   UNL     1      -3.650   5.331   1.276  0.00  0.00    -0.086 S 
BRANCH  18  19
ATOM     19  C   UNL     1      -5.255   4.659   1.775  0.00  0.00    +0.074 C 
ATOM     20  C   UNL     1      -6.209   5.808   2.105  0.00  0.00    +0.016 C 
ENDBRANCH  18  19
ENDBRANCH  15  18
ENDBRANCH   1  12
BRANCH   9  21
ATOM     21  S   UNL     1      -0.945  -3.112  -1.162  0.00  0.00    +0.061 S 
ATOM     22  O   UNL     1      -0.395  -4.389  -0.870  0.00  0.00    -0.153 OA
ATOM     23  O   UNL     1      -2.312  -2.800  -0.931  0.00  0.00    -0.153 OA
BRANCH  21  24
ATOM     24  C   UNL     1      -0.643  -2.812  -2.872  0.00  0.00    +0.111 A 
ATOM     25  C   UNL     1      -0.009  -3.771  -3.640  0.00  0.00    +0.067 A 
ATOM     26  C   UNL     1       0.228  -3.536  -4.983  0.00  0.00    +0.125 A 
ATOM     27  C   UNL     1      -0.171  -2.340  -5.556  0.00  0.00    +0.039 A 
ATOM     28  C   UNL     1      -0.805  -1.383  -4.787  0.00  0.00    +0.008 A 
ATOM     29  C   UNL     1      -1.046  -1.621  -3.447  0.00  0.00    -0.024 A 
ATOM     30  C   UNL     1      -1.743  -0.580  -2.610  0.00  0.00    +0.046 C 
ATOM     31  F   UNL     1       0.848  -4.472  -5.734  0.00  0.00    -0.205 F 
ENDBRANCH  21  24
ENDBRANCH   9  21
TORSDOF 6
