REMARK  Name = ZINC14531477
REMARK  13 active torsions:
REMARK  status: ('A' for Active; 'I' for Inactive)
REMARK    1  A    between atoms: C_1  and  N_2
REMARK    2  A    between atoms: N_2  and  C_3
REMARK    3  A    between atoms: N_2  and  C_4
REMARK    4  A    between atoms: C_7  and  C_10
REMARK    5  A    between atoms: C_11  and  C_12
REMARK    6  A    between atoms: C_12  and  N_74
REMARK    7  A    between atoms: N_20  and  C_29
REMARK    8  A    between atoms: N_23  and  C_24
REMARK    9  A    between atoms: C_24  and  C_25
REMARK   10  A    between atoms: C_25  and  C_26
REMARK   11  A    between atoms: C_26  and  O_27
REMARK   12  A    between atoms: O_27  and  C_28
REMARK   13  A    between atoms: C_29  and  C_30
REMARK                            x       y       z     vdW  Elec       q    Type
REMARK                         _______ _______ _______ _____ _____    ______ ____
ROOT
ATOM      1  C   UNL     1      -3.027   0.857   6.320  0.00  0.00    -0.076 C 
ATOM      2  C   UNL     1      -2.917   1.722   5.062  0.00  0.00    +0.017 C 
ATOM      3  C   UNL     1      -3.708   1.072   3.931  0.00  0.00    +0.112 C 
ATOM      4  C   UNL     1      -5.158   0.854   4.351  0.00  0.00    +0.017 C 
ATOM      5  C   UNL     1      -5.195   0.016   5.632  0.00  0.00    -0.076 C 
ATOM      6  C   UNL     1      -3.640   1.919   2.682  0.00  0.00    +0.247 C 
ATOM      7  O   UNL     1      -4.037   3.056   2.544  0.00  0.00    -0.273 OA
ATOM      8  N   UNL     1      -3.044   1.143   1.753  0.00  0.00    -0.220 N 
ATOM      9  C   UNL     1      -2.738  -0.065   2.242  0.00  0.00    +0.312 C 
ATOM     10  O   UNL     1      -2.200  -0.940   1.593  0.00  0.00    -0.252 OA
ATOM     11  N   UNL     1      -3.090  -0.199   3.535  0.00  0.00    -0.271 N 
ATOM     12  N   UNL     1      -4.453   0.732   6.692  0.00  0.00    +0.382 N 
ATOM     13  H   UNL     1      -4.852   1.672   6.801  0.00  0.00    -0.081 HD
ENDROOT
BRANCH  12  14
ATOM     14  C   UNL     1      -4.578   0.006   7.973  0.00  0.00    -0.051 C 
BRANCH  14  16
ATOM     15  C   UNL     1      -6.369  -1.607   8.442  0.00  0.00    +0.002 C 
ATOM     16  C   UNL     1      -6.025  -0.349   8.199  0.00  0.00    -0.045 C 
BRANCH  15  20
ATOM     17  C   UNL     1     -10.448  -2.609   9.081  0.00  0.00    +0.029 A 
ATOM     18  C   UNL     1      -9.474  -3.601   9.127  0.00  0.00    +0.023 A 
ATOM     19  C   UNL     1      -8.150  -3.279   8.920  0.00  0.00    +0.010 A 
ATOM     20  C   UNL     1      -7.787  -1.955   8.664  0.00  0.00    -0.025 A 
ATOM     21  C   UNL     1      -8.766  -0.961   8.624  0.00  0.00    +0.010 A 
ATOM     22  C   UNL     1     -10.089  -1.290   8.827  0.00  0.00    +0.023 A 
BRANCH  17  24
ATOM     23  C   UNL     1     -12.167  -4.327   9.559  0.00  0.00    +0.129 C 
ATOM     24  N   UNL     1     -11.787  -2.938   9.291  0.00  0.00    -0.336 N 
ATOM     25  C   UNL     1     -12.814  -1.894   9.243  0.00  0.00    +0.129 C 
ENDBRANCH  17  24
ENDBRANCH  15  20
ENDBRANCH  14  16
ENDBRANCH  12  14
BRANCH  11  26
ATOM     26  C   UNL     1      -2.898  -1.382   4.378  0.00  0.00    +0.112 C 
BRANCH  26  27
ATOM     27  C   UNL     1      -1.402  -1.608   4.608  0.00  0.00    +0.047 C 
BRANCH  27  28
ATOM     28  C   UNL     1      -1.206  -2.764   5.590  0.00  0.00    +0.161 C 
BRANCH  28  29
ATOM     29  O   UNL     1       0.191  -2.975   5.805  0.00  0.00    -0.383 OA
ATOM     30  C   UNL     1       0.485  -4.040   6.712  0.00  0.00    +0.193 C 
ENDBRANCH  28  29
ENDBRANCH  27  28
ENDBRANCH  26  27
ENDBRANCH  11  26
BRANCH   8  31
ATOM     31  C   UNL     1      -2.772   1.568   0.378  0.00  0.00    +0.153 C 
BRANCH  31  32
ATOM     32  C   UNL     1      -1.409   2.206   0.309  0.00  0.00    -0.030 A 
ATOM     33  C   UNL     1      -0.295   1.431   0.045  0.00  0.00    +0.005 A 
ATOM     34  C   UNL     1       0.955   2.017  -0.024  0.00  0.00    +0.000 A 
ATOM     35  C   UNL     1       1.092   3.377   0.178  0.00  0.00    +0.000 A 
ATOM     36  C   UNL     1      -0.021   4.152   0.447  0.00  0.00    +0.000 A 
ATOM     37  C   UNL     1      -1.271   3.566   0.516  0.00  0.00    +0.005 A 
ENDBRANCH  31  32
ENDBRANCH   8  31
TORSDOF 10
