REMARK  Name = ZINC64609900
REMARK  10 active torsions:
REMARK  status: ('A' for Active; 'I' for Inactive)
REMARK    1  A    between atoms: C_1  and  C_2
REMARK    2  A    between atoms: C_2  and  N_3
REMARK    3  A    between atoms: C_5  and  C_9
REMARK    4  A    between atoms: C_6  and  C_8
REMARK    5  A    between atoms: C_9  and  N_10
REMARK    6  A    between atoms: C_23  and  C_25
REMARK    7  A    between atoms: C_29  and  O_33
REMARK    8  A    between atoms: C_30  and  O_31
REMARK    9  A    between atoms: O_31  and  C_32
REMARK   10  A    between atoms: O_33  and  C_34
REMARK                            x       y       z     vdW  Elec       q    Type
REMARK                         _______ _______ _______ _____ _____    ______ ____
ROOT
ATOM      1  N   UNL     1       4.373  -1.580  -3.182  0.00  0.00    -0.289 NA
ATOM      2  C   UNL     1       4.971  -1.068  -1.946  0.00  0.00    +0.090 C 
ATOM      3  C   UNL     1       5.982   0.048  -2.266  0.00  0.00    +0.049 C 
ATOM      4  C   UNL     1       6.889  -0.502  -3.339  0.00  0.00    -0.035 C 
ATOM      5  C   UNL     1       8.209  -0.546  -3.457  0.00  0.00    -0.001 A 
ATOM      6  C   UNL     1       9.287   0.047  -2.649  0.00  0.00    +0.010 A 
ATOM      7  C   UNL     1      10.557  -0.229  -3.049  0.00  0.00    +0.001 A 
ATOM      8  C   UNL     1      10.858  -1.025  -4.158  0.00  0.00    +0.002 A 
ATOM      9  C   UNL     1       9.931  -1.601  -4.964  0.00  0.00    +0.026 A 
ATOM     10  C   UNL     1       8.559  -1.375  -4.651  0.00  0.00    +0.043 A 
ATOM     11  N   UNL     1       7.481  -1.775  -5.259  0.00  0.00    -0.376 N 
ATOM     12  C   UNL     1       6.327  -1.192  -4.578  0.00  0.00    +0.128 C 
ATOM     13  C   UNL     1       5.342  -2.246  -4.067  0.00  0.00    +0.117 C 
ATOM     14  H   UNL     1       7.448  -2.360  -6.032  0.00  0.00    +0.160 HD
ENDROOT
BRANCH  13  15
ATOM     15  C   UNL     1       4.619  -2.873  -5.231  0.00  0.00    +0.017 A 
ATOM     16  C   UNL     1       3.383  -2.388  -5.620  0.00  0.00    +0.009 A 
ATOM     17  C   UNL     1       2.718  -2.961  -6.688  0.00  0.00    +0.004 A 
ATOM     18  C   UNL     1       3.284  -4.022  -7.371  0.00  0.00    +0.049 A 
ATOM     19  C   UNL     1       4.522  -4.512  -6.986  0.00  0.00    +0.162 A 
ATOM     20  C   UNL     1       5.195  -3.931  -5.915  0.00  0.00    +0.166 A 
BRANCH  20  21
ATOM     21  O   UNL     1       6.412  -4.405  -5.538  0.00  0.00    -0.491 OA
ATOM     22  C   UNL     1       6.428  -5.451  -4.565  0.00  0.00    +0.277 C 
ENDBRANCH  20  21
BRANCH  19  23
ATOM     23  O   UNL     1       5.080  -5.554  -7.657  0.00  0.00    -0.491 OA
ATOM     24  C   UNL     1       4.335  -6.097  -8.750  0.00  0.00    +0.277 C 
ENDBRANCH  19  23
ENDBRANCH  13  15
BRANCH   1  25
ATOM     25  C   UNL     1       3.234  -2.461  -2.890  0.00  0.00    +0.123 C 
BRANCH  25  28
ATOM     26  N   UNL     1       4.424  -5.796  -2.021  0.00  0.00    -0.271 N 
ATOM     27  C   UNL     1       3.997  -4.894  -2.928  0.00  0.00    +0.113 A 
ATOM     28  C   UNL     1       3.735  -3.740  -2.271  0.00  0.00    +0.007 A 
ATOM     29  C   UNL     1       4.012  -3.945  -0.915  0.00  0.00    +0.064 A 
ATOM     30  N   UNL     1       4.420  -5.179  -0.763  0.00  0.00    -0.176 NA
ATOM     31  C   UNL     1       3.861  -2.923   0.182  0.00  0.00    +0.068 C 
BRANCH  26  33
ATOM     32  C   UNL     1       6.229  -7.427  -1.763  0.00  0.00    +0.029 C 
ATOM     33  C   UNL     1       4.818  -7.179  -2.300  0.00  0.00    +0.140 C 
ENDBRANCH  26  33
ENDBRANCH  25  28
ENDBRANCH   1  25
TORSDOF 6
