REMARK  Name = ZINC64191083
REMARK  6 active torsions:
REMARK  status: ('A' for Active; 'I' for Inactive)
REMARK    1  A    between atoms: C_7  and  C_10
REMARK    2  A    between atoms: C_10  and  C_12
REMARK    3  A    between atoms: C_10  and  C_30
REMARK    4  A    between atoms: C_12  and  N_13
REMARK    5  A    between atoms: C_14  and  C_16
REMARK    6  A    between atoms: C_23  and  C_25
REMARK                            x       y       z     vdW  Elec       q    Type
REMARK                         _______ _______ _______ _____ _____    ______ ____
ROOT
ATOM      1  C   UNL     1       0.499  -2.947  -0.096  0.00  0.00    +0.066 C 
ENDROOT
BRANCH   1   8
ATOM      2  C   UNL     1      -0.053   1.514  -1.016  0.00  0.00    +0.001 A 
ATOM      3  C   UNL     1       1.140   2.248  -0.976  0.00  0.00    +0.002 A 
ATOM      4  C   UNL     1       2.333   1.685  -0.692  0.00  0.00    +0.026 A 
ATOM      5  C   UNL     1       2.424   0.292  -0.417  0.00  0.00    +0.043 A 
ATOM      6  N   UNL     1       3.445  -0.474  -0.121  0.00  0.00    -0.380 N 
ATOM      7  C   UNL     1       2.961  -1.847   0.064  0.00  0.00    +0.145 C 
ATOM      8  C   UNL     1       1.467  -1.795  -0.168  0.00  0.00    -0.033 C 
ATOM      9  C   UNL     1       1.177  -0.505  -0.453  0.00  0.00    -0.000 A 
ATOM     10  C   UNL     1      -0.079   0.185  -0.770  0.00  0.00    +0.010 A 
ATOM     11  H   UNL     1       4.367  -0.183  -0.039  0.00  0.00    +0.160 HD
ENDBRANCH   1   8
BRANCH   1  12
ATOM     12  C   UNL     1       0.532  -3.546   1.286  0.00  0.00    -0.020 A 
ATOM     13  C   UNL     1       1.712  -4.064   1.787  0.00  0.00    +0.006 A 
ATOM     14  C   UNL     1       1.742  -4.614   3.055  0.00  0.00    +0.000 A 
ATOM     15  C   UNL     1       0.593  -4.646   3.823  0.00  0.00    +0.001 A 
ATOM     16  C   UNL     1      -0.587  -4.128   3.323  0.00  0.00    +0.020 A 
ATOM     17  C   UNL     1      -0.617  -3.573   2.056  0.00  0.00    +0.045 A 
ATOM     18 CL   UNL     1      -2.097  -2.917   1.430  0.00  0.00    -0.083 Cl
ENDBRANCH   1  12
BRANCH   1  19
ATOM     19  C   UNL     1       0.895  -4.011  -1.123  0.00  0.00    +0.116 C 
BRANCH  19  20
ATOM     20  N   UNL     1      -0.113  -5.074  -1.137  0.00  0.00    -0.314 N 
ATOM     21  C   UNL     1       0.028  -6.125  -1.970  0.00  0.00    +0.218 C 
ATOM     22  O   UNL     1       0.989  -6.189  -2.708  0.00  0.00    -0.275 OA
ATOM     23  H   UNL     1      -0.881  -5.023  -0.547  0.00  0.00    +0.149 HD
BRANCH  21  24
ATOM     24  C   UNL     1      -1.008  -7.219  -1.985  0.00  0.00    +0.092 C 
ATOM     25  C   UNL     1      -0.613  -8.282  -3.013  0.00  0.00    +0.016 C 
ATOM     26  C   UNL     1      -1.648  -9.410  -3.005  0.00  0.00    +0.020 C 
ATOM     27  C   UNL     1      -3.017  -8.844  -3.396  0.00  0.00    +0.108 C 
ATOM     28  N   UNL     1      -3.339  -7.724  -2.501  0.00  0.00    -0.294 N 
ATOM     29  C   UNL     1      -2.370  -6.628  -2.364  0.00  0.00    +0.121 C 
ATOM     30  C   UNL     1      -4.501  -7.702  -1.819  0.00  0.00    +0.282 C 
ATOM     31  O   UNL     1      -4.700  -6.840  -0.984  0.00  0.00    -0.267 OA
BRANCH  30  32
ATOM     32  C   UNL     1      -5.525  -8.718  -2.083  0.00  0.00    +0.189 A 
ATOM     33  C   UNL     1      -6.676  -8.901  -1.371  0.00  0.00    +0.054 A 
ATOM     34  C   UNL     1      -7.354  -9.975  -1.970  0.00  0.00    +0.042 A 
ATOM     35  C   UNL     1      -6.598 -10.394  -3.008  0.00  0.00    +0.196 A 
ATOM     36  O   UNL     1      -5.499  -9.631  -3.076  0.00  0.00    -0.458 OA
ENDBRANCH  30  32
ENDBRANCH  21  24
ENDBRANCH  19  20
ENDBRANCH   1  19
TORSDOF 6
