REMARK  Name = ZINC04816039
REMARK  10 active torsions:
REMARK  status: ('A' for Active; 'I' for Inactive)
REMARK    1  A    between atoms: C_1  and  C_2
REMARK    2  A    between atoms: C_9  and  N_27
REMARK    3  A    between atoms: C_10  and  C_25
REMARK    4  A    between atoms: C_11  and  C_13
REMARK    5  A    between atoms: C_16  and  O_23
REMARK    6  A    between atoms: C_17  and  O_21
REMARK    7  A    between atoms: C_18  and  O_19
REMARK    8  A    between atoms: O_19  and  C_20
REMARK    9  A    between atoms: O_21  and  C_22
REMARK   10  A    between atoms: O_23  and  C_24
REMARK                            x       y       z     vdW  Elec       q    Type
REMARK                         _______ _______ _______ _____ _____    ______ ____
ROOT
ATOM      1  C   UNL     1      -0.530  -1.013  -6.095  0.00  0.00    +0.068 C 
ATOM      2  C   UNL     1      -1.297   0.082  -5.399  0.00  0.00    +0.068 A 
ATOM      3  C   UNL     1      -1.357   0.291  -4.028  0.00  0.00    +0.049 A 
ATOM      4  C   UNL     1      -2.153   1.379  -3.800  0.00  0.00    +0.222 A 
ATOM      5  N   UNL     1      -2.572   1.832  -4.992  0.00  0.00    -0.246 N 
ATOM      6  H   UNL     1      -3.151   2.596  -5.141  0.00  0.00    +0.192 HD
ATOM      7  N   UNL     1      -2.020   1.008  -5.984  0.00  0.00    -0.176 NA
ATOM      8  O   UNL     1      -2.417   1.844  -2.553  0.00  0.00    -0.423 OA
ATOM      9  C   UNL     1      -2.101   1.050  -1.510  0.00  0.00    +0.200 C 
ATOM     10  C   UNL     1      -1.315  -0.045  -1.609  0.00  0.00    +0.098 C 
ATOM     11  C   UNL     1      -0.701  -0.484  -2.915  0.00  0.00    +0.105 C 
ENDROOT
BRANCH  11  12
ATOM     12  C   UNL     1       0.780  -0.202  -2.903  0.00  0.00    +0.011 A 
ATOM     13  C   UNL     1       1.680  -1.244  -2.785  0.00  0.00    +0.012 A 
ATOM     14  C   UNL     1       3.039  -0.990  -2.773  0.00  0.00    +0.050 A 
ATOM     15  C   UNL     1       3.504   0.312  -2.881  0.00  0.00    +0.165 A 
ATOM     16  C   UNL     1       2.602   1.362  -3.001  0.00  0.00    +0.204 A 
ATOM     17  C   UNL     1       1.236   1.102  -3.017  0.00  0.00    +0.169 A 
BRANCH  17  18
ATOM     18  O   UNL     1       0.350   2.126  -3.139  0.00  0.00    -0.491 OA
ATOM     19  C   UNL     1       0.050   2.870  -1.956  0.00  0.00    +0.277 C 
ENDBRANCH  17  18
BRANCH  16  20
ATOM     20  O   UNL     1       3.054   2.641  -3.107  0.00  0.00    -0.488 OA
ATOM     21  C   UNL     1       3.302   3.135  -4.425  0.00  0.00    +0.277 C 
ENDBRANCH  16  20
BRANCH  15  22
ATOM     22  O   UNL     1       4.841   0.561  -2.869  0.00  0.00    -0.491 OA
ATOM     23  C   UNL     1       5.709  -0.567  -2.743  0.00  0.00    +0.277 C 
ENDBRANCH  15  22
ENDBRANCH  11  12
BRANCH   9  24
ATOM     24  N   UNL     1      -2.609   1.371  -0.276  0.00  0.00    -0.328 N 
ATOM     25  H   UNL     1      -3.177   2.151  -0.173  0.00  0.00    +0.145 HD
ATOM     26  H   UNL     1      -2.400   0.819   0.493  0.00  0.00    +0.145 HD
ENDBRANCH   9  24
BRANCH  10  27
ATOM     27  C   UNL     1      -1.053  -0.815  -0.430  0.00  0.00    +0.101 C 
ATOM     28  N   UNL     1      -0.846  -1.426   0.504  0.00  0.00    -0.191 NA
ENDBRANCH  10  27
TORSDOF 6
