REMARK  Name = ZINC63478706
REMARK  8 active torsions:
REMARK  status: ('A' for Active; 'I' for Inactive)
REMARK    1  A    between atoms: C_1  and  C_2
REMARK    2  A    between atoms: C_7  and  N_8
REMARK    3  A    between atoms: C_9  and  S_14
REMARK    4  A    between atoms: S_14  and  C_15
REMARK    5  A    between atoms: C_15  and  C_16
REMARK    6  A    between atoms: N_18  and  C_19
REMARK    7  A    between atoms: C_19  and  C_20
REMARK    8  A    between atoms: C_20  and  C_21
REMARK                            x       y       z     vdW  Elec       q    Type
REMARK                         _______ _______ _______ _____ _____    ______ ____
ROOT
ATOM      1  C   UNL     1       1.068  -3.432   5.318  0.00  0.00    +0.223 C 
ATOM      2  O   UNL     1       0.141  -4.213   5.355  0.00  0.00    -0.275 OA
ATOM      3  N   UNL     1       2.276  -3.796   5.793  0.00  0.00    -0.314 N 
ATOM      4  H   UNL     1       3.017  -3.171   5.764  0.00  0.00    +0.149 HD
ENDROOT
BRANCH   1   5
ATOM      5  C   UNL     1       0.869  -2.054   4.742  0.00  0.00    +0.168 C 
BRANCH   5   6
ATOM      6  S   UNL     1      -0.850  -1.870   4.192  0.00  0.00    -0.107 S 
BRANCH   6   8
ATOM      7  N   UNL     1       0.026  -0.017   2.415  0.00  0.00    -0.173 N 
ATOM      8  C   UNL     1      -0.922  -0.182   3.533  0.00  0.00    +0.260 C 
ATOM      9  N   UNL     1      -0.432   0.792   4.527  0.00  0.00    -0.218 N 
ATOM     10  N   UNL     1       0.685   1.403   3.945  0.00  0.00    -0.063 NA
ATOM     11  N   UNL     1       0.932   0.969   2.824  0.00  0.00    -0.056 NA
ATOM     12  H   UNL     1      -0.807   0.972   5.403  0.00  0.00    +0.173 HD
BRANCH   7  19
ATOM     13  C   UNL     1      -0.018   1.503   0.010  0.00  0.00    +0.046 C 
ATOM     14  C   UNL     1       0.002  -0.004   0.002  0.00  0.00    -0.027 A 
ATOM     15  C   UNL     1       0.006  -0.689  -1.198  0.00  0.00    +0.006 A 
ATOM     16  C   UNL     1       0.024  -2.071  -1.207  0.00  0.00    +0.020 A 
ATOM     17  C   UNL     1       0.040  -2.774  -0.014  0.00  0.00    +0.043 A 
ATOM     18  C   UNL     1       0.036  -2.096   1.189  0.00  0.00    +0.045 A 
ATOM     19  C   UNL     1       0.023  -0.706   1.201  0.00  0.00    +0.060 A 
ATOM     20 CL   UNL     1       0.062  -4.510  -0.031  0.00  0.00    -0.083 Cl
ENDBRANCH   7  19
ENDBRANCH   6   8
ENDBRANCH   5   6
ENDBRANCH   1   5
BRANCH   3  21
ATOM     21  C   UNL     1       2.469  -5.135   6.354  0.00  0.00    +0.108 C 
BRANCH  21  22
ATOM     22  C   UNL     1       3.919  -5.290   6.817  0.00  0.00    +0.052 C 
BRANCH  22  23
ATOM     23  C   UNL     1       4.117  -6.668   7.394  0.00  0.00    -0.040 C 
ATOM     24  C   UNL     1       4.592  -7.758   6.750  0.00  0.00    +0.000 A 
ATOM     25  C   UNL     1       5.047  -7.979   5.372  0.00  0.00    +0.030 A 
ATOM     26  C   UNL     1       5.476  -9.211   5.013  0.00  0.00    +0.042 A 
ATOM     27  C   UNL     1       5.497 -10.280   5.922  0.00  0.00    +0.022 A 
ATOM     28  C   UNL     1       5.094 -10.153   7.204  0.00  0.00    +0.027 A 
ATOM     29  C   UNL     1       4.624  -8.902   7.690  0.00  0.00    +0.043 A 
ATOM     30  N   UNL     1       4.186  -8.533   8.869  0.00  0.00    -0.380 N 
ATOM     31  C   UNL     1       3.833  -7.110   8.812  0.00  0.00    +0.144 C 
ATOM     32 CL   UNL     1       6.015  -9.477   3.384  0.00  0.00    -0.084 Cl
ATOM     33  H   UNL     1       4.112  -9.104   9.650  0.00  0.00    +0.160 HD
ENDBRANCH  22  23
ENDBRANCH  21  22
ENDBRANCH   3  21
TORSDOF 7
