REMARK  Name = ZINC13655116
REMARK  15 active torsions:
REMARK  status: ('A' for Active; 'I' for Inactive)
REMARK    1  A    between atoms: C_1  and  C_2
REMARK    2  A    between atoms: C_2  and  C_3
REMARK    3  A    between atoms: C_2  and  C_4
REMARK    4  A    between atoms: C_4  and  N_5
REMARK    5  A    between atoms: N_5  and  C_6
REMARK    6  A    between atoms: N_5  and  C_29
REMARK    7  A    between atoms: C_6  and  C_7
REMARK    8  A    between atoms: C_8  and  O_28
REMARK    9  A    between atoms: C_15  and  C_16
REMARK   10  A    between atoms: C_17  and  C_18
REMARK   11  A    between atoms: C_23  and  O_24
REMARK   12  A    between atoms: O_24  and  C_25
REMARK   13  A    between atoms: C_29  and  C_30
REMARK   14  A    between atoms: C_30  and  C_31
REMARK   15  A    between atoms: C_30  and  C_32
REMARK                            x       y       z     vdW  Elec       q    Type
REMARK                         _______ _______ _______ _____ _____    ______ ____
ROOT
ATOM      1  C   UNL     1       0.049  -0.234  -2.229  0.00  0.00    +0.020 A 
ATOM      2  C   UNL     1       0.455   0.890  -2.931  0.00  0.00    +0.122 A 
ATOM      3  C   UNL     1       1.785   1.302  -2.897  0.00  0.00    +0.046 A 
ATOM      4  C   UNL     1       2.705   0.600  -2.170  0.00  0.00    +0.019 A 
ATOM      5  C   UNL     1       2.310  -0.532  -1.459  0.00  0.00    +0.068 A 
ATOM      6  C   UNL     1       0.970  -0.954  -1.481  0.00  0.00    +0.144 A 
ATOM      7  O   UNL     1       0.849  -2.060  -0.715  0.00  0.00    -0.451 OA
ATOM      8  C   UNL     1       2.033  -2.413  -0.166  0.00  0.00    +0.176 C 
ATOM      9  C   UNL     1       2.244  -3.483   0.657  0.00  0.00    +0.050 C 
ATOM     10  C   UNL     1       3.025  -1.491  -0.599  0.00  0.00    +0.231 C 
ATOM     11  O   UNL     1       4.210  -1.487  -0.311  0.00  0.00    -0.283 OA
ENDROOT
BRANCH   9  12
ATOM     12  C   UNL     1       1.173  -4.328   1.000  0.00  0.00    +0.004 C 
ATOM     13  C   UNL     1       1.382  -5.390   1.817  0.00  0.00    +0.011 C 
BRANCH  13  14
ATOM     14  C   UNL     1       0.264  -6.272   2.175  0.00  0.00    +0.017 A 
ATOM     15  C   UNL     1      -1.018  -6.024   1.671  0.00  0.00    +0.011 A 
ATOM     16  C   UNL     1      -2.062  -6.856   2.011  0.00  0.00    +0.001 A 
ATOM     17  C   UNL     1      -1.849  -7.938   2.851  0.00  0.00    +0.004 A 
ATOM     18  C   UNL     1      -0.589  -8.195   3.356  0.00  0.00    +0.046 A 
ATOM     19  C   UNL     1       0.475  -7.373   3.021  0.00  0.00    +0.127 A 
BRANCH  19  20
ATOM     20  O   UNL     1       1.714  -7.629   3.512  0.00  0.00    -0.495 OA
ATOM     21  C   UNL     1       1.853  -8.766   4.366  0.00  0.00    +0.277 C 
ENDBRANCH  19  20
ENDBRANCH  13  14
ENDBRANCH   9  12
BRANCH   2  22
ATOM     22  O   UNL     1      -0.450   1.595  -3.656  0.00  0.00    -0.506 OA
ATOM     23  H   UNL     1      -0.886   2.302  -3.161  0.00  0.00    +0.292 HD
ENDBRANCH   2  22
BRANCH   1  24
ATOM     24  C   UNL     1      -1.393  -0.670  -2.274  0.00  0.00    -0.036 C 
BRANCH  24  25
ATOM     25  N   UNL     1      -2.098  -0.154  -1.093  0.00  0.00    +0.383 N 
ATOM     26  H   UNL     1      -1.615  -0.451  -0.257  0.00  0.00    -0.081 HD
BRANCH  25  27
ATOM     27  C   UNL     1      -3.471  -0.674  -1.076  0.00  0.00    -0.075 C 
BRANCH  27  29
ATOM     28  C   UNL     1      -2.874  -2.508   0.512  0.00  0.00    +0.005 C 
ATOM     29  C   UNL     1      -3.440  -2.191  -0.873  0.00  0.00    -0.034 C 
ATOM     30  C   UNL     1      -4.860  -2.749  -0.984  0.00  0.00    +0.005 C 
ENDBRANCH  27  29
ENDBRANCH  25  27
BRANCH  25  31
ATOM     31  C   UNL     1      -2.130   1.313  -1.145  0.00  0.00    -0.075 C 
BRANCH  31  32
ATOM     32  C   UNL     1      -2.752   1.856   0.144  0.00  0.00    -0.034 C 
ATOM     33  C   UNL     1      -1.849   1.513   1.330  0.00  0.00    +0.005 C 
ATOM     34  C   UNL     1      -2.901   3.375   0.038  0.00  0.00    +0.005 C 
ENDBRANCH  31  32
ENDBRANCH  25  31
ENDBRANCH  24  25
ENDBRANCH   1  24
TORSDOF 10
