REMARK  Name = ZINC09670499
REMARK  9 active torsions:
REMARK  status: ('A' for Active; 'I' for Inactive)
REMARK    1  A    between atoms: C_1  and  C_2
REMARK    2  A    between atoms: C_3  and  C_33
REMARK    3  A    between atoms: N_4  and  C_27
REMARK    4  A    between atoms: C_5  and  N_9
REMARK    5  A    between atoms: C_6  and  C_7
REMARK    6  A    between atoms: C_10  and  C_12
REMARK    7  A    between atoms: C_12  and  N_61
REMARK    8  A    between atoms: C_15  and  C_18
REMARK    9  A    between atoms: C_27  and  C_28
REMARK                            x       y       z     vdW  Elec       q    Type
REMARK                         _______ _______ _______ _____ _____    ______ ____
ROOT
ATOM      1  N   UNL     1       4.810   8.838  -1.085  0.00  0.00    -0.272 N 
ATOM      2  C   UNL     1       4.653   7.561  -0.680  0.00  0.00    +0.202 C 
ATOM      3  O   UNL     1       5.282   6.674  -1.216  0.00  0.00    -0.278 OA
ATOM      4  H   UNL     1       4.326   9.550  -0.639  0.00  0.00    +0.156 HD
ENDROOT
BRANCH   1   9
ATOM      5  C   UNL     1       7.300   8.711  -5.481  0.00  0.00    +0.047 C 
ATOM      6  C   UNL     1       6.805   9.104  -4.112  0.00  0.00    -0.011 A 
ATOM      7  C   UNL     1       7.211  10.157  -3.385  0.00  0.00    +0.022 A 
ATOM      8  N   UNL     1       6.524  10.180  -2.200  0.00  0.00    -0.324 N 
ATOM      9  C   UNL     1       5.664   9.131  -2.138  0.00  0.00    +0.124 A 
ATOM     10  C   UNL     1       5.785   8.409  -3.316  0.00  0.00    +0.095 A 
ATOM     11  C   UNL     1       8.254  11.159  -3.808  0.00  0.00    +0.064 C 
BRANCH  10  12
ATOM     12  C   UNL     1       5.064   7.227  -3.681  0.00  0.00    +0.103 C 
ATOM     13  N   UNL     1       4.492   6.289  -3.971  0.00  0.00    -0.191 NA
ENDBRANCH  10  12
BRANCH   8  14
ATOM     14  C   UNL     1       6.695  11.188  -1.151  0.00  0.00    +0.197 C 
BRANCH  14  15
ATOM     15  C   UNL     1       7.823  10.778  -0.239  0.00  0.00    +0.124 A 
ATOM     16  C   UNL     1       9.101  11.187  -0.335  0.00  0.00    +0.046 A 
ATOM     17  C   UNL     1       9.810  10.562   0.716  0.00  0.00    +0.041 A 
ATOM     18  C   UNL     1       8.925   9.803   1.387  0.00  0.00    +0.195 A 
ATOM     19  O   UNL     1       7.723   9.938   0.804  0.00  0.00    -0.466 OA
ENDBRANCH  14  15
ENDBRANCH   8  14
ENDBRANCH   1   9
BRANCH   2  20
ATOM     20  C   UNL     1       3.695   7.237   0.437  0.00  0.00    +0.019 C 
BRANCH  20  26
ATOM     21  C   UNL     1       3.153   5.512   2.046  0.00  0.00    -0.078 C 
ATOM     22  C   UNL     1       3.377   4.040   2.399  0.00  0.00    -0.009 C 
ATOM     23  C   UNL     1       2.757   3.158   1.311  0.00  0.00    +0.041 C 
ATOM     24  C   UNL     1       3.380   3.515  -0.042  0.00  0.00    -0.009 C 
ATOM     25  C   UNL     1       3.157   5.003  -0.324  0.00  0.00    -0.078 C 
ATOM     26  N   UNL     1       3.798   5.796   0.746  0.00  0.00    +0.385 N 
ATOM     27  H   UNL     1       4.790   5.538   0.803  0.00  0.00    -0.081 HD
BRANCH  23  28
ATOM     28  C   UNL     1       3.026   1.709   1.623  0.00  0.00    +0.082 A 
ATOM     29  N   UNL     1       2.164   0.752   1.827  0.00  0.00    -0.244 NA
ATOM     30  C   UNL     1       2.539  -0.515   2.100  0.00  0.00    +0.078 A 
ATOM     31  C   UNL     1       1.734  -1.649   2.342  0.00  0.00    +0.029 A 
ATOM     32  C   UNL     1       2.298  -2.859   2.603  0.00  0.00    +0.002 A 
ATOM     33  C   UNL     1       3.675  -3.027   2.640  0.00  0.00    +0.001 A 
ATOM     34  C   UNL     1       4.498  -1.942   2.408  0.00  0.00    +0.017 A 
ATOM     35  C   UNL     1       3.938  -0.716   2.144  0.00  0.00    +0.039 A 
ATOM     36  S   UNL     1       4.558   0.911   1.796  0.00  0.00    -0.072 S 
ENDBRANCH  23  28
ENDBRANCH  20  26
ENDBRANCH   2  20
TORSDOF 7
