REMARK  Name = ZINC40352462
REMARK  8 active torsions:
REMARK  status: ('A' for Active; 'I' for Inactive)
REMARK    1  A    between atoms: C_1  and  C_2
REMARK    2  A    between atoms: C_5  and  O_9
REMARK    3  A    between atoms: C_6  and  N_8
REMARK    4  A    between atoms: O_9  and  C_10
REMARK    5  A    between atoms: C_10  and  C_11
REMARK    6  A    between atoms: C_11  and  C_13
REMARK    7  A    between atoms: C_11  and  O_25
REMARK    8  A    between atoms: C_16  and  C_19
REMARK                            x       y       z     vdW  Elec       q    Type
REMARK                         _______ _______ _______ _____ _____    ______ ____
ROOT
ATOM      1  C   UNL     1       0.083  -6.290  -1.126  0.00  0.00    +0.182 C 
ENDROOT
BRANCH   1   2
ATOM      2  C   UNL     1      -0.039  -6.963  -2.469  0.00  0.00    -0.016 A 
ATOM      3  C   UNL     1       1.089  -7.180  -3.238  0.00  0.00    +0.006 A 
ATOM      4  C   UNL     1       0.978  -7.798  -4.470  0.00  0.00    +0.004 A 
ATOM      5  C   UNL     1      -0.262  -8.199  -4.932  0.00  0.00    -0.044 A 
ATOM      6  C   UNL     1      -1.389  -7.982  -4.163  0.00  0.00    +0.004 A 
ATOM      7  C   UNL     1      -1.278  -7.369  -2.929  0.00  0.00    +0.006 A 
BRANCH   5   8
ATOM      8  C   UNL     1      -0.383  -8.871  -6.276  0.00  0.00    +0.019 C 
ATOM      9  C   UNL     1      -1.295  -8.040  -7.181  0.00  0.00    +0.008 C 
ATOM     10  C   UNL     1      -1.418  -8.723  -8.545  0.00  0.00    +0.001 C 
ATOM     11  C   UNL     1      -2.015 -10.120  -8.364  0.00  0.00    +0.000 C 
ATOM     12  C   UNL     1      -1.103 -10.950  -7.458  0.00  0.00    +0.001 C 
ATOM     13  C   UNL     1      -0.980 -10.268  -6.094  0.00  0.00    +0.008 C 
ENDBRANCH   5   8
ENDBRANCH   1   2
BRANCH   1  14
ATOM     14  O   UNL     1       1.312  -6.677  -0.509  0.00  0.00    -0.384 OA
ATOM     15  H   UNL     1       2.099  -6.441  -1.019  0.00  0.00    +0.210 HD
ENDBRANCH   1  14
BRANCH   1  16
ATOM     16  C   UNL     1       0.061  -4.772  -1.313  0.00  0.00    +0.265 C 
BRANCH  16  17
ATOM     17  O   UNL     1       0.059  -4.134  -0.034  0.00  0.00    -0.487 OA
BRANCH  17  22
ATOM     18  C   UNL     1      -0.018   1.503   0.010  0.00  0.00    +0.044 C 
ATOM     19  C   UNL     1       0.002  -0.004   0.002  0.00  0.00    -0.048 A 
ATOM     20  C   UNL     1       0.006  -0.687  -1.200  0.00  0.00    +0.007 A 
ATOM     21  C   UNL     1       0.025  -2.070  -1.214  0.00  0.00    +0.048 A 
ATOM     22  C   UNL     1       0.041  -2.775  -0.022  0.00  0.00    +0.141 A 
ATOM     23  C   UNL     1       0.037  -2.087   1.190  0.00  0.00    +0.067 A 
ATOM     24  C   UNL     1       0.023  -0.700   1.196  0.00  0.00    +0.029 A 
BRANCH  23  25
ATOM     25  N   UNL     1       0.052  -2.794   2.398  0.00  0.00    -0.355 N 
ATOM     26  H   UNL     1       0.065  -3.764   2.392  0.00  0.00    +0.142 HD
ATOM     27  H   UNL     1       0.050  -2.314   3.241  0.00  0.00    +0.142 HD
ENDBRANCH  23  25
ENDBRANCH  17  22
ENDBRANCH  16  17
ENDBRANCH   1  16
TORSDOF 7
