REMARK  Name = ZINC02840968
REMARK  7 active torsions:
REMARK  status: ('A' for Active; 'I' for Inactive)
REMARK    1  A    between atoms: C_4  and  C_7
REMARK    2  A    between atoms: C_12  and  C_20
REMARK    3  A    between atoms: C_14  and  C_18
REMARK    4  A    between atoms: C_15  and  N_17
REMARK    5  A    between atoms: C_24  and  O_26
REMARK    6  A    between atoms: O_26  and  C_27
REMARK    7  A    between atoms: C_27  and  C_28
REMARK                            x       y       z     vdW  Elec       q    Type
REMARK                         _______ _______ _______ _____ _____    ______ ____
ROOT
ATOM      1  C   UNL     1      -1.684   1.944   3.865  0.00  0.00    +0.034 C 
ATOM      2  C   UNL     1      -0.993   3.118   3.168  0.00  0.00    +0.083 C 
ATOM      3  C   UNL     1      -0.266   2.623   1.939  0.00  0.00    +0.115 C 
ATOM      4  C   UNL     1      -0.733   1.570   1.243  0.00  0.00    +0.046 C 
ATOM      5  C   UNL     1      -0.013   1.086   0.008  0.00  0.00    +0.101 C 
ATOM      6  C   UNL     1       1.399   1.604  -0.003  0.00  0.00    +0.098 C 
ATOM      7  C   UNL     1       1.747   2.658   0.774  0.00  0.00    +0.198 C 
ATOM      8  O   UNL     1       0.852   3.271   1.564  0.00  0.00    -0.445 OA
ATOM      9  C   UNL     1      -1.898   0.888   1.642  0.00  0.00    +0.164 C 
ATOM     10  O   UNL     1      -2.297  -0.049   0.979  0.00  0.00    -0.292 OA
ATOM     11  C   UNL     1      -2.658   1.297   2.874  0.00  0.00    +0.088 C 
ENDROOT
BRANCH   1  15
ATOM     12  C   UNL     1      -3.832   3.361   7.274  0.00  0.00    +0.000 A 
ATOM     13  C   UNL     1      -2.825   2.428   7.431  0.00  0.00    +0.000 A 
ATOM     14  C   UNL     1      -2.129   1.970   6.328  0.00  0.00    +0.004 A 
ATOM     15  C   UNL     1      -2.442   2.444   5.067  0.00  0.00    -0.043 A 
ATOM     16  C   UNL     1      -3.446   3.381   4.911  0.00  0.00    +0.004 A 
ATOM     17  C   UNL     1      -4.145   3.836   6.013  0.00  0.00    +0.000 A 
ENDBRANCH   1  15
BRANCH   5  18
ATOM     18  C   UNL     1      -0.737   1.583  -1.217  0.00  0.00    -0.031 A 
ATOM     19  C   UNL     1      -0.884   2.941  -1.429  0.00  0.00    +0.005 A 
ATOM     20  C   UNL     1      -1.546   3.400  -2.552  0.00  0.00    +0.004 A 
ATOM     21  C   UNL     1      -2.065   2.502  -3.465  0.00  0.00    +0.045 A 
ATOM     22  C   UNL     1      -1.919   1.139  -3.254  0.00  0.00    +0.121 A 
ATOM     23  C   UNL     1      -1.248   0.681  -2.129  0.00  0.00    +0.050 A 
BRANCH  22  24
ATOM     24  O   UNL     1      -2.428   0.253  -4.151  0.00  0.00    -0.487 OA
BRANCH  24  25
ATOM     25  C   UNL     1      -3.101   0.796  -5.288  0.00  0.00    +0.268 C 
BRANCH  25  26
ATOM     26  C   UNL     1      -3.594  -0.327  -6.164  0.00  0.00    +0.043 A 
ATOM     27  C   UNL     1      -4.855  -0.860  -5.963  0.00  0.00    +0.131 A 
ATOM     28  C   UNL     1      -5.306  -1.892  -6.768  0.00  0.00    +0.039 A 
ATOM     29  C   UNL     1      -4.498  -2.389  -7.772  0.00  0.00    +0.004 A 
ATOM     30  C   UNL     1      -3.238  -1.857  -7.973  0.00  0.00    +0.020 A 
ATOM     31  C   UNL     1      -2.788  -0.822  -7.173  0.00  0.00    +0.050 A 
ATOM     32 CL   UNL     1      -1.208  -0.149  -7.432  0.00  0.00    -0.083 Cl
ATOM     33  F   UNL     1      -5.645  -0.374  -4.980  0.00  0.00    -0.205 F 
ENDBRANCH  25  26
ENDBRANCH  24  25
ENDBRANCH  22  24
ENDBRANCH   5  18
BRANCH   7  34
ATOM     34  N   UNL     1       3.044   3.110   0.751  0.00  0.00    -0.328 N 
ATOM     35  H   UNL     1       3.699   2.674   0.183  0.00  0.00    +0.145 HD
ATOM     36  H   UNL     1       3.304   3.864   1.303  0.00  0.00    +0.145 HD
ENDBRANCH   7  34
BRANCH   6  37
ATOM     37  C   UNL     1       2.380   0.979  -0.838  0.00  0.00    +0.101 C 
ATOM     38  N   UNL     1       3.159   0.483  -1.500  0.00  0.00    -0.191 NA
ENDBRANCH   6  37
TORSDOF 7
