REMARK  Name = ZINC09835481
REMARK  9 active torsions:
REMARK  status: ('A' for Active; 'I' for Inactive)
REMARK    1  A    between atoms: C_1  and  C_2
REMARK    2  A    between atoms: C_7  and  N_8
REMARK    3  A    between atoms: C_9  and  C_23
REMARK    4  A    between atoms: C_11  and  O_15
REMARK    5  A    between atoms: O_15  and  C_16
REMARK    6  A    between atoms: C_23  and  N_54
REMARK    7  A    between atoms: C_24  and  C_25
REMARK    8  A    between atoms: C_24  and  N_54
REMARK    9  A    between atoms: C_25  and  C_26
REMARK                            x       y       z     vdW  Elec       q    Type
REMARK                         _______ _______ _______ _____ _____    ______ ____
ROOT
ATOM      1  N   UNL     1       4.999   4.806   0.372  0.00  0.00    -0.263 N 
ATOM      2  C   UNL     1       4.619   4.167  -0.901  0.00  0.00    +0.114 C 
ATOM      3  C   UNL     1       3.457   3.527  -0.123  0.00  0.00    +0.278 C 
ATOM      4  C   UNL     1       3.983   4.260   1.094  0.00  0.00    +0.263 C 
ATOM      5  O   UNL     1       3.635   4.332   2.254  0.00  0.00    -0.271 OA
ENDROOT
BRANCH   1  12
ATOM      6  C   UNL     1       7.450   3.672   1.268  0.00  0.00    +0.045 C 
ATOM      7  C   UNL     1       7.255   5.162   1.159  0.00  0.00    -0.029 A 
ATOM      8  C   UNL     1       8.284   6.021   1.492  0.00  0.00    +0.005 A 
ATOM      9  C   UNL     1       8.103   7.389   1.398  0.00  0.00    +0.000 A 
ATOM     10  C   UNL     1       6.894   7.901   0.963  0.00  0.00    +0.002 A 
ATOM     11  C   UNL     1       5.864   7.048   0.622  0.00  0.00    +0.024 A 
ATOM     12  C   UNL     1       6.042   5.673   0.716  0.00  0.00    +0.040 A 
ENDBRANCH   1  12
BRANCH   3  13
ATOM     13  O   UNL     1       3.549   2.105  -0.021  0.00  0.00    -0.478 OA
BRANCH  13  14
ATOM     14  C   UNL     1       2.391   1.426   0.195  0.00  0.00    +0.122 A 
ATOM     15  C   UNL     1       2.388   0.039   0.187  0.00  0.00    +0.047 A 
ATOM     16  C   UNL     1       1.210  -0.650   0.406  0.00  0.00    +0.023 A 
ATOM     17  C   UNL     1       0.035   0.044   0.634  0.00  0.00    +0.041 A 
ATOM     18  C   UNL     1       0.036   1.427   0.643  0.00  0.00    +0.023 A 
ATOM     19  C   UNL     1       1.211   2.119   0.424  0.00  0.00    +0.047 A 
ATOM     20 CL   UNL     1      -1.444  -0.824   0.909  0.00  0.00    -0.084 Cl
ENDBRANCH  13  14
ENDBRANCH   3  13
BRANCH   2  21
ATOM     21  C   UNL     1       5.645   3.155  -1.415  0.00  0.00    -0.055 C 
BRANCH  21  22
ATOM     22  N   UNL     1       6.769   3.881  -2.036  0.00  0.00    +0.381 N 
ATOM     23  H   UNL     1       7.204   4.494  -1.337  0.00  0.00    -0.086 HD
ATOM     24  H   UNL     1       6.417   4.447  -2.816  0.00  0.00    -0.086 HD
BRANCH  22  25
ATOM     25  C   UNL     1       7.776   2.929  -2.541  0.00  0.00    -0.078 C 
BRANCH  25  26
ATOM     26  C   UNL     1       8.928   3.709  -3.179  0.00  0.00    +0.016 C 
BRANCH  26  27
ATOM     27  C   UNL     1       9.962   2.743  -3.698  0.00  0.00    -0.049 A 
ATOM     28  C   UNL     1      11.001   2.338  -2.882  0.00  0.00    +0.005 A 
ATOM     29  C   UNL     1      11.947   1.448  -3.355  0.00  0.00    +0.020 A 
ATOM     30  C   UNL     1      11.859   0.971  -4.651  0.00  0.00    +0.041 A 
ATOM     31  C   UNL     1      10.821   1.381  -5.470  0.00  0.00    +0.020 A 
ATOM     32  C   UNL     1       9.873   2.267  -4.993  0.00  0.00    +0.005 A 
ATOM     33 CL   UNL     1      13.049  -0.142  -5.249  0.00  0.00    -0.084 Cl
ENDBRANCH  26  27
ENDBRANCH  25  26
ENDBRANCH  22  25
ENDBRANCH  21  22
ENDBRANCH   2  21
TORSDOF 8
