REMARK  Name = ZINC12051497
REMARK  8 active torsions:
REMARK  status: ('A' for Active; 'I' for Inactive)
REMARK    1  A    between atoms: C_4  and  C_7
REMARK    2  A    between atoms: C_7  and  C_8
REMARK    3  A    between atoms: C_8  and  C_21
REMARK    4  A    between atoms: N_11  and  C_15
REMARK    5  A    between atoms: C_15  and  C_16
REMARK    6  A    between atoms: C_16  and  N_69
REMARK    7  A    between atoms: C_27  and  C_29
REMARK    8  A    between atoms: C_29  and  C_30
REMARK                            x       y       z     vdW  Elec       q    Type
REMARK                         _______ _______ _______ _____ _____    ______ ____
ROOT
ATOM      1  C   UNL     1       1.221  -2.689  -1.465  0.00  0.00    +0.119 C 
ATOM      2  C   UNL     1       0.045  -2.109  -2.226  0.00  0.00    +0.247 C 
ATOM      3  O   UNL     1      -1.132  -2.264  -1.982  0.00  0.00    -0.273 OA
ATOM      4  N   UNL     1       0.581  -1.387  -3.230  0.00  0.00    -0.226 N 
ATOM      5  C   UNL     1       1.918  -1.430  -3.210  0.00  0.00    +0.309 C 
ATOM      6  O   UNL     1       2.624  -0.856  -4.015  0.00  0.00    -0.252 OA
ATOM      7  N   UNL     1       2.393  -2.178  -2.198  0.00  0.00    -0.284 N 
ATOM      8  H   UNL     1       3.325  -2.349  -1.991  0.00  0.00    +0.151 HD
ENDROOT
BRANCH   1   9
ATOM      9  C   UNL     1       1.189  -4.218  -1.501  0.00  0.00    +0.025 C 
ATOM     10  C   UNL     1       2.425  -4.771  -0.788  0.00  0.00    +0.025 C 
ATOM     11  C   UNL     1       2.371  -6.302  -0.795  0.00  0.00    +0.108 C 
ATOM     12  N   UNL     1       2.217  -6.763  -2.182  0.00  0.00    -0.301 N 
ATOM     13  C   UNL     1       1.113  -6.224  -2.987  0.00  0.00    +0.108 C 
ATOM     14  C   UNL     1       1.181  -4.694  -2.955  0.00  0.00    +0.025 C 
ATOM     15  C   UNL     1       3.073  -7.664  -2.704  0.00  0.00    +0.220 C 
ATOM     16  O   UNL     1       2.935  -8.037  -3.850  0.00  0.00    -0.275 OA
BRANCH  15  17
ATOM     17  C   UNL     1       4.200  -8.208  -1.865  0.00  0.00    +0.138 C 
BRANCH  17  18
ATOM     18  C   UNL     1       5.004  -9.190  -2.679  0.00  0.00    -0.001 A 
ATOM     19  C   UNL     1       6.081  -8.963  -3.469  0.00  0.00    +0.011 A 
ATOM     20  C   UNL     1       6.665 -10.029  -4.128  0.00  0.00    +0.008 A 
ATOM     21  C   UNL     1       6.143 -11.269  -3.964  0.00  0.00    +0.045 A 
ATOM     22  S   UNL     1       4.788 -10.954  -2.845  0.00  0.00    -0.101 S 
ENDBRANCH  17  18
ENDBRANCH  15  17
ENDBRANCH   1   9
BRANCH   1  23
ATOM     23  C   UNL     1       1.229  -2.186  -0.021  0.00  0.00    +0.070 C 
BRANCH  23  27
ATOM     24  C   UNL     1       1.171   2.086   0.002  0.00  0.00    +0.000 A 
ATOM     25  C   UNL     1      -0.017   1.378   0.010  0.00  0.00    +0.000 A 
ATOM     26  C   UNL     1       0.002  -0.004   0.002  0.00  0.00    +0.004 A 
ATOM     27  C   UNL     1       1.208  -0.679  -0.013  0.00  0.00    -0.045 A 
ATOM     28  C   UNL     1       2.396   0.029  -0.021  0.00  0.00    +0.004 A 
ATOM     29  C   UNL     1       2.377   1.411  -0.015  0.00  0.00    +0.000 A 
ENDBRANCH  23  27
ENDBRANCH   1  23
BRANCH   4  30
ATOM     30  C   UNL     1      -0.204  -0.648  -4.222  0.00  0.00    +0.099 C 
BRANCH  30  31
ATOM     31  C   UNL     1      -0.501  -1.556  -5.417  0.00  0.00    -0.059 C 
BRANCH  31  36
ATOM     32  C   UNL     1      -0.629   0.470  -6.761  0.00  0.00    -0.079 C 
ATOM     33  C   UNL     1      -1.264   0.833  -8.127  0.00  0.00    -0.020 C 
ATOM     34  C   UNL     1      -1.401  -0.542  -8.821  0.00  0.00    -0.020 C 
ATOM     35  C   UNL     1      -1.392  -1.572  -7.677  0.00  0.00    -0.079 C 
ATOM     36  N   UNL     1      -1.292  -0.803  -6.436  0.00  0.00    +0.381 N 
ATOM     37  H   UNL     1      -2.232  -0.620  -6.065  0.00  0.00    -0.082 HD
ENDBRANCH  31  36
ENDBRANCH  30  31
ENDBRANCH   4  30
TORSDOF 8
