REMARK  Name = ZINC04801108
REMARK  9 active torsions:
REMARK  status: ('A' for Active; 'I' for Inactive)
REMARK    1  A    between atoms: C_1  and  C_2
REMARK    2  A    between atoms: C_6  and  N_8
REMARK    3  A    between atoms: N_11  and  C_16
REMARK    4  A    between atoms: C_13  and  C_15
REMARK    5  A    between atoms: C_16  and  C_17
REMARK    6  A    between atoms: C_22  and  N_36
REMARK    7  A    between atoms: N_27  and  C_28
REMARK    8  A    between atoms: C_32  and  O_34
REMARK    9  A    between atoms: O_34  and  C_35
REMARK                            x       y       z     vdW  Elec       q    Type
REMARK                         _______ _______ _______ _____ _____    ______ ____
ROOT
ATOM      1  C   UNL     1       1.112  -5.171   7.285  0.00  0.00    +0.101 A 
ATOM      2  N   UNL     1       0.243  -4.239   7.533  0.00  0.00    -0.235 NA
ATOM      3  C   UNL     1       0.476  -3.278   8.461  0.00  0.00    +0.078 A 
ATOM      4  C   UNL     1      -0.458  -2.275   8.729  0.00  0.00    +0.031 A 
ATOM      5  C   UNL     1      -0.180  -1.320   9.680  0.00  0.00    +0.035 A 
ATOM      6  C   UNL     1       1.020  -1.339  10.379  0.00  0.00    +0.127 A 
ATOM      7  C   UNL     1       1.958  -2.318  10.133  0.00  0.00    +0.048 A 
ATOM      8  C   UNL     1       1.696  -3.295   9.174  0.00  0.00    +0.067 A 
ATOM      9  C   UNL     1       2.658  -4.364   8.870  0.00  0.00    +0.266 A 
ATOM     10  O   UNL     1       3.727  -4.435   9.448  0.00  0.00    -0.267 OA
ATOM     11  N   UNL     1       2.308  -5.268   7.926  0.00  0.00    -0.266 N 
ENDROOT
BRANCH  11  12
ATOM     12  C   UNL     1       3.187  -6.310   7.603  0.00  0.00    +0.055 A 
ATOM     13  C   UNL     1       4.127  -6.138   6.594  0.00  0.00    +0.026 A 
ATOM     14  C   UNL     1       4.993  -7.165   6.275  0.00  0.00    +0.006 A 
ATOM     15  C   UNL     1       4.928  -8.365   6.958  0.00  0.00    +0.046 A 
ATOM     16  C   UNL     1       3.991  -8.542   7.966  0.00  0.00    +0.122 A 
ATOM     17  C   UNL     1       3.123  -7.512   8.293  0.00  0.00    +0.072 A 
BRANCH  16  18
ATOM     18  O   UNL     1       3.928  -9.722   8.637  0.00  0.00    -0.495 OA
ATOM     19  C   UNL     1       4.856 -10.738   8.251  0.00  0.00    +0.277 C 
ENDBRANCH  16  18
ENDBRANCH  11  12
BRANCH   6  20
ATOM     20  N   UNL     1       1.294  -0.300  11.396  0.00  0.00    +0.056 N 
ATOM     21  O   UNL     1       0.474   0.562  11.616  0.00  0.00    -0.126 OA
ATOM     22  O   UNL     1       2.337  -0.312  12.007  0.00  0.00    -0.126 OA
ENDBRANCH   6  20
BRANCH   1  23
ATOM     23  C   UNL     1       0.775  -6.203   6.239  0.00  0.00    -0.003 C 
BRANCH  23  27
ATOM     24  N   UNL     1      -2.179  -5.241   3.436  0.00  0.00    -0.331 N 
ATOM     25  C   UNL     1      -1.640  -4.136   4.245  0.00  0.00    +0.087 C 
ATOM     26  C   UNL     1      -0.299  -4.579   4.840  0.00  0.00    -0.059 C 
ATOM     27  N   UNL     1      -0.484  -5.836   5.577  0.00  0.00    +0.387 N 
ATOM     28  C   UNL     1      -0.877  -6.906   4.651  0.00  0.00    -0.056 C 
ATOM     29  C   UNL     1      -2.252  -6.577   4.048  0.00  0.00    +0.054 C 
ATOM     30  C   UNL     1      -2.607  -7.613   2.980  0.00  0.00    +0.026 C 
ATOM     31  H   UNL     1      -1.204  -5.714   6.273  0.00  0.00    -0.081 HD
BRANCH  24  37
ATOM     32  C   UNL     1      -1.161  -4.924  -1.361  0.00  0.00    +0.044 C 
ATOM     33  C   UNL     1      -2.142  -4.867  -0.220  0.00  0.00    -0.049 A 
ATOM     34  C   UNL     1      -3.477  -4.601  -0.468  0.00  0.00    +0.003 A 
ATOM     35  C   UNL     1      -4.380  -4.548   0.577  0.00  0.00    +0.002 A 
ATOM     36  C   UNL     1      -3.953  -4.759   1.873  0.00  0.00    +0.023 A 
ATOM     37  C   UNL     1      -2.614  -5.027   2.126  0.00  0.00    +0.030 A 
ATOM     38  C   UNL     1      -1.710  -5.085   1.073  0.00  0.00    +0.026 A 
ENDBRANCH  24  37
ENDBRANCH  23  27
ENDBRANCH   1  23
TORSDOF 6
