REMARK  Name = ZINC49192936
REMARK  11 active torsions:
REMARK  status: ('A' for Active; 'I' for Inactive)
REMARK    1  A    between atoms: C_1  and  C_2
REMARK    2  A    between atoms: C_2  and  C_3
REMARK    3  A    between atoms: C_2  and  C_4
REMARK    4  A    between atoms: C_4  and  C_6
REMARK    5  A    between atoms: C_4  and  N_10
REMARK    6  A    between atoms: C_6  and  N_7
REMARK    7  A    between atoms: N_7  and  C_8
REMARK    8  A    between atoms: N_7  and  C_9
REMARK    9  A    between atoms: N_10  and  S_11
REMARK   10  A    between atoms: S_11  and  C_14
REMARK   11  A    between atoms: C_17  and  N_21
REMARK                            x       y       z     vdW  Elec       q    Type
REMARK                         _______ _______ _______ _____ _____    ______ ____
ROOT
ATOM      1  S   UNL     1      -1.912  -1.412  -2.732  0.00  0.00    +0.060 S 
ATOM      2  O   UNL     1      -2.659  -2.541  -2.301  0.00  0.00    -0.153 OA
ATOM      3  O   UNL     1      -2.234  -0.693  -3.915  0.00  0.00    -0.153 OA
ENDROOT
BRANCH   1   4
ATOM      4  C   UNL     1      -0.243  -1.948  -2.907  0.00  0.00    +0.119 A 
ATOM      5  C   UNL     1       0.086  -3.269  -2.666  0.00  0.00    +0.031 A 
ATOM      6  C   UNL     1       1.393  -3.693  -2.801  0.00  0.00    +0.025 A 
ATOM      7  C   UNL     1       2.379  -2.790  -3.180  0.00  0.00    +0.026 A 
ATOM      8  C   UNL     1       2.046  -1.464  -3.422  0.00  0.00    +0.040 A 
ATOM      9  C   UNL     1       0.735  -1.047  -3.290  0.00  0.00    +0.046 A 
ATOM     10 BR   UNL     1       0.278   0.757  -3.627  0.00  0.00    -0.048 Br
BRANCH   7  11
ATOM     11  N   UNL     1       3.703  -3.215  -3.318  0.00  0.00    -0.358 N 
ATOM     12  H   UNL     1       3.934  -4.142  -3.148  0.00  0.00    +0.142 HD
ATOM     13  H   UNL     1       4.390  -2.584  -3.583  0.00  0.00    +0.142 HD
ENDBRANCH   7  11
ENDBRANCH   1   4
BRANCH   1  14
ATOM     14  N   UNL     1      -1.948  -0.318  -1.489  0.00  0.00    -0.188 NA
ATOM     15  H   UNL     1      -2.182   0.607  -1.664  0.00  0.00    +0.148 HD
BRANCH  14  16
ATOM     16  C   UNL     1      -1.626  -0.748  -0.126  0.00  0.00    +0.063 C 
BRANCH  16  18
ATOM     17  C   UNL     1       0.069   1.065   0.158  0.00  0.00    +0.009 C 
ATOM     18  C   UNL     1      -0.155  -0.449   0.169  0.00  0.00    -0.000 C 
ATOM     19  C   UNL     1       0.213  -1.009   1.544  0.00  0.00    +0.009 C 
ENDBRANCH  16  18
BRANCH  16  20
ATOM     20  C   UNL     1      -2.510   0.007   0.869  0.00  0.00    -0.059 C 
BRANCH  20  21
ATOM     21  N   UNL     1      -3.923  -0.222   0.539  0.00  0.00    +0.377 N 
ATOM     22  C   UNL     1      -4.253  -1.638   0.751  0.00  0.00    -0.097 C 
ATOM     23  C   UNL     1      -4.769   0.612   1.404  0.00  0.00    -0.097 C 
ATOM     24  H   UNL     1      -4.087   0.021  -0.426  0.00  0.00    -0.083 HD
ENDBRANCH  20  21
ENDBRANCH  16  20
ENDBRANCH  14  16
ENDBRANCH   1  14
TORSDOF 7
