REMARK  Name = ZINC08793151
REMARK  9 active torsions:
REMARK  status: ('A' for Active; 'I' for Inactive)
REMARK    1  A    between atoms: C_1  and  C_2
REMARK    2  A    between atoms: C_2  and  N_47
REMARK    3  A    between atoms: C_8  and  N_14
REMARK    4  A    between atoms: C_9  and  C_10
REMARK    5  A    between atoms: C_10  and  O_12
REMARK    6  A    between atoms: O_12  and  C_13
REMARK    7  A    between atoms: C_15  and  C_17
REMARK    8  A    between atoms: C_18  and  C_19
REMARK    9  A    between atoms: C_22  and  N_24
REMARK                            x       y       z     vdW  Elec       q    Type
REMARK                         _______ _______ _______ _____ _____    ______ ____
ROOT
ATOM      1  C   UNL     1      -5.974   7.423  -0.371  0.00  0.00    -0.074 C 
ATOM      2  C   UNL     1      -4.506   7.355   0.060  0.00  0.00    +0.018 C 
ATOM      3  C   UNL     1      -4.077   5.892   0.053  0.00  0.00    -0.025 A 
ATOM      4  C   UNL     1      -5.008   4.912   0.053  0.00  0.00    -0.021 A 
ATOM      5  S   UNL     1      -4.079   3.407   0.032  0.00  0.00    -0.079 S 
ATOM      6  C   UNL     1      -2.477   4.066   0.036  0.00  0.00    +0.086 A 
ATOM      7  C   UNL     1      -2.698   5.439   0.044  0.00  0.00    +0.091 A 
ATOM      8  C   UNL     1      -6.493   5.097   0.063  0.00  0.00    -0.035 C 
ATOM      9  N   UNL     1      -6.773   6.499   0.459  0.00  0.00    +0.383 N 
ATOM     10  H   UNL     1      -6.514   6.626   1.444  0.00  0.00    -0.081 HD
ENDROOT
BRANCH   6  11
ATOM     11  N   UNL     1      -1.268   3.391   0.026  0.00  0.00    -0.276 N 
ATOM     12  C   UNL     1      -1.250   2.043   0.019  0.00  0.00    +0.241 C 
ATOM     13  O   UNL     1      -2.297   1.420   0.021  0.00  0.00    -0.270 OA
ATOM     14  H   UNL     1      -0.435   3.887   0.025  0.00  0.00    +0.156 HD
BRANCH  12  15
ATOM     15  C   UNL     1      -0.016   1.353   0.009  0.00  0.00    +0.068 C 
ATOM     16  C   UNL     1       0.002  -0.004   0.002  0.00  0.00    +0.020 C 
BRANCH  16  17
ATOM     17  C   UNL     1       1.237  -0.695  -0.013  0.00  0.00    +0.015 A 
ATOM     18  C   UNL     1       1.476  -2.065  -0.017  0.00  0.00    +0.018 A 
ATOM     19  C   UNL     1       2.787  -2.469  -0.037  0.00  0.00    +0.041 A 
ATOM     20  C   UNL     1       3.771  -1.531  -0.041  0.00  0.00    +0.164 A 
ATOM     21  S   UNL     1       2.895  -0.035  -0.025  0.00  0.00    -0.065 S 
BRANCH  20  22
ATOM     22  N   UNL     1       5.237  -1.738  -0.056  0.00  0.00    +0.063 N 
ATOM     23  O   UNL     1       5.693  -2.868  -0.066  0.00  0.00    -0.126 OA
ATOM     24  O   UNL     1       5.987  -0.778  -0.058  0.00  0.00    -0.126 OA
ENDBRANCH  20  22
ENDBRANCH  16  17
ENDBRANCH  12  15
ENDBRANCH   6  11
BRANCH   9  26
ATOM     25  C   UNL     1      -9.029   5.667   0.941  0.00  0.00    -0.017 C 
ATOM     26  C   UNL     1      -8.214   6.791   0.299  0.00  0.00    -0.082 C 
ENDBRANCH   9  26
BRANCH   7  27
ATOM     27  C   UNL     1      -1.585   6.389   0.044  0.00  0.00    +0.342 C 
ATOM     28  O   UNL     1      -1.127   6.790  -1.010  0.00  0.00    -0.245 OA
BRANCH  27  29
ATOM     29  O   UNL     1      -1.067   6.821   1.212  0.00  0.00    -0.464 OA
ATOM     30  C   UNL     1       0.036   7.763   1.135  0.00  0.00    +0.280 C 
ENDBRANCH  27  29
ENDBRANCH   7  27
TORSDOF 7
