REMARK  Name = ZINC05615916
REMARK  6 active torsions:
REMARK  status: ('A' for Active; 'I' for Inactive)
REMARK    1  A    between atoms: C_1  and  N_2
REMARK    2  A    between atoms: C_12  and  C_15
REMARK    3  A    between atoms: C_15  and  C_16
REMARK    4  A    between atoms: N_18  and  N_19
REMARK    5  A    between atoms: C_20  and  C_21
REMARK    6  A    between atoms: C_24  and  O_27
REMARK                            x       y       z     vdW  Elec       q    Type
REMARK                         _______ _______ _______ _____ _____    ______ ____
ROOT
ATOM      1  C   UNL     1       3.027   1.975   4.568  0.00  0.00    +0.132 C 
ENDROOT
BRANCH   1  13
ATOM      2  C   UNL     1      -0.013   1.086   0.008  0.00  0.00    +0.149 C 
ATOM      3  N   UNL     1      -0.698   1.558   1.213  0.00  0.00    -0.343 N 
ATOM      4  C   UNL     1      -2.056   1.809   1.304  0.00  0.00    +0.050 A 
ATOM      5  C   UNL     1      -3.092   1.704   0.380  0.00  0.00    +0.026 A 
ATOM      6  C   UNL     1      -4.380   2.026   0.749  0.00  0.00    +0.002 A 
ATOM      7  C   UNL     1      -4.659   2.456   2.038  0.00  0.00    +0.001 A 
ATOM      8  C   UNL     1      -3.648   2.558   2.969  0.00  0.00    +0.010 A 
ATOM      9  C   UNL     1      -2.340   2.240   2.608  0.00  0.00    +0.008 A 
ATOM     10  C   UNL     1      -1.056   2.254   3.333  0.00  0.00    +0.008 A 
ATOM     11  C   UNL     1      -0.080   1.824   2.422  0.00  0.00    +0.050 A 
ATOM     12  C   UNL     1       1.246   1.737   2.835  0.00  0.00    +0.030 A 
ATOM     13  C   UNL     1       1.589   2.072   4.128  0.00  0.00    -0.037 A 
ATOM     14  C   UNL     1       0.623   2.497   5.027  0.00  0.00    +0.005 A 
ATOM     15  C   UNL     1      -0.696   2.589   4.636  0.00  0.00    +0.011 A 
ENDBRANCH   1  13
BRANCH   1  16
ATOM     16  C   UNL     1       3.292   0.598   5.120  0.00  0.00    +0.237 C 
ATOM     17  O   UNL     1       2.401  -0.224   5.153  0.00  0.00    -0.274 OA
ATOM     18  N   UNL     1       4.519   0.280   5.577  0.00  0.00    -0.207 N 
ATOM     19  H   UNL     1       5.232   0.937   5.550  0.00  0.00    +0.177 HD
BRANCH  18  20
ATOM     20  N   UNL     1       4.766  -1.000   6.090  0.00  0.00    -0.188 NA
ATOM     21  C   UNL     1       5.948  -1.307   6.530  0.00  0.00    +0.138 C 
BRANCH  21  22
ATOM     22  C   UNL     1       6.207  -2.654   7.069  0.00  0.00    -0.005 A 
ATOM     23  C   UNL     1       5.180  -3.600   7.114  0.00  0.00    +0.013 A 
ATOM     24  C   UNL     1       5.428  -4.860   7.615  0.00  0.00    +0.046 A 
ATOM     25  C   UNL     1       6.694  -5.186   8.085  0.00  0.00    +0.117 A 
ATOM     26  C   UNL     1       7.716  -4.246   8.048  0.00  0.00    +0.046 A 
ATOM     27  C   UNL     1       7.479  -2.986   7.544  0.00  0.00    +0.013 A 
BRANCH  25  28
ATOM     28  O   UNL     1       6.933  -6.426   8.584  0.00  0.00    -0.507 OA
ATOM     29  H   UNL     1       6.774  -6.506   9.534  0.00  0.00    +0.292 HD
ENDBRANCH  25  28
ENDBRANCH  21  22
ENDBRANCH  18  20
ENDBRANCH   1  16
TORSDOF 5
