REMARK  Name = ZINC51036194
REMARK  5 active torsions:
REMARK  status: ('A' for Active; 'I' for Inactive)
REMARK    1  A    between atoms: C_3  and  C_8
REMARK    2  A    between atoms: C_8  and  C_10
REMARK    3  A    between atoms: C_8  and  S_12
REMARK    4  A    between atoms: C_10  and  N_11
REMARK    5  A    between atoms: S_12  and  C_13
REMARK                            x       y       z     vdW  Elec       q    Type
REMARK                         _______ _______ _______ _____ _____    ______ ____
ROOT
ATOM      1  C   UNL     1       3.642   2.193  -0.034  0.00  0.00    +0.065 C 
ENDROOT
BRANCH   1   4
ATOM      2  C   UNL     1       0.067   0.988  -0.184  0.00  0.00    +0.001 A 
ATOM      3  C   UNL     1       1.168   1.820  -0.102  0.00  0.00    +0.005 A 
ATOM      4  C   UNL     1       2.442   1.285  -0.123  0.00  0.00    -0.035 A 
ATOM      5  C   UNL     1       2.617  -0.082  -0.227  0.00  0.00    +0.020 A 
ATOM      6  C   UNL     1       1.516  -0.915  -0.308  0.00  0.00    +0.018 A 
ATOM      7  C   UNL     1       0.240  -0.379  -0.287  0.00  0.00    +0.015 A 
ATOM      8 BR   UNL     1       1.753  -2.786  -0.450  0.00  0.00    -0.050 Br
ENDBRANCH   1   4
BRANCH   1   9
ATOM      9  C   UNL     1       4.504   2.023  -1.287  0.00  0.00    -0.067 C 
BRANCH   9  10
ATOM     10  N   UNL     1       5.601   2.999  -1.262  0.00  0.00    +0.379 N 
ATOM     11  H   UNL     1       5.223   3.929  -1.156  0.00  0.00    -0.090 HD
ATOM     12  H   UNL     1       6.215   2.796  -0.488  0.00  0.00    -0.090 HD
ATOM     13  H   UNL     1       6.120   2.944  -2.126  0.00  0.00    -0.090 HD
ENDBRANCH   9  10
ENDBRANCH   1   9
BRANCH   1  14
ATOM     14  S   UNL     1       4.618   1.764   1.433  0.00  0.00    -0.098 S 
BRANCH  14  15
ATOM     15  C   UNL     1       3.587   2.233   2.783  0.00  0.00    +0.126 A 
ATOM     16  C   UNL     1       3.961   1.952   4.099  0.00  0.00    +0.117 A 
ATOM     17  C   UNL     1       3.106   2.347   5.140  0.00  0.00    +0.182 A 
ATOM     18  N   UNL     1       3.689   1.964   6.292  0.00  0.00    -0.216 NA
ATOM     19  H   UNL     1       5.807   0.954   4.252  0.00  0.00    +0.167 HD
ATOM     20  C   UNL     1       4.823   1.372   6.035  0.00  0.00    +0.199 A 
ATOM     21  N   UNL     1       5.038   1.338   4.701  0.00  0.00    -0.341 N 
ATOM     22  N   UNL     1       1.967   2.976   4.831  0.00  0.00    -0.214 NA
ATOM     23  C   UNL     1       1.656   3.220   3.578  0.00  0.00    +0.224 A 
ATOM     24  N   UNL     1       2.436   2.869   2.571  0.00  0.00    -0.227 NA
ENDBRANCH  14  15
ENDBRANCH   1  14
TORSDOF 5
