REMARK  Name = ZINC43734491
REMARK  5 active torsions:
REMARK  status: ('A' for Active; 'I' for Inactive)
REMARK    1  A    between atoms: C_1  and  C_2
REMARK    2  A    between atoms: C_2  and  C_3
REMARK    3  A    between atoms: C_8  and  N_9
REMARK    4  A    between atoms: C_12  and  C_17
REMARK    5  A    between atoms: C_17  and  N_18
REMARK                            x       y       z     vdW  Elec       q    Type
REMARK                         _______ _______ _______ _____ _____    ______ ____
ROOT
ATOM      1  N   UNL     1       2.833  -0.268  -0.114  0.00  0.00    -0.283 N 
ATOM      2  C   UNL     1       4.198  -0.480  -0.092  0.00  0.00    +0.224 A 
ATOM      3  N   UNL     1       4.888  -0.259   1.025  0.00  0.00    -0.197 NA
ATOM      4  C   UNL     1       6.194  -0.461   1.047  0.00  0.00    +0.156 A 
ATOM      5  N   UNL     1       6.820  -0.882  -0.039  0.00  0.00    -0.198 NA
ATOM      6  C   UNL     1       6.136  -1.104  -1.159  0.00  0.00    +0.217 A 
ATOM      7  N   UNL     1       4.822  -0.908  -1.183  0.00  0.00    -0.181 NA
ATOM      8  N   UNL     1       6.790  -1.543  -2.292  0.00  0.00    -0.327 N 
ATOM      9  H   UNL     1       2.364  -0.042   0.705  0.00  0.00    +0.155 HD
ATOM     10  H   UNL     1       7.748  -1.690  -2.272  0.00  0.00    +0.145 HD
ATOM     11  H   UNL     1       6.291  -1.705  -3.108  0.00  0.00    +0.145 HD
ENDROOT
BRANCH   1  17
ATOM     12  C   UNL     1       0.796  -0.778  -1.307  0.00  0.00    -0.026 A 
ATOM     13  C   UNL     1       0.101  -0.882  -2.495  0.00  0.00    +0.005 A 
ATOM     14  C   UNL     1       0.729  -0.596  -3.693  0.00  0.00    +0.000 A 
ATOM     15  C   UNL     1       2.056  -0.205  -3.706  0.00  0.00    +0.002 A 
ATOM     16  C   UNL     1       2.757  -0.100  -2.521  0.00  0.00    +0.023 A 
ATOM     17  C   UNL     1       2.127  -0.381  -1.316  0.00  0.00    +0.037 A 
BRANCH  12  19
ATOM     18  C   UNL     1      -0.425   0.206   0.614  0.00  0.00    +0.009 C 
ATOM     19  C   UNL     1       0.111  -1.089  -0.002  0.00  0.00    +0.033 C 
ENDBRANCH  12  19
ENDBRANCH   1  17
BRANCH   4  20
ATOM     20  C   UNL     1       6.972  -0.210   2.313  0.00  0.00    +0.202 C 
BRANCH  20  21
ATOM     21  N   UNL     1       7.015  -1.438   3.111  0.00  0.00    -0.291 N 
ATOM     22  C   UNL     1       6.037  -1.685   4.021  0.00  0.00    +0.203 A 
ATOM     23  N   UNL     1       6.005  -2.748   4.764  0.00  0.00    -0.235 NA
ATOM     24  C   UNL     1       6.965  -3.704   4.680  0.00  0.00    +0.096 A 
ATOM     25  C   UNL     1       8.023  -3.534   3.760  0.00  0.00    +0.068 A 
ATOM     26  C   UNL     1       8.026  -2.320   2.930  0.00  0.00    +0.262 A 
ATOM     27  O   UNL     1       8.906  -2.115   2.114  0.00  0.00    -0.267 OA
ATOM     28  C   UNL     1       9.019  -4.501   3.655  0.00  0.00    +0.035 A 
ATOM     29  C   UNL     1       8.964  -5.624   4.455  0.00  0.00    +0.043 A 
ATOM     30  C   UNL     1       7.925  -5.795   5.361  0.00  0.00    +0.042 A 
ATOM     31  C   UNL     1       6.930  -4.849   5.480  0.00  0.00    +0.068 A 
ATOM     32 CL   UNL     1       5.639  -5.080   6.618  0.00  0.00    -0.081 Cl
ATOM     33 CL   UNL     1      10.203  -6.833   4.328  0.00  0.00    -0.083 Cl
ENDBRANCH  20  21
ENDBRANCH   4  20
TORSDOF 4
