REMARK  Name = ZINC11013318
REMARK  13 active torsions:
REMARK  status: ('A' for Active; 'I' for Inactive)
REMARK    1  A    between atoms: C_1  and  C_2
REMARK    2  A    between atoms: C_2  and  C_3
REMARK    3  A    between atoms: C_2  and  C_4
REMARK    4  A    between atoms: C_4  and  C_6
REMARK    5  A    between atoms: C_4  and  N_14
REMARK    6  A    between atoms: C_9  and  O_12
REMARK    7  A    between atoms: O_12  and  C_13
REMARK    8  A    between atoms: C_15  and  C_17
REMARK    9  A    between atoms: C_17  and  N_55
REMARK   10  A    between atoms: C_18  and  N_55
REMARK   11  A    between atoms: C_19  and  C_20
REMARK   12  A    between atoms: C_19  and  N_55
REMARK   13  A    between atoms: C_22  and  N_27
REMARK                            x       y       z     vdW  Elec       q    Type
REMARK                         _______ _______ _______ _____ _____    ______ ____
ROOT
ATOM      1  N   UNL     1       0.031  -0.392   2.498  0.00  0.00    -0.310 N 
ATOM      2  C   UNL     1       0.990  -1.050   1.816  0.00  0.00    +0.197 C 
ATOM      3  O   UNL     1       1.836  -0.428   1.209  0.00  0.00    -0.278 OA
ATOM      4  H   UNL     1      -0.646  -0.889   2.984  0.00  0.00    +0.149 HD
ENDROOT
BRANCH   1   5
ATOM      5  C   UNL     1       0.011   1.072   2.506  0.00  0.00    +0.106 C 
BRANCH   5   6
ATOM      6  C   UNL     1      -0.694   1.558   3.746  0.00  0.00    -0.027 A 
ATOM      7  C   UNL     1      -1.830   0.909   4.194  0.00  0.00    +0.009 A 
ATOM      8  C   UNL     1      -2.475   1.349   5.333  0.00  0.00    +0.046 A 
ATOM      9  C   UNL     1      -1.989   2.451   6.022  0.00  0.00    +0.120 A 
ATOM     10  C   UNL     1      -0.853   3.104   5.568  0.00  0.00    +0.046 A 
ATOM     11  C   UNL     1      -0.208   2.657   4.431  0.00  0.00    +0.009 A 
BRANCH   9  12
ATOM     12  O   UNL     1      -2.626   2.890   7.140  0.00  0.00    -0.495 OA
ATOM     13  C   UNL     1      -3.790   2.168   7.549  0.00  0.00    +0.277 C 
ENDBRANCH   9  12
ENDBRANCH   5   6
BRANCH   5  15
ATOM     14  C   UNL     1      -0.013   1.086   0.008  0.00  0.00    +0.009 C 
ATOM     15  C   UNL     1      -0.729   1.579   1.267  0.00  0.00    +0.008 C 
ATOM     16  C   UNL     1      -0.750   3.109   1.275  0.00  0.00    +0.009 C 
ENDBRANCH   5  15
ENDBRANCH   1   5
BRANCH   2  17
ATOM     17  C   UNL     1       1.010  -2.557   1.808  0.00  0.00    +0.019 C 
BRANCH  17  19
ATOM     18  C   UNL     1       3.422  -2.663   1.625  0.00  0.00    -0.095 C 
ATOM     19  N   UNL     1       2.142  -3.013   0.975  0.00  0.00    +0.386 N 
ATOM     20  H   UNL     1       2.094  -2.547   0.061  0.00  0.00    -0.081 HD
BRANCH  19  21
ATOM     21  C   UNL     1       2.062  -4.475   0.771  0.00  0.00    -0.041 C 
BRANCH  21  22
ATOM     22  C   UNL     1       3.091  -4.881  -0.253  0.00  0.00    -0.043 A 
ATOM     23  C   UNL     1       4.243  -5.532   0.144  0.00  0.00    +0.036 A 
ATOM     24  C   UNL     1       5.184  -5.909  -0.796  0.00  0.00    +0.126 A 
ATOM     25  C   UNL     1       4.977  -5.625  -2.133  0.00  0.00    +0.034 A 
ATOM     26  C   UNL     1       3.828  -4.968  -2.531  0.00  0.00    +0.022 A 
ATOM     27  C   UNL     1       2.884  -4.595  -1.591  0.00  0.00    +0.042 A 
ATOM     28 CL   UNL     1       1.440  -3.771  -2.090  0.00  0.00    -0.083 Cl
BRANCH  24  29
ATOM     29  N   UNL     1       6.415  -6.612  -0.370  0.00  0.00    +0.056 N 
ATOM     30  O   UNL     1       7.246  -6.939  -1.198  0.00  0.00    -0.126 OA
ATOM     31  O   UNL     1       6.596  -6.862   0.808  0.00  0.00    -0.126 OA
ENDBRANCH  24  29
ENDBRANCH  21  22
ENDBRANCH  19  21
ENDBRANCH  17  19
ENDBRANCH   2  17
TORSDOF 9
