REMARK  Name = ZINC42167581
REMARK  5 active torsions:
REMARK  status: ('A' for Active; 'I' for Inactive)
REMARK    1  A    between atoms: C_3  and  N_12
REMARK    2  A    between atoms: C_6  and  S_7
REMARK    3  A    between atoms: S_7  and  N_10
REMARK    4  A    between atoms: C_13  and  C_15
REMARK    5  A    between atoms: C_15  and  C_16
REMARK                            x       y       z     vdW  Elec       q    Type
REMARK                         _______ _______ _______ _____ _____    ______ ____
ROOT
ATOM      1  C   UNL     1       0.074   1.242   0.633  0.00  0.00    +0.030 A 
ATOM      2  C   UNL     1       1.261   1.950   0.616  0.00  0.00    +0.026 A 
ATOM      3  C   UNL     1       2.381   1.411  -0.002  0.00  0.00    +0.048 A 
ATOM      4  C   UNL     1       2.304   0.160  -0.604  0.00  0.00    +0.041 A 
ATOM      5  C   UNL     1       1.114  -0.542  -0.583  0.00  0.00    +0.045 A 
ATOM      6  C   UNL     1       0.001  -0.001   0.034  0.00  0.00    +0.106 A 
ATOM      7 BR   UNL     1       3.825  -0.579  -1.449  0.00  0.00    -0.048 Br
ENDROOT
BRANCH   3   8
ATOM      8  N   UNL     1       3.584   2.125  -0.021  0.00  0.00    -0.285 N 
ATOM      9  C   UNL     1       3.568   3.470  -0.116  0.00  0.00    +0.216 C 
ATOM     10  O   UNL     1       2.512   4.066  -0.103  0.00  0.00    -0.276 OA
ATOM     11  H   UNL     1       4.429   1.653   0.034  0.00  0.00    +0.155 HD
BRANCH   9  12
ATOM     12  C   UNL     1       4.862   4.232  -0.238  0.00  0.00    +0.080 C 
BRANCH  12  13
ATOM     13  C   UNL     1       4.566   5.730  -0.329  0.00  0.00    -0.063 C 
ATOM     14  C   UNL     1       5.885   6.537  -0.404  0.00  0.00    -0.017 C 
ATOM     15  C   UNL     1       5.415   7.841  -1.101  0.00  0.00    -0.021 C 
ATOM     16  C   UNL     1       4.345   7.339  -2.093  0.00  0.00    -0.082 C 
ATOM     17  N   UNL     1       3.859   6.039  -1.591  0.00  0.00    +0.381 N 
ATOM     18  H   UNL     1       4.050   5.319  -2.272  0.00  0.00    -0.086 HD
ATOM     19  H   UNL     1       2.866   6.088  -1.420  0.00  0.00    -0.086 HD
ENDBRANCH  12  13
ENDBRANCH   9  12
ENDBRANCH   3   8
BRANCH   6  20
ATOM     20  S   UNL     1      -1.515  -0.900   0.058  0.00  0.00    +0.056 S 
ATOM     21  O   UNL     1      -1.176  -2.272  -0.095  0.00  0.00    -0.153 OA
ATOM     22  O   UNL     1      -2.256  -0.417   1.170  0.00  0.00    -0.153 OA
BRANCH  20  23
ATOM     23  N   UNL     1      -2.361  -0.468  -1.299  0.00  0.00    -0.204 NA
ATOM     24  H   UNL     1      -1.985   0.174  -1.921  0.00  0.00    +0.144 HD
ATOM     25  H   UNL     1      -3.232  -0.858  -1.471  0.00  0.00    +0.144 HD
ENDBRANCH  20  23
ENDBRANCH   6  20
TORSDOF 5
