REMARK  Name = ZINC33469419
REMARK  7 active torsions:
REMARK  status: ('A' for Active; 'I' for Inactive)
REMARK    1  A    between atoms: C_1  and  C_2
REMARK    2  A    between atoms: C_2  and  N_3
REMARK    3  A    between atoms: C_4  and  N_26
REMARK    4  A    between atoms: C_5  and  C_13
REMARK    5  A    between atoms: C_6  and  C_12
REMARK    6  A    between atoms: C_7  and  C_10
REMARK    7  A    between atoms: N_17  and  C_21
REMARK                            x       y       z     vdW  Elec       q    Type
REMARK                         _______ _______ _______ _____ _____    ______ ____
ROOT
ATOM      1  N   UNL     1      -0.642   1.542   1.303  0.00  0.00    -0.295 N 
ATOM      2  C   UNL     1      -1.596   0.762   1.875  0.00  0.00    +0.112 A 
ATOM      3  C   UNL     1      -2.357   1.241   2.954  0.00  0.00    +0.019 A 
ATOM      4  C   UNL     1      -2.125   2.539   3.441  0.00  0.00    -0.017 A 
ATOM      5  C   UNL     1      -1.141   3.318   2.838  0.00  0.00    +0.120 A 
ATOM      6  C   UNL     1      -0.397   2.785   1.754  0.00  0.00    +0.270 A 
ATOM      7  O   UNL     1       0.468   3.461   1.226  0.00  0.00    -0.266 OA
ATOM      8  C   UNL     1      -2.926   3.077   4.597  0.00  0.00    +0.046 C 
ENDROOT
BRANCH   3   9
ATOM      9  C   UNL     1      -3.383   0.396   3.566  0.00  0.00    +0.032 C 
ATOM     10  C   UNL     1      -3.226  -0.050   4.842  0.00  0.00    +0.077 C 
ATOM     11  C   UNL     1      -4.050  -0.933   5.604  0.00  0.00    +0.259 C 
ATOM     12  O   UNL     1      -5.065  -1.410   5.130  0.00  0.00    -0.269 OA
ATOM     13  N   UNL     1      -3.675  -1.220   6.839  0.00  0.00    -0.252 N 
ATOM     14  C   UNL     1      -2.552  -0.685   7.367  0.00  0.00    +0.121 C 
ATOM     15  S   UNL     1      -1.889  -0.910   8.929  0.00  0.00    -0.027 S 
ATOM     16  S   UNL     1      -1.935   0.317   6.023  0.00  0.00    -0.061 S 
BRANCH  13  17
ATOM     17  C   UNL     1      -4.492  -2.127   7.648  0.00  0.00    +0.083 C 
ATOM     18  C   UNL     1      -4.946  -1.418   8.941  0.00  0.00    +0.023 C 
ATOM     19  C   UNL     1      -4.894  -2.528  10.021  0.00  0.00    +0.002 C 
ATOM     20  C   UNL     1      -3.630  -3.332   9.626  0.00  0.00    +0.002 C 
ATOM     21  C   UNL     1      -3.657  -3.344   8.083  0.00  0.00    +0.023 C 
ENDBRANCH  13  17
ENDBRANCH   3   9
BRANCH   2  22
ATOM     22  N   UNL     1      -1.816  -0.497   1.397  0.00  0.00    -0.316 N 
ATOM     23  C   UNL     1      -3.155  -0.608   0.804  0.00  0.00    +0.106 C 
ATOM     24  C   UNL     1      -3.312  -1.983   0.152  0.00  0.00    +0.019 C 
ATOM     25  C   UNL     1      -3.111  -3.071   1.210  0.00  0.00    +0.003 C 
ATOM     26  C   UNL     1      -1.729  -2.903   1.847  0.00  0.00    +0.019 C 
ATOM     27  C   UNL     1      -1.617  -1.501   2.450  0.00  0.00    +0.106 C 
ENDBRANCH   2  22
BRANCH   1  29
ATOM     28  C   UNL     1      -0.503   1.461  -1.137  0.00  0.00    +0.027 C 
ATOM     29  C   UNL     1       0.138   1.018   0.179  0.00  0.00    +0.123 C 
ENDBRANCH   1  29
BRANCH   5  30
ATOM     30  C   UNL     1      -0.880   4.644   3.310  0.00  0.00    +0.105 C 
ATOM     31  N   UNL     1      -0.673   5.697   3.685  0.00  0.00    -0.191 NA
ENDBRANCH   5  30
TORSDOF 5
