REMARK  Name = ZINC36800320
REMARK  10 active torsions:
REMARK  status: ('A' for Active; 'I' for Inactive)
REMARK    1  A    between atoms: C_1  and  C_2
REMARK    2  A    between atoms: C_2  and  C_4
REMARK    3  A    between atoms: C_2  and  S_21
REMARK    4  A    between atoms: C_4  and  N_6
REMARK    5  A    between atoms: C_9  and  C_12
REMARK    6  A    between atoms: C_16  and  N_18
REMARK    7  A    between atoms: S_21  and  C_22
REMARK    8  A    between atoms: C_25  and  C_28
REMARK    9  A    between atoms: C_28  and  C_29
REMARK   10  A    between atoms: C_29  and  C_30
REMARK                            x       y       z     vdW  Elec       q    Type
REMARK                         _______ _______ _______ _____ _____    ______ ____
ROOT
ATOM      1  C   UNL     1       0.731  -0.503   1.223  0.00  0.00    +0.251 C 
ATOM      2  O   UNL     1       1.915  -0.776   1.155  0.00  0.00    -0.272 OA
ENDROOT
BRANCH   1   3
ATOM      3  N   UNL     1       0.082  -0.645   2.372  0.00  0.00    -0.156 NA
ATOM      4  C   UNL     1       0.727  -1.087   3.452  0.00  0.00    +0.163 A 
ATOM      5  N   UNL     1       0.231  -1.299   4.701  0.00  0.00    -0.335 N 
ATOM      6  C   UNL     1       1.072  -1.759   5.675  0.00  0.00    +0.055 A 
ATOM      7  C   UNL     1       2.358  -1.974   5.318  0.00  0.00    +0.074 A 
ATOM      8  S   UNL     1       2.344  -1.522   3.593  0.00  0.00    -0.060 S 
ATOM      9  H   UNL     1      -0.703  -1.125   4.896  0.00  0.00    +0.168 HD
BRANCH   6  10
ATOM     10  C   UNL     1       0.598  -2.010   7.053  0.00  0.00    +0.001 A 
ATOM     11  C   UNL     1      -0.738  -1.783   7.387  0.00  0.00    +0.010 A 
ATOM     12  C   UNL     1      -1.174  -2.018   8.674  0.00  0.00    +0.003 A 
ATOM     13  C   UNL     1      -0.290  -2.479   9.634  0.00  0.00    +0.033 A 
ATOM     14  C   UNL     1       1.035  -2.707   9.309  0.00  0.00    +0.127 A 
ATOM     15  C   UNL     1       1.483  -2.481   8.024  0.00  0.00    +0.042 A 
BRANCH  14  16
ATOM     16  N   UNL     1       1.974  -3.199  10.342  0.00  0.00    +0.056 N 
ATOM     17  O   UNL     1       1.583  -3.402  11.468  0.00  0.00    -0.126 OA
ATOM     18  O   UNL     1       3.133  -3.398  10.060  0.00  0.00    -0.126 OA
ENDBRANCH  14  16
ENDBRANCH   6  10
ENDBRANCH   1   3
BRANCH   1  20
ATOM     19  C   UNL     1      -0.019   1.526   0.010  0.00  0.00    +0.029 C 
ATOM     20  C   UNL     1       0.002  -0.004   0.002  0.00  0.00    +0.139 C 
BRANCH  20  21
ATOM     21  S   UNL     1       0.851  -0.589  -1.490  0.00  0.00    -0.074 S 
BRANCH  21  22
ATOM     22  C   UNL     1      -0.189  -0.057  -2.809  0.00  0.00    +0.185 A 
ATOM     23  N   UNL     1      -1.317   0.611  -2.686  0.00  0.00    -0.206 NA
ATOM     24  H   UNL     1       0.785  -0.717  -4.527  0.00  0.00    +0.191 HD
ATOM     25  C   UNL     1      -1.835   0.844  -3.892  0.00  0.00    +0.152 A 
ATOM     26  N   UNL     1      -1.051   0.331  -4.801  0.00  0.00    -0.157 NA
ATOM     27  N   UNL     1       0.031  -0.256  -4.127  0.00  0.00    -0.254 N 
BRANCH  25  28
ATOM     28  C   UNL     1      -3.122   1.581  -4.163  0.00  0.00    +0.078 C 
BRANCH  28  29
ATOM     29  C   UNL     1      -2.829   3.074  -4.327  0.00  0.00    +0.011 C 
BRANCH  29  30
ATOM     30  C   UNL     1      -4.135   3.823  -4.602  0.00  0.00    -0.011 C 
ATOM     31  C   UNL     1      -4.687   3.431  -5.988  0.00  0.00    +0.003 C 
ATOM     32  C   UNL     1      -5.287   4.746  -6.543  0.00  0.00    +0.000 C 
ATOM     33  C   UNL     1      -4.277   5.815  -6.056  0.00  0.00    +0.000 C 
ATOM     34  C   UNL     1      -3.874   5.339  -4.645  0.00  0.00    +0.003 C 
ENDBRANCH  29  30
ENDBRANCH  28  29
ENDBRANCH  25  28
ENDBRANCH  21  22
ENDBRANCH  20  21
ENDBRANCH   1  20
TORSDOF 9
