REMARK  Name = ZINC47152311
REMARK  7 active torsions:
REMARK  status: ('A' for Active; 'I' for Inactive)
REMARK    1  A    between atoms: C_1  and  C_2
REMARK    2  A    between atoms: C_5  and  N_8
REMARK    3  A    between atoms: C_9  and  C_11
REMARK    4  A    between atoms: C_11  and  C_13
REMARK    5  A    between atoms: C_11  and  N_14
REMARK    6  A    between atoms: C_18  and  C_19
REMARK    7  A    between atoms: C_22  and  N_25
REMARK                            x       y       z     vdW  Elec       q    Type
REMARK                         _______ _______ _______ _____ _____    ______ ____
ROOT
ATOM      1  N   UNL     1       0.238  -7.582   2.227  0.00  0.00    -0.244 N 
ATOM      2  C   UNL     1       1.415  -7.947   2.705  0.00  0.00    +0.259 C 
ATOM      3  O   UNL     1       2.403  -8.005   1.997  0.00  0.00    -0.269 OA
ATOM      4  C   UNL     1       1.470  -8.281   4.144  0.00  0.00    +0.077 C 
ATOM      5  C   UNL     1       2.523  -8.681   4.900  0.00  0.00    +0.028 C 
ATOM      6  S   UNL     1      -0.234  -8.013   4.615  0.00  0.00    -0.061 S 
ATOM      7  C   UNL     1      -0.853  -7.514   3.016  0.00  0.00    +0.121 C 
ATOM      8  S   UNL     1      -2.448  -7.061   2.588  0.00  0.00    -0.027 S 
ENDROOT
BRANCH   5   9
ATOM      9  C   UNL     1       2.305  -9.140   6.279  0.00  0.00    -0.024 A 
ATOM     10  C   UNL     1       1.006  -9.350   6.754  0.00  0.00    +0.010 A 
ATOM     11  C   UNL     1       0.811  -9.782   8.049  0.00  0.00    +0.033 A 
ATOM     12  C   UNL     1       1.896 -10.008   8.878  0.00  0.00    +0.126 A 
ATOM     13  C   UNL     1       3.184  -9.802   8.416  0.00  0.00    +0.033 A 
ATOM     14  C   UNL     1       3.397  -9.376   7.122  0.00  0.00    +0.010 A 
BRANCH  12  15
ATOM     15  N   UNL     1       1.677 -10.471  10.267  0.00  0.00    +0.056 N 
ATOM     16  O   UNL     1       0.552 -10.652  10.674  0.00  0.00    -0.126 OA
ATOM     17  O   UNL     1       2.622 -10.669  10.994  0.00  0.00    -0.126 OA
ENDBRANCH  12  15
ENDBRANCH   5   9
BRANCH   1  18
ATOM     18  C   UNL     1       0.117  -7.238   0.808  0.00  0.00    +0.166 C 
ATOM     19  C   UNL     1      -0.893  -8.173   0.140  0.00  0.00    +0.038 C 
BRANCH  18  21
ATOM     20  N   UNL     1      -0.537  -5.275  -0.547  0.00  0.00    -0.284 N 
ATOM     21  C   UNL     1      -0.354  -5.813   0.675  0.00  0.00    +0.238 C 
ATOM     22  O   UNL     1      -0.567  -5.150   1.667  0.00  0.00    -0.273 OA
ATOM     23  H   UNL     1      -0.445  -5.828  -1.339  0.00  0.00    +0.155 HD
BRANCH  20  28
ATOM     24  C   UNL     1      -1.847   0.221  -1.061  0.00  0.00    +0.044 C 
ATOM     25  C   UNL     1      -1.499  -1.239  -0.925  0.00  0.00    -0.050 A 
ATOM     26  C   UNL     1      -0.744  -1.671   0.150  0.00  0.00    +0.005 A 
ATOM     27  C   UNL     1      -0.423  -3.008   0.278  0.00  0.00    +0.023 A 
ATOM     28  C   UNL     1      -0.861  -3.920  -0.674  0.00  0.00    +0.033 A 
ATOM     29  C   UNL     1      -1.620  -3.483  -1.752  0.00  0.00    +0.023 A 
ATOM     30  C   UNL     1      -1.941  -2.145  -1.871  0.00  0.00    +0.005 A 
ENDBRANCH  20  28
ENDBRANCH  18  21
ENDBRANCH   1  18
TORSDOF 5
