REMARK  Name = ZINC59489383
REMARK  13 active torsions:
REMARK  status: ('A' for Active; 'I' for Inactive)
REMARK    1  A    between atoms: C_1  and  C_2
REMARK    2  A    between atoms: C_2  and  C_28
REMARK    3  A    between atoms: N_3  and  N_4
REMARK    4  A    between atoms: C_5  and  S_7
REMARK    5  A    between atoms: S_7  and  C_8
REMARK    6  A    between atoms: N_13  and  C_16
REMARK    7  A    between atoms: C_16  and  C_17
REMARK    8  A    between atoms: C_17  and  C_18
REMARK    9  A    between atoms: C_21  and  O_26
REMARK   10  A    between atoms: C_22  and  O_24
REMARK   11  A    between atoms: O_24  and  C_25
REMARK   12  A    between atoms: O_26  and  C_27
REMARK   13  A    between atoms: C_31  and  O_34
REMARK                            x       y       z     vdW  Elec       q    Type
REMARK                         _______ _______ _______ _____ _____    ______ ____
ROOT
ATOM      1  C   UNL     1       0.077  -1.099   6.311  0.00  0.00    +0.149 C 
ATOM      2  C   UNL     1       0.154  -0.494   7.728  0.00  0.00    +0.120 C 
ATOM      3  C   UNL     1      -1.120  -0.974   8.388  0.00  0.00    +0.223 C 
ATOM      4  O   UNL     1      -1.460  -0.723   9.524  0.00  0.00    -0.275 OA
ATOM      5  N   UNL     1      -1.813  -1.720   7.519  0.00  0.00    -0.241 N 
ATOM      6  C   UNL     1      -1.231  -1.859   6.317  0.00  0.00    +0.236 C 
ATOM      7  O   UNL     1      -1.680  -2.491   5.385  0.00  0.00    -0.274 OA
ENDROOT
BRANCH   1   8
ATOM      8  S   UNL     1       0.047   0.213   5.059  0.00  0.00    -0.078 S 
BRANCH   8  10
ATOM      9  N   UNL     1       0.024   0.035   2.339  0.00  0.00    -0.217 N 
ATOM     10  C   UNL     1       0.044  -0.660   3.528  0.00  0.00    +0.146 C 
ATOM     11  N   UNL     1       0.062  -1.964   3.521  0.00  0.00    -0.380 N 
ATOM     12  H   UNL     1       0.011   1.005   2.345  0.00  0.00    +0.176 HD
ATOM     13  H   UNL     1       0.077  -2.454   4.358  0.00  0.00    +0.158 HD
ATOM     14  H   UNL     1       0.061  -2.445   2.678  0.00  0.00    +0.158 HD
BRANCH   9  17
ATOM     15  C   UNL     1      -0.018   1.503   0.010  0.00  0.00    +0.068 C 
ATOM     16  C   UNL     1       0.002  -0.004   0.002  0.00  0.00    +0.063 C 
ATOM     17  N   UNL     1       0.022  -0.659   1.122  0.00  0.00    -0.185 NA
BRANCH  16  18
ATOM     18  C   UNL     1      -0.000  -0.734  -1.279  0.00  0.00    -0.002 A 
ATOM     19  C   UNL     1      -0.015  -0.031  -2.486  0.00  0.00    +0.013 A 
ATOM     20  C   UNL     1      -0.017  -0.718  -3.681  0.00  0.00    +0.046 A 
ATOM     21  C   UNL     1      -0.004  -2.107  -3.686  0.00  0.00    +0.117 A 
ATOM     22  C   UNL     1       0.011  -2.810  -2.489  0.00  0.00    +0.046 A 
ATOM     23  C   UNL     1       0.019  -2.131  -1.289  0.00  0.00    +0.013 A 
BRANCH  21  24
ATOM     24  O   UNL     1      -0.007  -2.780  -4.867  0.00  0.00    -0.507 OA
ATOM     25  H   UNL     1       0.876  -2.966  -5.215  0.00  0.00    +0.292 HD
ENDBRANCH  21  24
ENDBRANCH  16  18
ENDBRANCH   9  17
ENDBRANCH   8  10
ENDBRANCH   1   8
BRANCH   5  26
ATOM     26  C   UNL     1      -3.099  -2.337   7.852  0.00  0.00    +0.121 C 
BRANCH  26  27
ATOM     27  C   UNL     1      -4.233  -1.372   7.501  0.00  0.00    +0.054 C 
BRANCH  27  28
ATOM     28  C   UNL     1      -5.557  -2.006   7.844  0.00  0.00    -0.042 A 
ATOM     29  C   UNL     1      -6.219  -2.771   6.902  0.00  0.00    +0.007 A 
ATOM     30  C   UNL     1      -7.434  -3.355   7.211  0.00  0.00    +0.049 A 
ATOM     31  C   UNL     1      -7.989  -3.174   8.468  0.00  0.00    +0.161 A 
ATOM     32  C   UNL     1      -7.322  -2.405   9.416  0.00  0.00    +0.162 A 
ATOM     33  C   UNL     1      -6.103  -1.826   9.101  0.00  0.00    +0.053 A 
BRANCH  32  34
ATOM     34  O   UNL     1      -7.863  -2.225  10.650  0.00  0.00    -0.491 OA
ATOM     35  C   UNL     1      -7.122  -1.423  11.573  0.00  0.00    +0.277 C 
ENDBRANCH  32  34
BRANCH  31  36
ATOM     36  O   UNL     1      -9.184  -3.748   8.774  0.00  0.00    -0.491 OA
ATOM     37  C   UNL     1      -9.812  -4.524   7.751  0.00  0.00    +0.277 C 
ENDBRANCH  31  36
ENDBRANCH  27  28
ENDBRANCH  26  27
ENDBRANCH   5  26
TORSDOF 10
