REMARK  Name = ZINC06430251
REMARK  8 active torsions:
REMARK  status: ('A' for Active; 'I' for Inactive)
REMARK    1  A    between atoms: C_1  and  C_2
REMARK    2  A    between atoms: N_4  and  C_5
REMARK    3  A    between atoms: C_8  and  N_11
REMARK    4  A    between atoms: C_12  and  C_14
REMARK    5  A    between atoms: C_14  and  O_15
REMARK    6  A    between atoms: O_15  and  C_16
REMARK    7  A    between atoms: C_16  and  C_18
REMARK    8  A    between atoms: C_18  and  C_19
REMARK                            x       y       z     vdW  Elec       q    Type
REMARK                         _______ _______ _______ _____ _____    ______ ____
ROOT
ATOM      1  N   UNL     1      -1.277   7.712   0.472  0.00  0.00    -0.283 N 
ATOM      2  C   UNL     1      -0.131   8.414   0.370  0.00  0.00    +0.255 C 
ATOM      3  O   UNL     1       0.929   7.832   0.272  0.00  0.00    -0.272 OA
ATOM      4  H   UNL     1      -2.117   8.175   0.619  0.00  0.00    +0.155 HD
ENDROOT
BRANCH   1   8
ATOM      5  C   UNL     1      -1.212   3.555   0.154  0.00  0.00    +0.033 A 
ATOM      6  C   UNL     1      -0.158   4.221   0.766  0.00  0.00    +0.025 A 
ATOM      7  C   UNL     1      -0.177   5.598   0.867  0.00  0.00    +0.025 A 
ATOM      8  C   UNL     1      -1.255   6.316   0.366  0.00  0.00    +0.034 A 
ATOM      9  C   UNL     1      -2.312   5.649  -0.241  0.00  0.00    +0.025 A 
ATOM     10  C   UNL     1      -2.290   4.273  -0.347  0.00  0.00    +0.025 A 
BRANCH   5  14
ATOM     11  C   UNL     1       0.010  -0.004   0.043  0.00  0.00    +0.109 C 
ATOM     12  C   UNL     1      -0.013   1.502   0.029  0.00  0.00    +0.214 C 
ATOM     13  O   UNL     1       1.028   2.124  -0.005  0.00  0.00    -0.276 OA
ATOM     14  N   UNL     1      -1.190   2.159   0.048  0.00  0.00    -0.286 N 
ATOM     15  H   UNL     1      -2.022   1.664  -0.012  0.00  0.00    +0.155 HD
ENDBRANCH   5  14
ENDBRANCH   1   8
BRANCH   2  16
ATOM     16  C   UNL     1      -0.166   9.920   0.379  0.00  0.00    +0.328 C 
BRANCH  16  17
ATOM     17  O   UNL     1       1.186  10.437   0.258  0.00  0.00    -0.455 OA
BRANCH  17  18
ATOM     18  C   UNL     1       1.330  11.771   0.250  0.00  0.00    +0.308 C 
ATOM     19  O   UNL     1       0.358  12.484   0.342  0.00  0.00    -0.251 OA
BRANCH  18  20
ATOM     20  C   UNL     1       2.703  12.380   0.128  0.00  0.00    +0.127 C 
BRANCH  20  21
ATOM     21  C   UNL     1       2.587  13.906   0.144  0.00  0.00    -0.018 C 
ATOM     22  C   UNL     1       1.719  14.364  -1.030  0.00  0.00    +0.011 C 
ATOM     23  C   UNL     1       1.604  15.890  -1.013  0.00  0.00    -0.010 C 
ATOM     24  C   UNL     1       2.998  16.508  -1.138  0.00  0.00    +0.007 C 
ATOM     25  C   UNL     1       3.866  16.050   0.036  0.00  0.00    -0.010 C 
ATOM     26  C   UNL     1       3.981  14.524   0.019  0.00  0.00    +0.011 C 
ATOM     27  C   UNL     1       3.224  16.499   1.350  0.00  0.00    +0.007 C 
ATOM     28  C   UNL     1       1.830  15.880   1.475  0.00  0.00    -0.010 C 
ATOM     29  C   UNL     1       0.963  16.339   0.301  0.00  0.00    +0.007 C 
ATOM     30  C   UNL     1       1.946  14.355   1.458  0.00  0.00    +0.011 C 
ENDBRANCH  20  21
ENDBRANCH  18  20
ENDBRANCH  17  18
ENDBRANCH  16  17
ENDBRANCH   2  16
TORSDOF 7
