REMARK  Name = ZINC12446659
REMARK  10 active torsions:
REMARK  status: ('A' for Active; 'I' for Inactive)
REMARK    1  A    between atoms: C_1  and  C_2
REMARK    2  A    between atoms: C_4  and  C_7
REMARK    3  A    between atoms: C_7  and  N_49
REMARK    4  A    between atoms: C_8  and  N_49
REMARK    5  A    between atoms: C_9  and  C_10
REMARK    6  A    between atoms: C_9  and  N_49
REMARK    7  A    between atoms: C_13  and  S_22
REMARK    8  A    between atoms: N_14  and  C_15
REMARK    9  A    between atoms: C_15  and  C_16
REMARK   10  A    between atoms: S_22  and  C_25
REMARK                            x       y       z     vdW  Elec       q    Type
REMARK                         _______ _______ _______ _____ _____    ______ ____
ROOT
ATOM      1  C   UNL     1       1.894  -0.751   1.506  0.00  0.00    +0.023 A 
ATOM      2  C   UNL     1       1.977  -1.174   2.782  0.00  0.00    +0.133 A 
ATOM      3  N   UNL     1       0.738  -1.183   3.298  0.00  0.00    -0.220 NA
ATOM      4  C   UNL     1      -0.108  -0.775   2.392  0.00  0.00    +0.251 A 
ATOM      5  N   UNL     1       0.573  -0.492   1.260  0.00  0.00    -0.313 N 
ENDROOT
BRANCH   4   6
ATOM      6  S   UNL     1      -1.849  -0.620   2.609  0.00  0.00    +0.027 S 
ATOM      7  O   UNL     1      -2.024  -0.416   4.005  0.00  0.00    -0.167 OA
ATOM      8  O   UNL     1      -2.244   0.377   1.676  0.00  0.00    -0.167 OA
ATOM      9  C   UNL     1      -2.525  -2.232   2.124  0.00  0.00    +0.204 C 
ENDBRANCH   4   6
BRANCH   1  10
ATOM     10  C   UNL     1       3.037  -0.590   0.537  0.00  0.00    -0.023 C 
BRANCH  10  12
ATOM     11  C   UNL     1       3.549  -2.957   0.531  0.00  0.00    -0.095 C 
ATOM     12  N   UNL     1       3.128  -1.807  -0.297  0.00  0.00    +0.385 N 
ATOM     13  H   UNL     1       2.205  -2.005  -0.700  0.00  0.00    -0.081 HD
BRANCH  12  14
ATOM     14  C   UNL     1       4.096  -1.595  -1.395  0.00  0.00    -0.022 C 
BRANCH  14  18
ATOM     15  C   UNL     1       5.346  -6.201  -2.892  0.00  0.00    +0.073 C 
ATOM     16  C   UNL     1       4.634  -4.875  -2.967  0.00  0.00    +0.075 A 
ATOM     17  N   UNL     1       4.701  -3.856  -2.142  0.00  0.00    -0.251 NA
ATOM     18  C   UNL     1       4.008  -2.756  -2.351  0.00  0.00    +0.032 A 
ATOM     19  C   UNL     1       3.208  -2.696  -3.446  0.00  0.00    +0.068 A 
ATOM     20  S   UNL     1       3.515  -4.303  -4.165  0.00  0.00    -0.081 S 
ENDBRANCH  14  18
ENDBRANCH  12  14
ENDBRANCH  10  12
ENDBRANCH   1  10
BRANCH   5  21
ATOM     21  C   UNL     1       0.002  -0.004   0.002  0.00  0.00    +0.156 C 
BRANCH  21  22
ATOM     22  C   UNL     1      -0.019   1.526   0.010  0.00  0.00    +0.138 C 
ATOM     23  C   UNL     1      -0.723   2.047  -1.261  0.00  0.00    +0.035 C 
ATOM     24  C   UNL     1       0.144   3.280  -1.635  0.00  0.00    +0.031 C 
ATOM     25  C   UNL     1       1.548   2.799  -1.192  0.00  0.00    +0.160 C 
ATOM     26  O   UNL     1       1.322   2.030   0.000  0.00  0.00    -0.375 OA
ENDBRANCH  21  22
ENDBRANCH   5  21
TORSDOF 7
