REMARK  Name = ZINC02590165
REMARK  6 active torsions:
REMARK  status: ('A' for Active; 'I' for Inactive)
REMARK    1  A    between atoms: C_1  and  N_2
REMARK    2  A    between atoms: N_11  and  C_19
REMARK    3  A    between atoms: C_19  and  C_20
REMARK    4  A    between atoms: C_20  and  C_21
REMARK    5  A    between atoms: C_21  and  S_22
REMARK    6  A    between atoms: S_22  and  C_23
REMARK                            x       y       z     vdW  Elec       q    Type
REMARK                         _______ _______ _______ _____ _____    ______ ____
ROOT
ATOM      1  C   UNL     1       3.501  -0.803   0.580  0.00  0.00    +0.155 C 
ATOM      2  N   UNL     1       2.284  -0.022   0.340  0.00  0.00    -0.280 N 
ATOM      3  C   UNL     1       2.366   1.349   0.160  0.00  0.00    +0.170 A 
ATOM      4  C   UNL     1       1.196   2.066  -0.066  0.00  0.00    +0.153 A 
ATOM      5  C   UNL     1      -0.032   1.381  -0.106  0.00  0.00    +0.280 A 
ATOM      6  O   UNL     1      -1.069   1.988  -0.307  0.00  0.00    -0.265 OA
ATOM      7  N   UNL     1      -0.049   0.045   0.076  0.00  0.00    -0.273 N 
ATOM      8  H   UNL     1      -0.920  -0.445   0.048  0.00  0.00    +0.173 HD
ATOM      9  C   UNL     1       1.088  -0.639   0.294  0.00  0.00    +0.331 A 
ATOM     10  O   UNL     1       1.035  -1.843   0.454  0.00  0.00    -0.246 OA
ATOM     11  N   UNL     1       1.572   3.395  -0.208  0.00  0.00    -0.306 N 
ATOM     12  C   UNL     1       2.923   3.436  -0.065  0.00  0.00    +0.201 A 
ATOM     13  N   UNL     1       3.378   2.218   0.152  0.00  0.00    -0.196 NA
ATOM     14  N   UNL     1       3.696   4.572  -0.136  0.00  0.00    -0.301 N 
ATOM     15  C   UNL     1       4.019   5.082   1.221  0.00  0.00    +0.108 C 
ATOM     16  C   UNL     1       5.262   5.975   0.978  0.00  0.00    +0.020 C 
ATOM     17  C   UNL     1       6.043   5.193  -0.103  0.00  0.00    +0.020 C 
ATOM     18  C   UNL     1       4.997   4.289  -0.781  0.00  0.00    +0.108 C 
ENDROOT
BRANCH  11  19
ATOM     19  C   UNL     1       0.685   4.533  -0.461  0.00  0.00    +0.126 C 
BRANCH  19  20
ATOM     20  C   UNL     1       0.500   4.709  -1.970  0.00  0.00    +0.033 C 
BRANCH  20  21
ATOM     21  C   UNL     1      -0.427   5.897  -2.235  0.00  0.00    +0.079 C 
BRANCH  21  22
ATOM     22  S   UNL     1      -0.646   6.105  -4.019  0.00  0.00    -0.086 S 
BRANCH  22  23
ATOM     23  C   UNL     1      -1.724   7.499  -4.034  0.00  0.00    +0.188 A 
ATOM     24  N   UNL     1      -2.106   8.034  -2.883  0.00  0.00    -0.230 NA
ATOM     25  C   UNL     1      -2.910   9.084  -2.860  0.00  0.00    +0.115 A 
ATOM     26  C   UNL     1      -3.361   9.618  -4.058  0.00  0.00    +0.039 A 
ATOM     27  C   UNL     1      -2.946   9.030  -5.243  0.00  0.00    +0.115 A 
ATOM     28  N   UNL     1      -2.137   7.985  -5.196  0.00  0.00    -0.230 NA
ENDBRANCH  22  23
ENDBRANCH  21  22
ENDBRANCH  20  21
ENDBRANCH  19  20
ENDBRANCH  11  19
TORSDOF 5
