REMARK  Name = ZINC07736002
REMARK  9 active torsions:
REMARK  status: ('A' for Active; 'I' for Inactive)
REMARK    1  A    between atoms: C_1  and  C_2
REMARK    2  A    between atoms: C_3  and  C_30
REMARK    3  A    between atoms: C_9  and  C_12
REMARK    4  A    between atoms: C_12  and  O_14
REMARK    5  A    between atoms: O_14  and  C_15
REMARK    6  A    between atoms: C_15  and  C_17
REMARK    7  A    between atoms: C_15  and  C_18
REMARK    8  A    between atoms: N_20  and  C_21
REMARK    9  A    between atoms: C_24  and  C_27
REMARK                            x       y       z     vdW  Elec       q    Type
REMARK                         _______ _______ _______ _____ _____    ______ ____
ROOT
ATOM      1  C   UNL     1       2.408  -4.242  -0.259  0.00  0.00    +0.259 C 
ATOM      2  C   UNL     1       1.872  -4.861   1.034  0.00  0.00    +0.062 C 
ENDROOT
BRANCH   1   3
ATOM      3  C   UNL     1       2.400  -2.740  -0.137  0.00  0.00    +0.258 C 
ATOM      4  O   UNL     1       3.445  -2.125  -0.144  0.00  0.00    -0.271 OA
ATOM      5  N   UNL     1       1.231  -2.079  -0.021  0.00  0.00    -0.282 N 
ATOM      6  H   UNL     1       0.400  -2.574   0.062  0.00  0.00    +0.155 HD
BRANCH   5   7
ATOM      7  C   UNL     1       1.215  -0.685  -0.019  0.00  0.00    +0.034 A 
ATOM      8  C   UNL     1       2.141   0.021  -0.780  0.00  0.00    +0.024 A 
ATOM      9  C   UNL     1       2.128   1.397  -0.781  0.00  0.00    +0.015 A 
ATOM     10  C   UNL     1       1.183   2.086  -0.015  0.00  0.00    +0.037 A 
ATOM     11  C   UNL     1       0.255   1.374   0.749  0.00  0.00    +0.015 A 
ATOM     12  C   UNL     1       0.273  -0.002   0.745  0.00  0.00    +0.024 A 
BRANCH  10  13
ATOM     13  C   UNL     1       1.167   3.562  -0.013  0.00  0.00    +0.242 C 
ATOM     14  O   UNL     1       1.976   4.180  -0.677  0.00  0.00    -0.270 OA
ATOM     15  N   UNL     1       0.255   4.224   0.726  0.00  0.00    -0.325 N 
ATOM     16  H   UNL     1      -0.391   3.731   1.256  0.00  0.00    +0.145 HD
ATOM     17  H   UNL     1       0.244   5.194   0.728  0.00  0.00    +0.145 HD
ENDBRANCH  10  13
ENDBRANCH   5   7
ENDBRANCH   1   3
BRANCH   1  18
ATOM     18  O   UNL     1       3.766  -4.701  -0.489  0.00  0.00    -0.449 OA
BRANCH  18  19
ATOM     19  C   UNL     1       3.915  -5.830  -1.210  0.00  0.00    +0.340 C 
ATOM     20  O   UNL     1       2.938  -6.415  -1.633  0.00  0.00    -0.245 OA
BRANCH  19  29
ATOM     21  C   UNL     1       6.414 -10.223  -3.917  0.00  0.00    +0.046 C 
ATOM     22  C   UNL     1       7.224  -9.172  -3.202  0.00  0.00    -0.022 A 
ATOM     23  C   UNL     1       8.561  -9.122  -3.106  0.00  0.00    +0.017 A 
ATOM     24  N   UNL     1       8.937  -8.024  -2.380  0.00  0.00    -0.358 N 
ATOM     25  H   UNL     1       9.853  -7.778  -2.177  0.00  0.00    +0.166 HD
ATOM     26  C   UNL     1       7.825  -7.322  -1.982  0.00  0.00    +0.047 A 
ATOM     27  C   UNL     1       6.700  -8.009  -2.479  0.00  0.00    +0.004 A 
ATOM     28  C   UNL     1       5.420  -7.524  -2.228  0.00  0.00    +0.025 A 
ATOM     29  C   UNL     1       5.266  -6.357  -1.483  0.00  0.00    +0.060 A 
ATOM     30  C   UNL     1       6.394  -5.679  -0.999  0.00  0.00    +0.017 A 
ATOM     31  C   UNL     1       7.648  -6.155  -1.240  0.00  0.00    +0.027 A 
ATOM     32  C   UNL     1       9.510 -10.127  -3.707  0.00  0.00    +0.063 C 
ENDBRANCH  19  29
ENDBRANCH  18  19
ENDBRANCH   1  18
TORSDOF 6
