REMARK  Name = ZINC56894461
REMARK  7 active torsions:
REMARK  status: ('A' for Active; 'I' for Inactive)
REMARK    1  A    between atoms: C_4  and  N_25
REMARK    2  A    between atoms: C_5  and  C_7
REMARK    3  A    between atoms: C_7  and  N_8
REMARK    4  A    between atoms: N_11  and  C_12
REMARK    5  A    between atoms: C_12  and  C_13
REMARK    6  A    between atoms: C_13  and  C_15
REMARK    7  A    between atoms: C_13  and  N_20
REMARK                            x       y       z     vdW  Elec       q    Type
REMARK                         _______ _______ _______ _____ _____    ______ ____
ROOT
ATOM      1  N   UNL     1       1.076  -2.694   1.445  0.00  0.00    -0.295 N 
ATOM      2  C   UNL     1       1.233  -4.016   1.653  0.00  0.00    +0.300 C 
ATOM      3  O   UNL     1       0.965  -4.807   0.769  0.00  0.00    -0.253 OA
ATOM      4  N   UNL     1       1.688  -4.462   2.841  0.00  0.00    -0.301 N 
ATOM      5  H   UNL     1       1.290  -2.063   2.150  0.00  0.00    +0.151 HD
ATOM      6  H   UNL     1       1.902  -3.831   3.546  0.00  0.00    +0.150 HD
ENDROOT
BRANCH   1   7
ATOM      7  C   UNL     1       0.582  -2.210   0.154  0.00  0.00    +0.143 C 
BRANCH   7  12
ATOM      8  C   UNL     1      -0.797   1.295   0.418  0.00  0.00    +0.000 A 
ATOM      9  C   UNL     1       0.341   2.058   0.229  0.00  0.00    +0.002 A 
ATOM     10  C   UNL     1       1.559   1.444   0.015  0.00  0.00    +0.026 A 
ATOM     11  C   UNL     1       1.641   0.058  -0.010  0.00  0.00    +0.052 A 
ATOM     12  C   UNL     1       0.497  -0.706   0.180  0.00  0.00    -0.006 A 
ATOM     13  C   UNL     1      -0.719  -0.085   0.394  0.00  0.00    +0.007 A 
BRANCH  11  14
ATOM     14  N   UNL     1       2.876  -0.569  -0.228  0.00  0.00    -0.306 N 
ATOM     15  C   UNL     1       3.766  -0.289  -1.233  0.00  0.00    +0.112 A 
ATOM     16  C   UNL     1       4.812  -1.121  -1.069  0.00  0.00    +0.130 A 
ATOM     17  N   UNL     1       4.573  -1.889   0.004  0.00  0.00    -0.244 NA
ATOM     18  C   UNL     1       3.419  -1.564   0.520  0.00  0.00    +0.204 A 
ENDBRANCH  11  14
ENDBRANCH   7  12
ENDBRANCH   1   7
BRANCH   4  19
ATOM     19  C   UNL     1       1.859  -5.899   3.068  0.00  0.00    +0.095 C 
BRANCH  19  20
ATOM     20  C   UNL     1       2.259  -6.142   4.524  0.00  0.00    -0.013 C 
BRANCH  20  21
ATOM     21  N   UNL     1       2.560  -7.567   4.719  0.00  0.00    +0.386 N 
ATOM     22  C   UNL     1       2.853  -7.823   6.145  0.00  0.00    -0.078 C 
ATOM     23  C   UNL     1       3.964  -8.903   6.132  0.00  0.00    -0.020 C 
ATOM     24  C   UNL     1       4.808  -8.470   4.904  0.00  0.00    -0.020 C 
ATOM     25  C   UNL     1       3.744  -7.937   3.922  0.00  0.00    -0.078 C 
ATOM     26  H   UNL     1       1.769  -8.124   4.431  0.00  0.00    -0.081 HD
ENDBRANCH  20  21
BRANCH  20  27
ATOM     27  C   UNL     1       1.124  -5.740   5.430  0.00  0.00    -0.022 A 
ATOM     28  C   UNL     1       0.962  -4.596   6.140  0.00  0.00    +0.009 A 
ATOM     29  C   UNL     1      -0.174  -4.442   6.913  0.00  0.00    +0.008 A 
ATOM     30  C   UNL     1      -1.092  -5.439   6.939  0.00  0.00    +0.045 A 
ATOM     31  S   UNL     1      -0.360  -6.643   5.842  0.00  0.00    -0.103 S 
ENDBRANCH  20  27
ENDBRANCH  19  20
ENDBRANCH   4  19
TORSDOF 7
