REMARK  Name = ZINC40066842
REMARK  15 active torsions:
REMARK  status: ('A' for Active; 'I' for Inactive)
REMARK    1  A    between atoms: C_1  and  C_2
REMARK    2  A    between atoms: C_2  and  C_3
REMARK    3  A    between atoms: C_3  and  N_4
REMARK    4  A    between atoms: C_5  and  N_27
REMARK    5  A    between atoms: C_6  and  C_14
REMARK    6  A    between atoms: C_7  and  C_13
REMARK    7  A    between atoms: C_8  and  C_11
REMARK    8  A    between atoms: N_18  and  C_22
REMARK    9  A    between atoms: C_22  and  C_24
REMARK   10  A    between atoms: C_22  and  C_25
REMARK   11  A    between atoms: C_25  and  C_26
REMARK   12  A    between atoms: N_27  and  C_28
REMARK   13  A    between atoms: C_28  and  C_29
REMARK   14  A    between atoms: C_32  and  O_35
REMARK   15  A    between atoms: O_35  and  C_36
REMARK                            x       y       z     vdW  Elec       q    Type
REMARK                         _______ _______ _______ _____ _____    ______ ____
ROOT
ATOM      1  N   UNL     1       0.794  -2.020   0.931  0.00  0.00    -0.295 N 
ATOM      2  C   UNL     1      -0.103  -2.704   1.687  0.00  0.00    +0.109 A 
ATOM      3  C   UNL     1      -0.074  -4.107   1.734  0.00  0.00    +0.019 A 
ATOM      4  C   UNL     1       0.895  -4.803   0.991  0.00  0.00    -0.017 A 
ATOM      5  C   UNL     1       1.803  -4.079   0.224  0.00  0.00    +0.120 A 
ATOM      6  C   UNL     1       1.727  -2.663   0.206  0.00  0.00    +0.270 A 
ATOM      7  O   UNL     1       2.516  -2.023  -0.467  0.00  0.00    -0.266 OA
ATOM      8  C   UNL     1       0.949  -6.309   1.024  0.00  0.00    +0.046 C 
ENDROOT
BRANCH   3   9
ATOM      9  C   UNL     1      -1.043  -4.839   2.552  0.00  0.00    +0.032 C 
ATOM     10  C   UNL     1      -2.375  -4.708   2.308  0.00  0.00    +0.077 C 
ATOM     11  C   UNL     1      -3.478  -5.402   2.891  0.00  0.00    +0.259 C 
ATOM     12  O   UNL     1      -3.303  -6.256   3.742  0.00  0.00    -0.269 OA
ATOM     13  N   UNL     1      -4.695  -5.090   2.481  0.00  0.00    -0.252 N 
ATOM     14  C   UNL     1      -4.890  -4.143   1.537  0.00  0.00    +0.121 C 
ATOM     15  S   UNL     1      -6.362  -3.585   0.864  0.00  0.00    -0.027 S 
ATOM     16  S   UNL     1      -3.222  -3.614   1.175  0.00  0.00    -0.061 S 
BRANCH  13  17
ATOM     17  C   UNL     1      -5.851  -5.782   3.057  0.00  0.00    +0.080 C 
ATOM     18  C   UNL     1      -6.617  -6.506   1.948  0.00  0.00    +0.028 C 
BRANCH  17  19
ATOM     19  C   UNL     1      -6.771  -4.763   3.731  0.00  0.00    +0.019 C 
ATOM     20  C   UNL     1      -6.046  -4.128   4.919  0.00  0.00    +0.006 C 
ENDBRANCH  17  19
ENDBRANCH  13  17
ENDBRANCH   3   9
BRANCH   5  21
ATOM     21  C   UNL     1       2.802  -4.758  -0.545  0.00  0.00    +0.105 C 
ATOM     22  N   UNL     1       3.595  -5.297  -1.155  0.00  0.00    -0.191 NA
ENDBRANCH   5  21
BRANCH   2  23
ATOM     23  N   UNL     1      -1.041  -2.022   2.406  0.00  0.00    -0.326 N 
ATOM     24  H   UNL     1      -1.877  -1.760   1.989  0.00  0.00    +0.148 HD
BRANCH  23  25
ATOM     25  C   UNL     1      -0.786  -1.685   3.809  0.00  0.00    +0.138 C 
BRANCH  25  26
ATOM     26  C   UNL     1      -1.874  -0.772   4.312  0.00  0.00    -0.030 A 
ATOM     27  C   UNL     1      -1.736   0.598   4.193  0.00  0.00    +0.009 A 
ATOM     28  C   UNL     1      -2.732   1.437   4.654  0.00  0.00    +0.046 A 
ATOM     29  C   UNL     1      -3.872   0.903   5.237  0.00  0.00    +0.120 A 
ATOM     30  C   UNL     1      -4.008  -0.472   5.356  0.00  0.00    +0.046 A 
ATOM     31  C   UNL     1      -3.012  -1.307   4.888  0.00  0.00    +0.009 A 
BRANCH  29  32
ATOM     32  O   UNL     1      -4.853   1.727   5.692  0.00  0.00    -0.495 OA
ATOM     33  C   UNL     1      -5.998   1.107   6.281  0.00  0.00    +0.277 C 
ENDBRANCH  29  32
ENDBRANCH  25  26
ENDBRANCH  23  25
ENDBRANCH   2  23
BRANCH   1  34
ATOM     34  C   UNL     1       0.741  -0.556   0.899  0.00  0.00    +0.126 C 
BRANCH  34  36
ATOM     35  C   UNL     1      -0.418   1.417  -0.103  0.00  0.00    +0.005 C 
ATOM     36  C   UNL     1      -0.273  -0.105  -0.154  0.00  0.00    +0.018 C 
ENDBRANCH  34  36
ENDBRANCH   1  34
TORSDOF 10
