REMARK  Name = ZINC14536403
REMARK  8 active torsions:
REMARK  status: ('A' for Active; 'I' for Inactive)
REMARK    1  A    between atoms: C_1  and  C_2
REMARK    2  A    between atoms: C_2  and  N_3
REMARK    3  A    between atoms: C_6  and  C_8
REMARK    4  A    between atoms: N_13  and  C_16
REMARK    5  A    between atoms: C_18  and  N_22
REMARK    6  A    between atoms: N_22  and  C_23
REMARK    7  A    between atoms: N_22  and  C_24
REMARK    8  A    between atoms: C_24  and  C_25
REMARK                            x       y       z     vdW  Elec       q    Type
REMARK                         _______ _______ _______ _____ _____    ______ ____
ROOT
ATOM      1  N   UNL     1       1.872   1.398  -3.064  0.00  0.00    -0.268 N 
ATOM      2  C   UNL     1       1.012   0.758  -3.874  0.00  0.00    +0.043 A 
ATOM      3  C   UNL     1       1.737   0.226  -4.888  0.00  0.00    +0.004 A 
ATOM      4  C   UNL     1       3.072   0.586  -4.639  0.00  0.00    +0.151 A 
ATOM      5  N   UNL     1       3.071   1.296  -3.524  0.00  0.00    -0.166 NA
ATOM      6  C   UNL     1       1.159  -0.580  -6.019  0.00  0.00    +0.024 C 
ATOM      7  C   UNL     1      -0.253  -1.028  -5.619  0.00  0.00    -0.064 C 
ATOM      8  C   UNL     1      -1.045   0.176  -5.103  0.00  0.00    -0.009 C 
ATOM      9  C   UNL     1      -0.483   0.619  -3.745  0.00  0.00    +0.054 C 
ENDROOT
BRANCH   4  10
ATOM     10  C   UNL     1       4.247   0.242  -5.466  0.00  0.00    +0.267 C 
ATOM     11  O   UNL     1       4.123  -0.502  -6.419  0.00  0.00    -0.268 OA
ATOM     12  N   UNL     1       5.456   0.755  -5.164  0.00  0.00    -0.294 N 
ATOM     13  C   UNL     1       6.621   0.499  -6.025  0.00  0.00    +0.123 C 
ATOM     14  C   UNL     1       7.285   1.839  -6.356  0.00  0.00    +0.103 C 
ATOM     15  N   UNL     1       7.580   2.557  -5.109  0.00  0.00    -0.302 NA
ATOM     16  C   UNL     1       6.349   2.882  -4.377  0.00  0.00    +0.103 C 
ATOM     17  C   UNL     1       5.645   1.590  -3.968  0.00  0.00    +0.123 C 
ATOM     18  C   UNL     1       8.371   3.767  -5.373  0.00  0.00    +0.105 C 
ENDBRANCH   4  10
BRANCH   7  19
ATOM     19  N   UNL     1      -0.936  -1.597  -6.789  0.00  0.00    +0.380 N 
ATOM     20  C   UNL     1      -0.151  -2.722  -7.315  0.00  0.00    -0.096 C 
ATOM     21  H   UNL     1      -1.028  -0.889  -7.502  0.00  0.00    -0.082 HD
BRANCH  19  22
ATOM     22  C   UNL     1      -2.269  -2.072  -6.395  0.00  0.00    -0.072 C 
BRANCH  22  23
ATOM     23  C   UNL     1      -3.034  -2.531  -7.638  0.00  0.00    -0.043 C 
ATOM     24  C   UNL     1      -2.745  -1.575  -8.797  0.00  0.00    +0.008 C 
ATOM     25  C   UNL     1      -3.511  -2.034 -10.039  0.00  0.00    -0.010 C 
ATOM     26  C   UNL     1      -5.012  -2.036  -9.742  0.00  0.00    +0.007 C 
ATOM     27  C   UNL     1      -5.301  -2.992  -8.582  0.00  0.00    -0.010 C 
ATOM     28  C   UNL     1      -4.535  -2.533  -7.340  0.00  0.00    +0.008 C 
ATOM     29  C   UNL     1      -4.855  -4.405  -8.963  0.00  0.00    +0.007 C 
ATOM     30  C   UNL     1      -3.354  -4.403  -9.261  0.00  0.00    -0.010 C 
ATOM     31  C   UNL     1      -3.065  -3.447 -10.420  0.00  0.00    +0.007 C 
ATOM     32  C   UNL     1      -2.588  -3.944  -8.018  0.00  0.00    +0.008 C 
ENDBRANCH  22  23
ENDBRANCH  19  22
ENDBRANCH   7  19
BRANCH   1  34
ATOM     33  C   UNL     1       1.181   3.571  -2.179  0.00  0.00    +0.029 C 
ATOM     34  C   UNL     1       1.500   2.113  -1.841  0.00  0.00    +0.140 C 
ENDBRANCH   1  34
TORSDOF 5
