REMARK  Name = ZINC36602520
REMARK  16 active torsions:
REMARK  status: ('A' for Active; 'I' for Inactive)
REMARK    1  A    between atoms: C_1  and  C_2
REMARK    2  A    between atoms: C_5  and  C_7
REMARK    3  A    between atoms: C_7  and  N_8
REMARK    4  A    between atoms: N_8  and  C_9
REMARK    5  A    between atoms: C_9  and  C_11
REMARK    6  A    between atoms: C_9  and  C_18
REMARK    7  A    between atoms: C_14  and  O_17
REMARK    8  A    between atoms: N_20  and  C_21
REMARK    9  A    between atoms: C_21  and  C_22
REMARK   10  A    between atoms: C_21  and  C_23
REMARK   11  A    between atoms: C_21  and  C_24
REMARK   12  A    between atoms: C_24  and  C_25
REMARK   13  A    between atoms: C_25  and  C_26
REMARK   14  A    between atoms: C_25  and  C_27
REMARK   15  A    between atoms: C_25  and  C_28
REMARK   16  A    between atoms: C_29  and  C_31
REMARK                            x       y       z     vdW  Elec       q    Type
REMARK                         _______ _______ _______ _____ _____    ______ ____
ROOT
ATOM      1  C   UNL     1       2.347  -3.100  -2.393  0.00  0.00    +0.193 C 
ENDROOT
BRANCH   1   2
ATOM      2  C   UNL     1       3.558  -3.882  -1.956  0.00  0.00    -0.018 A 
ATOM      3  C   UNL     1       3.905  -3.926  -0.618  0.00  0.00    +0.009 A 
ATOM      4  C   UNL     1       5.016  -4.643  -0.215  0.00  0.00    +0.046 A 
ATOM      5  C   UNL     1       5.782  -5.318  -1.153  0.00  0.00    +0.117 A 
ATOM      6  C   UNL     1       5.432  -5.272  -2.495  0.00  0.00    +0.046 A 
ATOM      7  C   UNL     1       4.318  -4.559  -2.892  0.00  0.00    +0.009 A 
BRANCH   5   8
ATOM      8  O   UNL     1       6.875  -6.023  -0.759  0.00  0.00    -0.507 OA
ATOM      9  H   UNL     1       6.690  -6.946  -0.538  0.00  0.00    +0.292 HD
ENDBRANCH   5   8
ENDBRANCH   1   2
BRANCH   1  10
ATOM     10  C   UNL     1       2.777  -1.743  -2.888  0.00  0.00    +0.239 C 
ATOM     11  O   UNL     1       2.381  -0.741  -2.330  0.00  0.00    -0.273 OA
ATOM     12  N   UNL     1       3.601  -1.643  -3.950  0.00  0.00    -0.308 N 
ATOM     13  H   UNL     1       3.917  -2.444  -4.395  0.00  0.00    +0.149 HD
BRANCH  12  14
ATOM     14  C   UNL     1       4.019  -0.323  -4.431  0.00  0.00    +0.030 C 
ATOM     15  C   UNL     1       2.834   0.373  -5.104  0.00  0.00    +0.031 C 
ATOM     16  C   UNL     1       4.502   0.521  -3.249  0.00  0.00    +0.031 C 
BRANCH  14  17
ATOM     17  C   UNL     1       5.157  -0.486  -5.441  0.00  0.00    +0.031 C 
BRANCH  17  18
ATOM     18  C   UNL     1       6.135  -1.550  -4.939  0.00  0.00    -0.036 C 
ATOM     19  C   UNL     1       5.457  -2.921  -4.971  0.00  0.00    +0.010 C 
ATOM     20  C   UNL     1       7.371  -1.571  -5.841  0.00  0.00    +0.010 C 
ATOM     21  C   UNL     1       6.556  -1.221  -3.506  0.00  0.00    +0.010 C 
ENDBRANCH  17  18
ENDBRANCH  14  17
ENDBRANCH  12  14
ENDBRANCH   1  10
BRANCH   1  22
ATOM     22  N   UNL     1       1.434  -2.939  -1.259  0.00  0.00    -0.275 N 
ATOM     23  C   UNL     1       0.814  -4.015  -0.735  0.00  0.00    +0.249 C 
ATOM     24  O   UNL     1       0.103  -3.890   0.243  0.00  0.00    -0.270 OA
BRANCH  23  25
ATOM     25  C   UNL     1       0.999  -5.346  -1.349  0.00  0.00    +0.055 A 
ATOM     26  C   UNL     1       1.876  -5.507  -2.423  0.00  0.00    +0.014 A 
ATOM     27  C   UNL     1       2.045  -6.752  -2.992  0.00  0.00    +0.001 A 
ATOM     28  C   UNL     1       1.347  -7.842  -2.500  0.00  0.00    +0.001 A 
ATOM     29  C   UNL     1       0.476  -7.691  -1.437  0.00  0.00    +0.021 A 
ATOM     30  C   UNL     1       0.302  -6.451  -0.854  0.00  0.00    +0.053 A 
ATOM     31 CL   UNL     1      -0.785  -6.264   0.487  0.00  0.00    -0.083 Cl
ENDBRANCH  23  25
BRANCH  22  32
ATOM     32  C   UNL     1       1.194  -1.609  -0.694  0.00  0.00    +0.183 C 
BRANCH  32  37
ATOM     33  C   UNL     1      -1.282   1.282  -4.004  0.00  0.00    +0.086 C 
ATOM     34  C   UNL     1      -1.008   0.316  -2.880  0.00  0.00    +0.102 A 
ATOM     35  C   UNL     1      -1.938  -0.299  -2.127  0.00  0.00    +0.045 A 
ATOM     36  C   UNL     1      -1.244  -1.109  -1.200  0.00  0.00    +0.046 A 
ATOM     37  C   UNL     1       0.068  -0.941  -1.441  0.00  0.00    +0.122 A 
ATOM     38  O   UNL     1       0.205  -0.081  -2.463  0.00  0.00    -0.463 OA
ENDBRANCH  32  37
ENDBRANCH  22  32
ENDBRANCH   1  22
TORSDOF 10
