REMARK  Name = ZINC36425583
REMARK  8 active torsions:
REMARK  status: ('A' for Active; 'I' for Inactive)
REMARK    1  A    between atoms: C_1  and  C_2
REMARK    2  A    between atoms: C_6  and  C_13
REMARK    3  A    between atoms: C_13  and  O_14
REMARK    4  A    between atoms: O_14  and  C_15
REMARK    5  A    between atoms: C_15  and  C_17
REMARK    6  A    between atoms: N_21  and  C_23
REMARK    7  A    between atoms: C_27  and  C_30
REMARK    8  A    between atoms: C_28  and  C_29
REMARK                            x       y       z     vdW  Elec       q    Type
REMARK                         _______ _______ _______ _____ _____    ______ ____
ROOT
ATOM      1  C   UNL     1       0.347  -7.234  -2.581  0.00  0.00    +0.312 C 
ATOM      2  O   UNL     1       1.236  -6.889  -3.324  0.00  0.00    -0.250 OA
ENDROOT
BRANCH   1   3
ATOM      3  C   UNL     1      -0.205  -8.633  -2.665  0.00  0.00    +0.124 C 
ATOM      4  C   UNL     1       0.146  -9.444  -1.396  0.00  0.00    +0.112 C 
ATOM      5  C   UNL     1       0.418 -10.840  -1.912  0.00  0.00    +0.217 C 
ATOM      6  O   UNL     1       0.455 -11.839  -1.226  0.00  0.00    -0.276 OA
ATOM      7  N   UNL     1       0.614 -10.812  -3.242  0.00  0.00    -0.297 N 
ATOM      8  C   UNL     1       0.511  -9.445  -3.767  0.00  0.00    +0.123 C 
BRANCH   7   9
ATOM      9  C   UNL     1       0.893 -11.993  -4.061  0.00  0.00    +0.079 C 
ATOM     10  C   UNL     1      -0.105 -12.058  -5.220  0.00  0.00    +0.023 C 
ATOM     11  C   UNL     1       0.186 -13.292  -6.076  0.00  0.00    +0.002 C 
ATOM     12  C   UNL     1       1.609 -13.202  -6.632  0.00  0.00    +0.003 C 
ATOM     13  C   UNL     1       2.607 -13.137  -5.474  0.00  0.00    -0.009 C 
ATOM     14  C   UNL     1       2.315 -11.903  -4.618  0.00  0.00    +0.009 C 
ATOM     15  C   UNL     1       2.448 -10.644  -5.477  0.00  0.00    +0.009 C 
ATOM     16  C   UNL     1       4.029 -13.048  -6.031  0.00  0.00    +0.008 C 
ENDBRANCH   7   9
ENDBRANCH   1   3
BRANCH   1  17
ATOM     17  O   UNL     1      -0.148  -6.370  -1.680  0.00  0.00    -0.460 OA
BRANCH  17  18
ATOM     18  C   UNL     1       0.423  -5.060  -1.656  0.00  0.00    +0.268 C 
BRANCH  18  24
ATOM     19  C   UNL     1       1.252   1.211   0.396  0.00  0.00    +0.044 C 
ATOM     20  C   UNL     1       0.855  -0.220   0.138  0.00  0.00    -0.047 A 
ATOM     21  C   UNL     1       1.502  -0.945  -0.852  0.00  0.00    +0.004 A 
ATOM     22  C   UNL     1       1.156  -2.243  -1.100  0.00  0.00    +0.012 A 
ATOM     23  C   UNL     1       0.142  -2.845  -0.349  0.00  0.00    +0.024 A 
ATOM     24  C   UNL     1      -0.253  -4.237  -0.590  0.00  0.00    +0.007 A 
ATOM     25  C   UNL     1      -1.244  -4.763   0.173  0.00  0.00    +0.099 A 
ATOM     26  C   UNL     1      -1.862  -3.970   1.165  0.00  0.00    +0.338 A 
ATOM     27  O   UNL     1      -2.750  -4.454   1.843  0.00  0.00    -0.245 OA
ATOM     28  O   UNL     1      -1.495  -2.698   1.379  0.00  0.00    -0.422 OA
ATOM     29  C   UNL     1      -0.516  -2.114   0.655  0.00  0.00    +0.140 A 
ATOM     30  C   UNL     1      -0.144  -0.797   0.893  0.00  0.00    +0.050 A 
ENDBRANCH  18  24
ENDBRANCH  17  18
ENDBRANCH   1  17
TORSDOF 5
