REMARK  Name = ZINC09291872
REMARK  9 active torsions:
REMARK  status: ('A' for Active; 'I' for Inactive)
REMARK    1  A    between atoms: C_1  and  N_2
REMARK    2  A    between atoms: N_2  and  C_3
REMARK    3  A    between atoms: N_2  and  C_28
REMARK    4  A    between atoms: C_3  and  C_4
REMARK    5  A    between atoms: C_5  and  C_15
REMARK    6  A    between atoms: N_17  and  N_18
REMARK    7  A    between atoms: C_19  and  C_20
REMARK    8  A    between atoms: C_23  and  S_26
REMARK    9  A    between atoms: S_26  and  C_27
REMARK                            x       y       z     vdW  Elec       q    Type
REMARK                         _______ _______ _______ _____ _____    ______ ____
ROOT
ATOM      1  C   UNL     1       5.300  -3.168   3.502  0.00  0.00    +0.096 A 
ATOM      2  C   UNL     1       6.587  -3.192   3.959  0.00  0.00    +0.174 A 
ATOM      3  N   UNL     1       7.083  -1.944   3.900  0.00  0.00    -0.124 NA
ATOM      4  N   UNL     1       6.184  -1.143   3.443  0.00  0.00    -0.058 NA
ATOM      5  N   UNL     1       5.026  -1.886   3.175  0.00  0.00    -0.190 N 
ATOM      6  C   UNL     1       3.818  -1.394   2.666  0.00  0.00    +0.240 A 
ATOM      7  C   UNL     1       3.308  -1.609   1.309  0.00  0.00    +0.206 A 
ATOM      8  N   UNL     1       2.158  -1.001   1.202  0.00  0.00    -0.032 NA
ATOM      9  O   UNL     1       1.877  -0.382   2.445  0.00  0.00    -0.239 OA
ATOM     10  N   UNL     1       2.953  -0.671   3.320  0.00  0.00    -0.027 NA
ATOM     11  N   UNL     1       3.941  -2.336   0.307  0.00  0.00    -0.337 N 
ATOM     12  H   UNL     1       4.799  -2.755   0.480  0.00  0.00    +0.144 HD
ATOM     13  H   UNL     1       3.525  -2.425  -0.565  0.00  0.00    +0.144 HD
ENDROOT
BRANCH   2  14
ATOM     14  C   UNL     1       7.311  -4.385   4.435  0.00  0.00    +0.285 C 
ATOM     15  O   UNL     1       6.724  -5.444   4.558  0.00  0.00    -0.267 OA
ATOM     16  N   UNL     1       8.622  -4.304   4.734  0.00  0.00    -0.202 N 
ATOM     17  H   UNL     1       9.090  -3.460   4.636  0.00  0.00    +0.178 HD
BRANCH  16  18
ATOM     18  N   UNL     1       9.310  -5.438   5.186  0.00  0.00    -0.187 NA
ATOM     19  C   UNL     1      10.573  -5.359   5.474  0.00  0.00    +0.138 C 
BRANCH  19  20
ATOM     20  C   UNL     1      11.296  -6.551   5.950  0.00  0.00    -0.005 A 
ATOM     21  C   UNL     1      10.622  -7.767   6.097  0.00  0.00    +0.010 A 
ATOM     22  C   UNL     1      11.302  -8.881   6.537  0.00  0.00    +0.015 A 
ATOM     23  C   UNL     1      12.656  -8.795   6.845  0.00  0.00    +0.008 A 
ATOM     24  C   UNL     1      13.329  -7.585   6.705  0.00  0.00    +0.015 A 
ATOM     25  C   UNL     1      12.657  -6.468   6.261  0.00  0.00    +0.010 A 
BRANCH  23  26
ATOM     26  S   UNL     1      13.521 -10.221   7.413  0.00  0.00    -0.129 S 
ATOM     27  C   UNL     1      12.257 -11.522   7.432  0.00  0.00    +0.090 C 
ENDBRANCH  23  26
ENDBRANCH  19  20
ENDBRANCH  16  18
ENDBRANCH   2  14
BRANCH   1  28
ATOM     28  C   UNL     1       4.364  -4.344   3.389  0.00  0.00    +0.162 C 
BRANCH  28  30
ATOM     29  C   UNL     1       3.159  -3.770   5.547  0.00  0.00    +0.129 C 
ATOM     30  N   UNL     1       3.123  -4.051   4.109  0.00  0.00    -0.327 N 
BRANCH  30  31
ATOM     31  C   UNL     1       1.905  -4.039   3.426  0.00  0.00    +0.030 A 
ATOM     32  C   UNL     1       0.711  -3.965   4.132  0.00  0.00    +0.023 A 
ATOM     33  C   UNL     1      -0.492  -3.954   3.453  0.00  0.00    +0.002 A 
ATOM     34  C   UNL     1      -0.508  -4.017   2.072  0.00  0.00    +0.000 A 
ATOM     35  C   UNL     1       0.679  -4.090   1.366  0.00  0.00    +0.002 A 
ATOM     36  C   UNL     1       1.885  -4.102   2.038  0.00  0.00    +0.023 A 
ENDBRANCH  30  31
ENDBRANCH  28  30
ENDBRANCH   1  28
TORSDOF 7
