REMARK  Name = ZINC04978850
REMARK  10 active torsions:
REMARK  status: ('A' for Active; 'I' for Inactive)
REMARK    1  A    between atoms: C_1  and  C_2
REMARK    2  A    between atoms: C_2  and  C_3
REMARK    3  A    between atoms: C_2  and  C_4
REMARK    4  A    between atoms: C_2  and  C_5
REMARK    5  A    between atoms: C_12  and  N_32
REMARK    6  A    between atoms: C_13  and  C_30
REMARK    7  A    between atoms: C_14  and  C_16
REMARK    8  A    between atoms: C_19  and  O_22
REMARK    9  A    between atoms: O_22  and  C_23
REMARK   10  A    between atoms: C_23  and  C_24
REMARK                            x       y       z     vdW  Elec       q    Type
REMARK                         _______ _______ _______ _____ _____    ______ ____
ROOT
ATOM      1  C   UNL     1       0.687  -0.814  -2.054  0.00  0.00    +0.076 A 
ATOM      2  C   UNL     1       0.909  -2.184  -2.078  0.00  0.00    +0.050 A 
ATOM      3  C   UNL     1       1.537  -2.491  -3.253  0.00  0.00    +0.222 A 
ATOM      4  N   UNL     1       1.699  -1.348  -3.937  0.00  0.00    -0.246 N 
ATOM      5  H   UNL     1       2.115  -1.258  -4.809  0.00  0.00    +0.192 HD
ATOM      6  N   UNL     1       1.155  -0.306  -3.170  0.00  0.00    -0.175 NA
ATOM      7  O   UNL     1       1.897  -3.757  -3.581  0.00  0.00    -0.423 OA
ATOM      8  C   UNL     1       1.871  -4.687  -2.605  0.00  0.00    +0.200 C 
ATOM      9  C   UNL     1       1.271  -4.504  -1.408  0.00  0.00    +0.098 C 
ATOM     10  C   UNL     1       0.557  -3.225  -1.047  0.00  0.00    +0.101 C 
ENDROOT
BRANCH  10  11
ATOM     11  C   UNL     1      -0.932  -3.456  -1.045  0.00  0.00    -0.034 A 
ATOM     12  C   UNL     1      -1.599  -3.672  -2.236  0.00  0.00    +0.008 A 
ATOM     13  C   UNL     1      -2.964  -3.884  -2.237  0.00  0.00    +0.046 A 
ATOM     14  C   UNL     1      -3.666  -3.879  -1.040  0.00  0.00    +0.121 A 
ATOM     15  C   UNL     1      -2.995  -3.662   0.154  0.00  0.00    +0.046 A 
ATOM     16  C   UNL     1      -1.629  -3.456   0.150  0.00  0.00    +0.008 A 
BRANCH  14  17
ATOM     17  O   UNL     1      -5.009  -4.086  -1.038  0.00  0.00    -0.487 OA
BRANCH  17  18
ATOM     18  C   UNL     1      -5.666  -4.067   0.231  0.00  0.00    +0.264 C 
BRANCH  18  19
ATOM     19  C   UNL     1      -7.141  -4.313   0.036  0.00  0.00    -0.010 A 
ATOM     20  C   UNL     1      -7.997  -3.248  -0.170  0.00  0.00    +0.007 A 
ATOM     21  C   UNL     1      -9.350  -3.473  -0.348  0.00  0.00    +0.000 A 
ATOM     22  C   UNL     1      -9.845  -4.764  -0.321  0.00  0.00    +0.000 A 
ATOM     23  C   UNL     1      -8.988  -5.829  -0.115  0.00  0.00    +0.000 A 
ATOM     24  C   UNL     1      -7.635  -5.604   0.059  0.00  0.00    +0.007 A 
ENDBRANCH  18  19
ENDBRANCH  17  18
ENDBRANCH  14  17
ENDBRANCH  10  11
BRANCH   1  26
ATOM     25  C   UNL     1      -1.465  -0.405  -0.893  0.00  0.00    +0.017 C 
ATOM     26  C   UNL     1       0.021  -0.044  -0.943  0.00  0.00    +0.007 C 
ATOM     27  C   UNL     1       0.173   1.457  -1.200  0.00  0.00    +0.017 C 
ATOM     28  C   UNL     1       0.678  -0.403   0.391  0.00  0.00    +0.017 C 
ENDBRANCH   1  26
BRANCH   8  29
ATOM     29  N   UNL     1       2.491  -5.889  -2.841  0.00  0.00    -0.328 N 
ATOM     30  H   UNL     1       2.930  -6.050  -3.690  0.00  0.00    +0.145 HD
ATOM     31  H   UNL     1       2.489  -6.578  -2.158  0.00  0.00    +0.145 HD
ENDBRANCH   8  29
BRANCH   9  32
ATOM     32  C   UNL     1       1.314  -5.565  -0.446  0.00  0.00    +0.101 C 
ATOM     33  N   UNL     1       1.347  -6.406   0.316  0.00  0.00    -0.191 NA
ENDBRANCH   9  32
TORSDOF 7
