REMARK  Name = ZINC03408181
REMARK  9 active torsions:
REMARK  status: ('A' for Active; 'I' for Inactive)
REMARK    1  A    between atoms: C_7  and  N_12
REMARK    2  A    between atoms: C_8  and  C_10
REMARK    3  A    between atoms: C_13  and  C_15
REMARK    4  A    between atoms: C_15  and  O_16
REMARK    5  A    between atoms: O_16  and  C_17
REMARK    6  A    between atoms: C_17  and  C_19
REMARK    7  A    between atoms: C_24  and  N_25
REMARK    8  A    between atoms: N_25  and  S_26
REMARK    9  A    between atoms: S_26  and  C_29
REMARK                            x       y       z     vdW  Elec       q    Type
REMARK                         _______ _______ _______ _____ _____    ______ ____
ROOT
ATOM      1  C   UNL     1       2.968   2.709  -1.338  0.00  0.00    +0.341 C 
ATOM      2  O   UNL     1       3.325   3.638  -0.640  0.00  0.00    -0.245 OA
ENDROOT
BRANCH   1   3
ATOM      3  C   UNL     1       3.851   2.205  -2.403  0.00  0.00    +0.081 A 
ATOM      4  C   UNL     1       3.444   1.137  -3.208  0.00  0.00    +0.017 A 
ATOM      5  C   UNL     1       4.275   0.670  -4.202  0.00  0.00    +0.001 A 
ATOM      6  C   UNL     1       5.515   1.255  -4.411  0.00  0.00    +0.002 A 
ATOM      7  C   UNL     1       5.931   2.309  -3.626  0.00  0.00    +0.025 A 
ATOM      8  C   UNL     1       5.105   2.798  -2.621  0.00  0.00    +0.062 A 
BRANCH   8   9
ATOM      9  N   UNL     1       5.519   3.863  -1.833  0.00  0.00    -0.215 N 
ATOM     10  H   UNL     1       5.295   3.884  -0.889  0.00  0.00    +0.174 HD
BRANCH   9  11
ATOM     11  S   UNL     1       6.396   5.098  -2.503  0.00  0.00    +0.079 S 
ATOM     12  O   UNL     1       6.545   6.086  -1.493  0.00  0.00    -0.149 OA
ATOM     13  O   UNL     1       7.509   4.499  -3.153  0.00  0.00    -0.149 OA
BRANCH  11  14
ATOM     14  C   UNL     1       5.402   5.816  -3.768  0.00  0.00    +0.146 A 
ATOM     15  C   UNL     1       4.512   6.834  -3.679  0.00  0.00    +0.036 A 
ATOM     16  C   UNL     1       3.837   7.236  -4.816  0.00  0.00    +0.010 A 
ATOM     17  C   UNL     1       4.085   6.600  -5.987  0.00  0.00    +0.047 A 
ATOM     18  S   UNL     1       5.310   5.395  -5.501  0.00  0.00    -0.077 S 
ENDBRANCH  11  14
ENDBRANCH   9  11
ENDBRANCH   8   9
ENDBRANCH   1   3
BRANCH   1  19
ATOM     19  O   UNL     1       1.763   2.140  -1.136  0.00  0.00    -0.452 OA
BRANCH  19  20
ATOM     20  C   UNL     1       0.945   2.688  -0.069  0.00  0.00    +0.328 C 
BRANCH  20  22
ATOM     21  N   UNL     1      -1.281   2.271   0.926  0.00  0.00    -0.279 N 
ATOM     22  C   UNL     1      -0.356   1.931   0.006  0.00  0.00    +0.255 C 
ATOM     23  O   UNL     1      -0.573   1.020  -0.764  0.00  0.00    -0.272 OA
ATOM     24  H   UNL     1      -1.077   2.945   1.593  0.00  0.00    +0.155 HD
BRANCH  21  31
ATOM     25  C   UNL     1      -5.593   3.932   1.079  0.00  0.00    +0.001 A 
ATOM     26  C   UNL     1      -6.535   2.913   1.046  0.00  0.00    +0.004 A 
ATOM     27  C   UNL     1      -6.142   1.594   0.978  0.00  0.00    +0.047 A 
ATOM     28  C   UNL     1      -4.790   1.275   0.939  0.00  0.00    +0.139 A 
ATOM     29  C   UNL     1      -3.841   2.312   0.979  0.00  0.00    +0.043 A 
ATOM     30  C   UNL     1      -4.258   3.642   1.042  0.00  0.00    +0.013 A 
ATOM     31  C   UNL     1      -2.530   1.655   0.918  0.00  0.00    +0.098 A 
ATOM     32  C   UNL     1      -2.785   0.313   0.859  0.00  0.00    +0.226 A 
ATOM     33  O   UNL     1      -4.121   0.106   0.873  0.00  0.00    -0.443 OA
BRANCH  32  34
ATOM     34  C   UNL     1      -1.791  -0.716   0.793  0.00  0.00    +0.140 C 
ATOM     35  N   UNL     1      -1.002  -1.532   0.741  0.00  0.00    -0.188 NA
ENDBRANCH  32  34
ENDBRANCH  21  31
ENDBRANCH  20  22
ENDBRANCH  19  20
ENDBRANCH   1  19
TORSDOF 9
