REMARK  Name = ZINC40376766
REMARK  7 active torsions:
REMARK  status: ('A' for Active; 'I' for Inactive)
REMARK    1  A    between atoms: C_1  and  C_2
REMARK    2  A    between atoms: C_2  and  C_3
REMARK    3  A    between atoms: C_3  and  C_5
REMARK    4  A    between atoms: C_3  and  N_9
REMARK    5  A    between atoms: N_6  and  O_7
REMARK    6  A    between atoms: N_9  and  S_10
REMARK    7  A    between atoms: S_10  and  C_13
REMARK                            x       y       z     vdW  Elec       q    Type
REMARK                         _______ _______ _______ _____ _____    ______ ____
ROOT
ATOM      1  N   UNL     1       2.249  -0.121   1.026  0.00  0.00    -0.180 NA
ATOM      2  H   UNL     1       2.841  -0.645   0.464  0.00  0.00    +0.149 HD
ENDROOT
BRANCH   1   3
ATOM      3  S   UNL     1       2.841   1.176   1.868  0.00  0.00    +0.062 S 
ATOM      4  O   UNL     1       4.231   1.247   1.581  0.00  0.00    -0.153 OA
ATOM      5  O   UNL     1       1.956   2.260   1.621  0.00  0.00    -0.153 OA
BRANCH   3   6
ATOM      6  C   UNL     1       2.700   0.792   3.582  0.00  0.00    +0.142 A 
ATOM      7  C   UNL     1       1.548   1.124   4.273  0.00  0.00    +0.070 A 
ATOM      8  C   UNL     1       1.438   0.822   5.618  0.00  0.00    +0.037 A 
ATOM      9  C   UNL     1       2.478   0.189   6.273  0.00  0.00    +0.021 A 
ATOM     10  C   UNL     1       3.630  -0.142   5.583  0.00  0.00    +0.037 A 
ATOM     11  C   UNL     1       3.739   0.154   4.236  0.00  0.00    +0.070 A 
ATOM     12 CL   UNL     1       5.182  -0.268   3.368  0.00  0.00    -0.081 Cl
ATOM     13 BR   UNL     1       2.327  -0.223   8.113  0.00  0.00    -0.050 Br
ATOM     14 CL   UNL     1       0.242   1.919   3.451  0.00  0.00    -0.081 Cl
ENDBRANCH   3   6
ENDBRANCH   1   3
BRANCH   1  15
ATOM     15  C   UNL     1       0.832  -0.476   1.130  0.00  0.00    +0.142 C 
BRANCH  15  16
ATOM     16  C   UNL     1       0.658  -1.545   2.178  0.00  0.00    +0.150 C 
ATOM     17  N   UNL     1      -0.475  -1.677   2.784  0.00  0.00    -0.075 NA
ATOM     18  N   UNL     1       1.707  -2.381   2.490  0.00  0.00    -0.343 N 
ATOM     19  H   UNL     1       2.558  -2.283   2.035  0.00  0.00    +0.144 HD
ATOM     20  H   UNL     1       1.595  -3.069   3.165  0.00  0.00    +0.144 HD
BRANCH  17  21
ATOM     21  O   UNL     1      -0.639  -2.681   3.769  0.00  0.00    -0.408 OA
ATOM     22  H   UNL     1      -1.520  -2.702   4.167  0.00  0.00    +0.328 HD
ENDBRANCH  17  21
ENDBRANCH  15  16
BRANCH  15  24
ATOM     23  C   UNL     1       0.396   0.123  -1.256  0.00  0.00    +0.006 C 
ATOM     24  C   UNL     1       0.337  -1.001  -0.220  0.00  0.00    +0.025 C 
ENDBRANCH  15  24
ENDBRANCH   1  15
TORSDOF 6
