REMARK  Name = ZINC18067558
REMARK  5 active torsions:
REMARK  status: ('A' for Active; 'I' for Inactive)
REMARK    1  A    between atoms: C_1  and  C_2
REMARK    2  A    between atoms: C_2  and  C_4
REMARK    3  A    between atoms: C_2  and  O_23
REMARK    4  A    between atoms: C_4  and  N_5
REMARK    5  A    between atoms: C_8  and  C_17
REMARK                            x       y       z     vdW  Elec       q    Type
REMARK                         _______ _______ _______ _____ _____    ______ ____
ROOT
ATOM      1  N   UNL     1       0.762  -1.976   1.234  0.00  0.00    -0.381 N 
ATOM      2  C   UNL     1       1.889  -2.616   1.022  0.00  0.00    +0.050 A 
ATOM      3  C   UNL     1       3.176  -1.912   0.901  0.00  0.00    +0.072 A 
ATOM      4  C   UNL     1       4.316  -2.646   0.946  0.00  0.00    +0.138 A 
ATOM      5  O   UNL     1       4.316  -3.978   1.110  0.00  0.00    -0.455 OA
ATOM      6  C   UNL     1       3.198  -4.715   0.939  0.00  0.00    +0.138 A 
ATOM      7  C   UNL     1       1.943  -4.094   0.896  0.00  0.00    +0.042 A 
ATOM      8  C   UNL     1       0.788  -4.849   0.733  0.00  0.00    +0.033 A 
ATOM      9  C   UNL     1       0.884  -6.222   0.615  0.00  0.00    +0.042 A 
ATOM     10  C   UNL     1       2.126  -6.839   0.659  0.00  0.00    +0.023 A 
ATOM     11  C   UNL     1       3.274  -6.096   0.811  0.00  0.00    +0.048 A 
ATOM     12 CL   UNL     1      -0.551  -7.177   0.412  0.00  0.00    -0.084 Cl
ATOM     13  H   UNL     1      -0.079  -2.459   1.228  0.00  0.00    +0.160 HD
ENDROOT
BRANCH   4  14
ATOM     14  C   UNL     1       5.611  -1.951   0.807  0.00  0.00    +0.017 A 
ATOM     15  C   UNL     1       5.649  -0.565   0.640  0.00  0.00    +0.011 A 
ATOM     16  C   UNL     1       6.863   0.078   0.511  0.00  0.00    +0.001 A 
ATOM     17  C   UNL     1       8.041  -0.647   0.547  0.00  0.00    +0.000 A 
ATOM     18  C   UNL     1       8.011  -2.020   0.712  0.00  0.00    +0.001 A 
ATOM     19  C   UNL     1       6.804  -2.675   0.848  0.00  0.00    +0.011 A 
ENDBRANCH   4  14
BRANCH   1  20
ATOM     20  C   UNL     1       0.775  -0.531   1.479  0.00  0.00    +0.143 C 
BRANCH  20  22
ATOM     21  C   UNL     1       0.077   1.696   0.587  0.00  0.00    +0.039 C 
ATOM     22  C   UNL     1       0.063   0.187   0.331  0.00  0.00    +0.130 C 
BRANCH  22  23
ATOM     23  O   UNL     1       0.737  -0.093  -0.898  0.00  0.00    -0.390 OA
ATOM     24  H   UNL     1       1.661   0.190  -0.913  0.00  0.00    +0.210 HD
ENDBRANCH  22  23
ENDBRANCH  20  22
ENDBRANCH   1  20
TORSDOF 4
