REMARK  Name = ZINC12605399
REMARK  7 active torsions:
REMARK  status: ('A' for Active; 'I' for Inactive)
REMARK    1  A    between atoms: C_1  and  N_2
REMARK    2  A    between atoms: N_2  and  S_3
REMARK    3  A    between atoms: S_3  and  C_6
REMARK    4  A    between atoms: C_9  and  C_12
REMARK    5  A    between atoms: C_13  and  C_14
REMARK    6  A    between atoms: N_16  and  C_17
REMARK    7  A    between atoms: C_20  and  C_23
REMARK                            x       y       z     vdW  Elec       q    Type
REMARK                         _______ _______ _______ _____ _____    ______ ____
ROOT
ATOM      1  C   UNL     1      -5.801  -0.287   6.545  0.00  0.00    +0.241 C 
ATOM      2  O   UNL     1      -5.747   0.490   7.479  0.00  0.00    -0.270 OA
ATOM      3  N   UNL     1      -6.481  -1.444   6.670  0.00  0.00    -0.282 N 
ATOM      4  H   UNL     1      -6.589  -2.029   5.903  0.00  0.00    +0.155 HD
ENDROOT
BRANCH   3   5
ATOM      5  C   UNL     1      -7.028  -1.802   7.900  0.00  0.00    +0.034 A 
ATOM      6  C   UNL     1      -8.227  -2.507   7.948  0.00  0.00    +0.024 A 
ATOM      7  C   UNL     1      -8.768  -2.866   9.162  0.00  0.00    +0.015 A 
ATOM      8  C   UNL     1      -8.117  -2.512  10.347  0.00  0.00    +0.037 A 
ATOM      9  C   UNL     1      -6.916  -1.799  10.295  0.00  0.00    +0.015 A 
ATOM     10  C   UNL     1      -6.378  -1.448   9.078  0.00  0.00    +0.024 A 
BRANCH   8  11
ATOM     11  C   UNL     1      -8.696  -2.891  11.650  0.00  0.00    +0.242 C 
ATOM     12  O   UNL     1      -8.129  -2.583  12.681  0.00  0.00    -0.270 OA
ATOM     13  N   UNL     1      -9.855  -3.579  11.699  0.00  0.00    -0.325 N 
ATOM     14  H   UNL     1     -10.307  -3.824  10.877  0.00  0.00    +0.145 HD
ATOM     15  H   UNL     1     -10.236  -3.828  12.555  0.00  0.00    +0.145 HD
ENDBRANCH   8  11
ENDBRANCH   3   5
BRANCH   1  17
ATOM     16  C   UNL     1      -4.448   1.191   5.160  0.00  0.00    +0.013 C 
ATOM     17  C   UNL     1      -5.128   0.034   5.285  0.00  0.00    +0.068 C 
BRANCH  16  21
ATOM     18  C   UNL     1      -2.498   2.123   1.510  0.00  0.00    +0.105 A 
ATOM     19  C   UNL     1      -3.200   0.936   1.632  0.00  0.00    +0.029 A 
ATOM     20  C   UNL     1      -3.832   0.624   2.818  0.00  0.00    +0.010 A 
ATOM     21  C   UNL     1      -3.771   1.514   3.894  0.00  0.00    -0.025 A 
ATOM     22  C   UNL     1      -3.065   2.714   3.761  0.00  0.00    +0.010 A 
ATOM     23  C   UNL     1      -2.434   3.010   2.571  0.00  0.00    +0.029 A 
BRANCH  18  24
ATOM     24  S   UNL     1      -1.690   2.510  -0.007  0.00  0.00    +0.058 S 
ATOM     25  O   UNL     1      -1.565   3.925  -0.051  0.00  0.00    -0.153 OA
ATOM     26  O   UNL     1      -2.355   1.772  -1.022  0.00  0.00    -0.153 OA
BRANCH  24  28
ATOM     27  C   UNL     1       0.060   0.456   0.176  0.00  0.00    +0.127 C 
ATOM     28  N   UNL     1      -0.152   1.903   0.089  0.00  0.00    -0.193 NA
ATOM     29  H   UNL     1       0.608   2.505   0.084  0.00  0.00    +0.148 HD
ENDBRANCH  24  28
ENDBRANCH  18  24
ENDBRANCH  16  21
ENDBRANCH   1  17
TORSDOF 6
