REMARK  Name = ZINC07287469
REMARK  3 active torsions:
REMARK  status: ('A' for Active; 'I' for Inactive)
REMARK    1  A    between atoms: C_4  and  C_7
REMARK    2  A    between atoms: C_13  and  C_15
REMARK    3  A    between atoms: C_15  and  N_16
REMARK                            x       y       z     vdW  Elec       q    Type
REMARK                         _______ _______ _______ _____ _____    ______ ____
ROOT
ATOM      1  C   UNL     1       1.133   1.713   0.000  0.00  0.00    -0.041 C 
ATOM      2  C   UNL     1      -0.013   1.076   0.008  0.00  0.00    -0.004 C 
ATOM      3  C   UNL     1      -1.346   1.770   0.018  0.00  0.00    +0.135 C 
ATOM      4  N   UNL     1      -1.142   3.200   0.296  0.00  0.00    -0.296 N 
ATOM      5  C   UNL     1      -0.036   3.871  -0.409  0.00  0.00    +0.113 C 
ATOM      6  C   UNL     1       1.273   3.206   0.025  0.00  0.00    +0.054 C 
ATOM      7  C   UNL     1      -1.935   3.871   1.155  0.00  0.00    +0.234 C 
ATOM      8  O   UNL     1      -1.744   5.051   1.361  0.00  0.00    -0.274 OA
ENDROOT
BRANCH   1  12
ATOM      9  C   UNL     1       4.689  -0.608  -0.098  0.00  0.00    +0.000 A 
ATOM     10  C   UNL     1       3.818  -0.637  -1.172  0.00  0.00    +0.001 A 
ATOM     11  C   UNL     1       2.661   0.115  -1.146  0.00  0.00    +0.008 A 
ATOM     12  C   UNL     1       2.371   0.905  -0.034  0.00  0.00    -0.022 A 
ATOM     13  C   UNL     1       3.257   0.935   1.044  0.00  0.00    +0.008 A 
ATOM     14  C   UNL     1       4.407   0.173   1.008  0.00  0.00    +0.001 A 
ENDBRANCH   1  12
BRANCH   7  15
ATOM     15  C   UNL     1      -3.058   3.154   1.860  0.00  0.00    +0.213 C 
BRANCH  15  16
ATOM     16  N   UNL     1      -3.765   4.094   2.733  0.00  0.00    -0.215 N 
ATOM     17  C   UNL     1      -4.822   4.839   2.346  0.00  0.00    +0.247 C 
ATOM     18  O   UNL     1      -5.347   4.856   1.254  0.00  0.00    -0.273 OA
ATOM     19  C   UNL     1      -5.214   5.646   3.563  0.00  0.00    +0.113 C 
ATOM     20  C   UNL     1      -6.636   5.302   3.993  0.00  0.00    +0.035 C 
ATOM     21  C   UNL     1      -7.003   6.108   5.241  0.00  0.00    +0.003 C 
ATOM     22  C   UNL     1      -6.893   7.603   4.933  0.00  0.00    +0.000 C 
ATOM     23  C   UNL     1      -5.455   7.936   4.527  0.00  0.00    +0.003 C 
ATOM     24  C   UNL     1      -5.082   7.137   3.276  0.00  0.00    +0.035 C 
ATOM     25  N   UNL     1      -4.251   5.231   4.591  0.00  0.00    -0.285 N 
ATOM     26  C   UNL     1      -3.447   4.317   4.014  0.00  0.00    +0.310 C 
ATOM     27  O   UNL     1      -2.534   3.760   4.590  0.00  0.00    -0.252 OA
ATOM     28  H   UNL     1      -4.205   5.550   5.506  0.00  0.00    +0.151 HD
ENDBRANCH  15  16
ENDBRANCH   7  15
TORSDOF 3
