REMARK  Name = ZINC64703181
REMARK  7 active torsions:
REMARK  status: ('A' for Active; 'I' for Inactive)
REMARK    1  A    between atoms: C_1  and  C_2
REMARK    2  A    between atoms: C_2  and  C_3
REMARK    3  A    between atoms: C_6  and  C_9
REMARK    4  A    between atoms: C_17  and  S_21
REMARK    5  A    between atoms: S_21  and  C_22
REMARK    6  A    between atoms: C_22  and  C_23
REMARK    7  A    between atoms: C_28  and  C_31
REMARK                            x       y       z     vdW  Elec       q    Type
REMARK                         _______ _______ _______ _____ _____    ______ ____
ROOT
ATOM      1  C   UNL     1       3.054  -1.863  -4.752  0.00  0.00    +0.047 C 
ATOM      2  C   UNL     1       4.357  -2.172  -4.945  0.00  0.00    +0.027 C 
ATOM      3  C   UNL     1       4.419  -2.649  -6.371  0.00  0.00    +0.193 C 
ATOM      4  C   UNL     1       5.600  -2.201  -7.176  0.00  0.00    +0.276 C 
ATOM      5  O   UNL     1       6.679  -2.004  -6.669  0.00  0.00    -0.270 OA
ATOM      6  N   UNL     1       5.391  -2.030  -8.506  0.00  0.00    -0.081 NA
ATOM      7  N   UNL     1       4.283  -2.115  -9.041  0.00  0.00    -0.163 NA
ATOM      8  C   UNL     1       3.038  -2.373  -8.294  0.00  0.00    +0.272 C 
ATOM      9  N   UNL     1       3.237  -1.921  -6.937  0.00  0.00    -0.178 NA
ATOM     10  N   UNL     1       2.332  -2.106  -5.945  0.00  0.00    -0.274 N 
ATOM     11  H   UNL     1       1.397  -2.349  -6.032  0.00  0.00    +0.167 HD
ENDROOT
BRANCH   1  15
ATOM     12  C   UNL     1       1.385  -0.409  -1.124  0.00  0.00    -0.048 A 
ATOM     13  C   UNL     1       0.572  -0.605  -2.226  0.00  0.00    +0.004 A 
ATOM     14  C   UNL     1       1.108  -1.077  -3.407  0.00  0.00    +0.010 A 
ATOM     15  C   UNL     1       2.472  -1.356  -3.488  0.00  0.00    -0.003 A 
ATOM     16  C   UNL     1       3.286  -1.157  -2.373  0.00  0.00    +0.010 A 
ATOM     17  C   UNL     1       2.739  -0.680  -1.200  0.00  0.00    +0.004 A 
BRANCH  12  19
ATOM     18  C   UNL     1       0.839   1.636   0.168  0.00  0.00    +0.009 C 
ATOM     19  C   UNL     1       0.793   0.106   0.162  0.00  0.00    +0.032 C 
ENDBRANCH  12  19
ENDBRANCH   1  15
BRANCH   8  20
ATOM     20  S   UNL     1       2.680  -4.151  -8.284  0.00  0.00    -0.107 S 
BRANCH  20  21
ATOM     21  C   UNL     1       2.066  -4.484  -9.958  0.00  0.00    +0.168 C 
BRANCH  21  22
ATOM     22  C   UNL     1       1.674  -5.935 -10.070  0.00  0.00    +0.226 C 
ATOM     23  O   UNL     1       1.797  -6.672  -9.115  0.00  0.00    -0.275 OA
ATOM     24  N   UNL     1       1.187  -6.414 -11.232  0.00  0.00    -0.301 N 
ATOM     25  C   UNL     1       1.038  -5.535 -12.400  0.00  0.00    +0.108 C 
ATOM     26  C   UNL     1       1.761  -6.172 -13.591  0.00  0.00    +0.022 C 
ATOM     27  C   UNL     1       1.234  -7.593 -13.803  0.00  0.00    -0.011 C 
ATOM     28  C   UNL     1       1.520  -8.435 -12.557  0.00  0.00    +0.022 C 
ATOM     29  C   UNL     1       0.800  -7.826 -11.356  0.00  0.00    +0.108 C 
ATOM     30  C   UNL     1       1.929  -8.220 -15.013  0.00  0.00    +0.007 C 
ENDBRANCH  21  22
ENDBRANCH  20  21
ENDBRANCH   8  20
TORSDOF 5
