REMARK  Name = ZINC63385632
REMARK  14 active torsions:
REMARK  status: ('A' for Active; 'I' for Inactive)
REMARK    1  A    between atoms: C_1  and  C_2
REMARK    2  A    between atoms: C_7  and  O_36
REMARK    3  A    between atoms: C_8  and  O_32
REMARK    4  A    between atoms: C_13  and  C_15
REMARK    5  A    between atoms: C_15  and  C_16
REMARK    6  A    between atoms: N_18  and  C_19
REMARK    7  A    between atoms: C_19  and  C_20
REMARK    8  A    between atoms: C_20  and  C_21
REMARK    9  A    between atoms: C_24  and  O_30
REMARK   10  A    between atoms: O_30  and  C_31
REMARK   11  A    between atoms: O_32  and  C_33
REMARK   12  A    between atoms: C_33  and  C_35
REMARK   13  A    between atoms: O_36  and  C_37
REMARK   14  A    between atoms: C_37  and  C_39
REMARK                            x       y       z     vdW  Elec       q    Type
REMARK                         _______ _______ _______ _____ _____    ______ ____
ROOT
ATOM      1  C   UNL     1      -0.035   1.495   0.023  0.00  0.00    +0.013 C 
ATOM      2  C   UNL     1       0.028  -0.034   0.026  0.00  0.00    +0.034 C 
ATOM      3  C   UNL     1       0.724  -0.510  -1.224  0.00  0.00    +0.003 A 
ATOM      4  C   UNL     1       0.458   0.144  -2.417  0.00  0.00    +0.011 A 
ATOM      5  C   UNL     1       1.065  -0.259  -3.589  0.00  0.00    +0.051 A 
ATOM      6  C   UNL     1       1.950  -1.326  -3.580  0.00  0.00    +0.177 A 
ATOM      7  C   UNL     1       2.224  -1.984  -2.388  0.00  0.00    +0.216 A 
ATOM      8  C   UNL     1       1.611  -1.571  -1.205  0.00  0.00    +0.181 A 
ATOM      9  O   UNL     1       1.920  -2.229  -0.054  0.00  0.00    -0.421 OA
ATOM     10  C   UNL     1       1.176  -1.958   1.037  0.00  0.00    +0.317 C 
ATOM     11  O   UNL     1       0.829  -2.830   1.798  0.00  0.00    -0.250 OA
ATOM     12  C   UNL     1       0.797  -0.509   1.262  0.00  0.00    +0.114 C 
ENDROOT
BRANCH  12  13
ATOM     13  C   UNL     1       2.059   0.337   1.445  0.00  0.00    +0.111 C 
BRANCH  13  14
ATOM     14  C   UNL     1       2.745  -0.055   2.728  0.00  0.00    +0.214 C 
ATOM     15  O   UNL     1       2.271  -0.924   3.428  0.00  0.00    -0.276 OA
ATOM     16  N   UNL     1       3.885   0.561   3.098  0.00  0.00    -0.315 N 
ATOM     17  H   UNL     1       4.264   1.257   2.539  0.00  0.00    +0.149 HD
BRANCH  16  18
ATOM     18  C   UNL     1       4.552   0.181   4.346  0.00  0.00    +0.108 C 
BRANCH  18  19
ATOM     19  C   UNL     1       5.814   1.026   4.529  0.00  0.00    +0.052 C 
BRANCH  19  20
ATOM     20  C   UNL     1       6.499   0.635   5.812  0.00  0.00    -0.040 C 
ATOM     21  C   UNL     1       7.513  -0.249   5.956  0.00  0.00    +0.002 A 
ATOM     22  C   UNL     1       8.252  -1.079   4.999  0.00  0.00    +0.055 A 
ATOM     23  C   UNL     1       9.242  -1.890   5.444  0.00  0.00    +0.121 A 
ATOM     24  C   UNL     1       9.593  -1.968   6.803  0.00  0.00    +0.047 A 
ATOM     25  C   UNL     1       8.971  -1.244   7.758  0.00  0.00    +0.029 A 
ATOM     26  C   UNL     1       7.884  -0.333   7.387  0.00  0.00    +0.043 A 
ATOM     27  N   UNL     1       7.130   0.467   8.100  0.00  0.00    -0.380 N 
ATOM     28  C   UNL     1       6.197   1.155   7.200  0.00  0.00    +0.144 C 
ATOM     29  H   UNL     1       7.182   0.587   9.061  0.00  0.00    +0.160 HD
BRANCH  23  30
ATOM     30  O   UNL     1       9.919  -2.654   4.546  0.00  0.00    -0.495 OA
ATOM     31  C   UNL     1      10.954  -3.494   5.060  0.00  0.00    +0.277 C 
ENDBRANCH  23  30
ENDBRANCH  19  20
ENDBRANCH  18  19
ENDBRANCH  16  18
ENDBRANCH  13  14
ENDBRANCH  12  13
BRANCH   7  32
ATOM     32  O   UNL     1       3.090  -3.032  -2.373  0.00  0.00    -0.418 OA
BRANCH  32  33
ATOM     33  C   UNL     1       4.390  -2.772  -2.161  0.00  0.00    +0.309 C 
ATOM     34  O   UNL     1       4.760  -1.631  -1.990  0.00  0.00    -0.251 OA
ATOM     35  C   UNL     1       5.390  -3.900  -2.136  0.00  0.00    +0.136 C 
ENDBRANCH  32  33
ENDBRANCH   7  32
BRANCH   6  36
ATOM     36  O   UNL     1       2.547  -1.728  -4.734  0.00  0.00    -0.422 OA
BRANCH  36  37
ATOM     37  C   UNL     1       2.020  -2.778  -5.384  0.00  0.00    +0.309 C 
ATOM     38  O   UNL     1       0.988  -3.272  -4.996  0.00  0.00    -0.251 OA
ATOM     39  C   UNL     1       2.716  -3.339  -6.597  0.00  0.00    +0.136 C 
ENDBRANCH  36  37
ENDBRANCH   6  36
TORSDOF 10
