REMARK  Name = ZINC11963659
REMARK  9 active torsions:
REMARK  status: ('A' for Active; 'I' for Inactive)
REMARK    1  A    between atoms: C_1  and  C_2
REMARK    2  A    between atoms: C_2  and  C_3
REMARK    3  A    between atoms: C_3  and  C_14
REMARK    4  A    between atoms: N_6  and  C_10
REMARK    5  A    between atoms: C_10  and  C_11
REMARK    6  A    between atoms: C_11  and  C_13
REMARK    7  A    between atoms: C_20  and  C_22
REMARK    8  A    between atoms: C_25  and  C_34
REMARK    9  A    between atoms: C_26  and  N_28
REMARK                            x       y       z     vdW  Elec       q    Type
REMARK                         _______ _______ _______ _____ _____    ______ ____
ROOT
ATOM      1  C   UNL     1       5.078   9.354   2.399  0.00  0.00    +0.024 C 
ATOM      2  C   UNL     1       4.989   8.472   3.646  0.00  0.00    +0.025 C 
ATOM      3  C   UNL     1       3.591   7.851   3.729  0.00  0.00    +0.108 C 
ATOM      4  N   UNL     1       3.311   7.147   2.470  0.00  0.00    -0.298 N 
ATOM      5  C   UNL     1       3.460   7.877   1.204  0.00  0.00    +0.108 C 
ATOM      6  C   UNL     1       4.854   8.499   1.150  0.00  0.00    +0.025 C 
ATOM      7  C   UNL     1       2.929   5.854   2.477  0.00  0.00    +0.247 C 
ATOM      8  O   UNL     1       2.801   5.253   1.429  0.00  0.00    -0.270 OA
ENDROOT
BRANCH   1   9
ATOM      9  C   UNL     1       6.462  10.003   2.331  0.00  0.00    +0.115 C 
ATOM     10  C   UNL     1       7.549   8.949   2.402  0.00  0.00    +0.247 C 
ATOM     11  O   UNL     1       7.743   8.043   1.620  0.00  0.00    -0.273 OA
ATOM     12  N   UNL     1       8.255   9.229   3.515  0.00  0.00    -0.220 N 
ATOM     13  C   UNL     1       7.771  10.302   4.150  0.00  0.00    +0.310 C 
ATOM     14  O   UNL     1       8.241  10.749   5.178  0.00  0.00    -0.252 OA
ATOM     15  N   UNL     1       6.705  10.832   3.523  0.00  0.00    -0.285 N 
ATOM     16  H   UNL     1       6.196  11.609   3.803  0.00  0.00    +0.151 HD
BRANCH   9  18
ATOM     17  C   UNL     1       7.993  11.472   1.011  0.00  0.00    +0.006 C 
ATOM     18  C   UNL     1       6.602  10.835   1.054  0.00  0.00    +0.032 C 
ENDBRANCH   9  18
BRANCH  12  19
ATOM     19  C   UNL     1       9.412   8.454   3.973  0.00  0.00    +0.148 C 
BRANCH  19  20
ATOM     20  C   UNL     1      10.669   9.027   3.372  0.00  0.00    -0.062 C 
ATOM     21  C   UNL     1      11.380   9.897   4.046  0.00  0.00    +0.009 C 
ATOM     22  C   UNL     1      11.110   8.599   1.996  0.00  0.00    +0.040 C 
ENDBRANCH  19  20
ENDBRANCH  12  19
ENDBRANCH   1   9
BRANCH   7  23
ATOM     23  C   UNL     1       2.667   5.167   3.760  0.00  0.00    +0.039 A 
ATOM     24  C   UNL     1       2.061   5.856   4.812  0.00  0.00    +0.013 A 
ATOM     25  C   UNL     1       1.817   5.213   6.008  0.00  0.00    +0.006 A 
ATOM     26  C   UNL     1       2.166   3.884   6.168  0.00  0.00    -0.029 A 
ATOM     27  C   UNL     1       2.775   3.192   5.128  0.00  0.00    +0.041 A 
ATOM     28  C   UNL     1       3.024   3.829   3.923  0.00  0.00    +0.037 A 
ATOM     29  C   UNL     1       1.891   3.187   7.475  0.00  0.00    +0.045 C 
BRANCH  27  30
ATOM     30  N   UNL     1       3.131   1.848   5.297  0.00  0.00    -0.254 N 
ATOM     31  C   UNL     1       4.426   1.367   5.800  0.00  0.00    +0.134 C 
ATOM     32  C   UNL     1       4.282  -0.167   5.783  0.00  0.00    +0.125 C 
ATOM     33  N   UNL     1       2.921  -0.387   5.272  0.00  0.00    -0.297 N 
ATOM     34  C   UNL     1       2.347   0.797   5.025  0.00  0.00    +0.307 C 
ATOM     35  O   UNL     1       1.216   0.908   4.593  0.00  0.00    -0.252 OA
ATOM     36  H   UNL     1       2.505  -1.253   5.136  0.00  0.00    +0.150 HD
ENDBRANCH  27  30
ENDBRANCH   7  23
TORSDOF 6
