REMARK  Name = ZINC13016869
REMARK  10 active torsions:
REMARK  status: ('A' for Active; 'I' for Inactive)
REMARK    1  A    between atoms: C_1  and  C_2
REMARK    2  A    between atoms: C_2  and  C_4
REMARK    3  A    between atoms: C_2  and  S_14
REMARK    4  A    between atoms: N_9  and  C_10
REMARK    5  A    between atoms: C_10  and  C_11
REMARK    6  A    between atoms: C_10  and  C_12
REMARK    7  A    between atoms: C_10  and  C_13
REMARK    8  A    between atoms: S_14  and  C_15
REMARK    9  A    between atoms: C_19  and  C_33
REMARK   10  A    between atoms: N_25  and  C_26
REMARK                            x       y       z     vdW  Elec       q    Type
REMARK                         _______ _______ _______ _____ _____    ______ ____
ROOT
ATOM      1  C   UNL     1       2.705  -4.625  -0.225  0.00  0.00    +0.177 A 
ATOM      2  N   UNL     1       1.542  -5.079   0.173  0.00  0.00    -0.223 NA
ATOM      3  C   UNL     1       1.056  -6.264  -0.264  0.00  0.00    +0.080 A 
ATOM      4  C   UNL     1      -0.187  -6.743   0.158  0.00  0.00    +0.043 A 
ATOM      5  C   UNL     1      -0.642  -7.968  -0.313  0.00  0.00    +0.065 A 
ATOM      6  C   UNL     1       0.134  -8.720  -1.205  0.00  0.00    +0.016 A 
ATOM      7  C   UNL     1       1.350  -8.262  -1.624  0.00  0.00    +0.016 A 
ATOM      8  C   UNL     1       1.827  -7.035  -1.164  0.00  0.00    +0.065 A 
ATOM      9  C   UNL     1       3.132  -6.505  -1.590  0.00  0.00    +0.267 A 
ATOM     10  O   UNL     1       3.841  -7.122  -2.363  0.00  0.00    -0.267 OA
ATOM     11  N   UNL     1       3.514  -5.306  -1.092  0.00  0.00    -0.255 N 
ENDROOT
BRANCH  11  12
ATOM     12  C   UNL     1       4.748  -4.759  -1.467  0.00  0.00    +0.052 A 
ATOM     13  C   UNL     1       4.833  -3.936  -2.582  0.00  0.00    +0.029 A 
ATOM     14  C   UNL     1       6.050  -3.394  -2.948  0.00  0.00    +0.040 A 
ATOM     15  C   UNL     1       7.186  -3.679  -2.209  0.00  0.00    +0.124 A 
ATOM     16  C   UNL     1       7.104  -4.504  -1.100  0.00  0.00    +0.040 A 
ATOM     17  C   UNL     1       5.888  -5.044  -0.728  0.00  0.00    +0.029 A 
ATOM     18  F   UNL     1       8.376  -3.152  -2.572  0.00  0.00    -0.205 F 
ENDBRANCH  11  12
BRANCH   5  19
ATOM     19  C   UNL     1      -1.957  -8.482   0.129  0.00  0.00    +0.387 C 
ATOM     20  O   UNL     1      -2.634  -7.834   0.901  0.00  0.00    -0.241 OA
ATOM     21  O   UNL     1      -2.404  -9.669  -0.325  0.00  0.00    -0.241 OA
ENDBRANCH   5  19
BRANCH   1  22
ATOM     22  S   UNL     1       3.256  -3.069   0.392  0.00  0.00    -0.075 S 
BRANCH  22  24
ATOM     23  C   UNL     1       1.754  -3.636   2.602  0.00  0.00    +0.029 C 
ATOM     24  C   UNL     1       1.853  -2.635   1.449  0.00  0.00    +0.137 C 
BRANCH  24  25
ATOM     25  C   UNL     1       2.052  -1.248   2.004  0.00  0.00    +0.233 C 
ATOM     26  O   UNL     1       3.160  -0.758   2.028  0.00  0.00    -0.274 OA
ATOM     27  N   UNL     1       0.997  -0.553   2.474  0.00  0.00    -0.239 N 
ATOM     28  C   UNL     1       1.175   0.688   2.970  0.00  0.00    +0.306 C 
ATOM     29  O   UNL     1       2.287   1.179   2.994  0.00  0.00    -0.252 OA
ATOM     30  N   UNL     1       0.120   1.385   3.434  0.00  0.00    -0.294 N 
ATOM     31  H   UNL     1       0.110  -0.945   2.454  0.00  0.00    +0.159 HD
ATOM     32  H   UNL     1      -0.768   0.995   3.412  0.00  0.00    +0.151 HD
BRANCH  30  33
ATOM     33  C   UNL     1       0.313   2.734   3.974  0.00  0.00    +0.028 C 
ATOM     34  C   UNL     1       0.905   3.637   2.890  0.00  0.00    +0.031 C 
ATOM     35  C   UNL     1      -1.034   3.299   4.429  0.00  0.00    +0.031 C 
ATOM     36  C   UNL     1       1.270   2.674   5.166  0.00  0.00    +0.031 C 
ENDBRANCH  30  33
ENDBRANCH  24  25
ENDBRANCH  22  24
ENDBRANCH   1  22
TORSDOF 6
