REMARK  Name = ZINC61111341
REMARK  5 active torsions:
REMARK  status: ('A' for Active; 'I' for Inactive)
REMARK    1  A    between atoms: C_1  and  N_2
REMARK    2  A    between atoms: C_10  and  C_12
REMARK    3  A    between atoms: C_13  and  C_14
REMARK    4  A    between atoms: N_16  and  N_17
REMARK    5  A    between atoms: C_18  and  C_20
REMARK                            x       y       z     vdW  Elec       q    Type
REMARK                         _______ _______ _______ _____ _____    ______ ____
ROOT
ATOM      1  C   UNL     1       7.285  -2.771  -0.997  0.00  0.00    +0.253 C 
ATOM      2  O   UNL     1       7.345  -3.963  -0.760  0.00  0.00    -0.269 OA
ATOM      3  N   UNL     1       8.392  -2.102  -1.376  0.00  0.00    -0.231 N 
ATOM      4  H   UNL     1       8.344  -1.152  -1.565  0.00  0.00    +0.173 HD
ENDROOT
BRANCH   3   5
ATOM      5  N   UNL     1       9.613  -2.780  -1.498  0.00  0.00    -0.230 N 
ATOM      6  C   UNL     1      10.720  -2.111  -1.877  0.00  0.00    +0.263 C 
ATOM      7  O   UNL     1      10.659  -0.921  -2.114  0.00  0.00    -0.269 OA
ATOM      8  H   UNL     1       9.661  -3.730  -1.308  0.00  0.00    +0.173 HD
BRANCH   6   9
ATOM      9  C   UNL     1      12.006  -2.826  -2.005  0.00  0.00    +0.073 A 
ATOM     10  C   UNL     1      12.078  -4.195  -1.739  0.00  0.00    +0.016 A 
ATOM     11  C   UNL     1      13.282  -4.856  -1.860  0.00  0.00    +0.001 A 
ATOM     12  C   UNL     1      14.420  -4.166  -2.244  0.00  0.00    +0.003 A 
ATOM     13  C   UNL     1      14.359  -2.811  -2.509  0.00  0.00    +0.039 A 
ATOM     14  C   UNL     1      13.157  -2.136  -2.398  0.00  0.00    +0.136 A 
ATOM     15  F   UNL     1      13.096  -0.812  -2.663  0.00  0.00    -0.205 F 
ENDBRANCH   6   9
ENDBRANCH   3   5
BRANCH   1  17
ATOM     16  C   UNL     1       4.902  -2.733  -0.490  0.00  0.00    +0.013 C 
ATOM     17  C   UNL     1       6.012  -2.064  -0.870  0.00  0.00    +0.069 C 
BRANCH  16  27
ATOM     18  C   UNL     1      -0.018   1.461   0.010  0.00  0.00    +0.129 C 
ATOM     19  N   UNL     1       0.002  -0.004   0.002  0.00  0.00    -0.333 N 
ATOM     20  C   UNL     1      -1.248  -0.767   0.114  0.00  0.00    +0.105 C 
ATOM     21  C   UNL     1      -1.017  -1.900   1.123  0.00  0.00    +0.024 C 
ATOM     22  C   UNL     1       0.057  -2.838   0.573  0.00  0.00    +0.038 C 
ATOM     23  C   UNL     1       1.276  -2.057   0.156  0.00  0.00    -0.026 A 
ATOM     24  C   UNL     1       1.207  -0.695  -0.118  0.00  0.00    +0.033 A 
ATOM     25  C   UNL     1       2.348   0.004  -0.512  0.00  0.00    +0.024 A 
ATOM     26  C   UNL     1       3.551  -0.651  -0.635  0.00  0.00    +0.010 A 
ATOM     27  C   UNL     1       3.623  -2.023  -0.363  0.00  0.00    -0.025 A 
ATOM     28  C   UNL     1       2.472  -2.715   0.042  0.00  0.00    +0.013 A 
ENDBRANCH  16  27
ENDBRANCH   1  17
TORSDOF 4
