REMARK  Name = ZINC39976685
REMARK  6 active torsions:
REMARK  status: ('A' for Active; 'I' for Inactive)
REMARK    1  A    between atoms: C_1  and  C_2
REMARK    2  A    between atoms: C_5  and  N_9
REMARK    3  A    between atoms: C_7  and  C_8
REMARK    4  A    between atoms: N_9  and  C_10
REMARK    5  A    between atoms: N_13  and  S_14
REMARK    6  A    between atoms: S_14  and  C_17
REMARK                            x       y       z     vdW  Elec       q    Type
REMARK                         _______ _______ _______ _____ _____    ______ ____
ROOT
ATOM      1  C   UNL     1      -0.049  -4.894  -1.288  0.00  0.00    +0.237 C 
ATOM      2  C   UNL     1       0.973  -6.008  -1.269  0.00  0.00    +0.192 C 
ATOM      3  N   UNL     1       2.236  -5.742  -1.105  0.00  0.00    -0.110 NA
ATOM      4  N   UNL     1       0.559  -7.276  -1.424  0.00  0.00    -0.226 NA
ATOM      5  C   UNL     1      -0.713  -7.571  -1.591  0.00  0.00    +0.089 A 
ATOM      6  C   UNL     1      -1.115  -8.921  -1.752  0.00  0.00    +0.030 A 
ATOM      7  C   UNL     1      -2.419  -9.229  -1.924  0.00  0.00    +0.002 A 
ATOM      8  C   UNL     1      -3.432  -8.257  -1.954  0.00  0.00    +0.002 A 
ATOM      9  C   UNL     1      -3.159  -6.941  -1.812  0.00  0.00    +0.027 A 
ATOM     10  C   UNL     1      -1.763  -6.522  -1.619  0.00  0.00    +0.063 A 
ATOM     11  N   UNL     1      -1.461  -5.262  -1.477  0.00  0.00    -0.359 N 
ATOM     12  H   UNL     1      -2.153  -4.582  -1.495  0.00  0.00    +0.162 HD
ENDROOT
BRANCH   3  13
ATOM     13  S   UNL     1       3.345  -6.971  -1.087  0.00  0.00    +0.100 S 
ATOM     14  O   UNL     1       3.075  -7.745   0.075  0.00  0.00    -0.146 OA
ATOM     15  O   UNL     1       3.351  -7.533  -2.392  0.00  0.00    -0.146 OA
BRANCH  13  16
ATOM     16  C   UNL     1       4.930  -6.239  -0.846  0.00  0.00    +0.113 A 
ATOM     17  C   UNL     1       5.682  -5.845  -1.938  0.00  0.00    +0.029 A 
ATOM     18  C   UNL     1       6.925  -5.270  -1.749  0.00  0.00    +0.002 A 
ATOM     19  C   UNL     1       7.416  -5.090  -0.470  0.00  0.00    +0.000 A 
ATOM     20  C   UNL     1       6.664  -5.483   0.621  0.00  0.00    +0.002 A 
ATOM     21  C   UNL     1       5.419  -6.053   0.433  0.00  0.00    +0.029 A 
ENDBRANCH  13  16
ENDBRANCH   3  13
BRANCH   1  22
ATOM     22  N   UNL     1       0.058  -4.167  -0.021  0.00  0.00    -0.318 N 
ATOM     23  H   UNL     1       0.037  -4.652   0.819  0.00  0.00    +0.148 HD
BRANCH  22  28
ATOM     24  C   UNL     1       0.594   1.478  -0.027  0.00  0.00    +0.044 C 
ATOM     25  C   UNL     1       0.451  -0.022  -0.025  0.00  0.00    -0.047 A 
ATOM     26  C   UNL     1       0.178  -0.691  -1.205  0.00  0.00    +0.005 A 
ATOM     27  C   UNL     1       0.047  -2.065  -1.207  0.00  0.00    +0.023 A 
ATOM     28  C   UNL     1       0.190  -2.777  -0.022  0.00  0.00    +0.029 A 
ATOM     29  C   UNL     1       0.465  -2.103   1.160  0.00  0.00    +0.026 A 
ATOM     30  C   UNL     1       0.600  -0.728   1.154  0.00  0.00    -0.046 A 
ATOM     31  C   UNL     1       0.903   0.004   2.436  0.00  0.00    +0.044 C 
ENDBRANCH  22  28
ENDBRANCH   1  22
TORSDOF 4
