REMARK  Name = ZINC19399747
REMARK  5 active torsions:
REMARK  status: ('A' for Active; 'I' for Inactive)
REMARK    1  A    between atoms: N_4  and  C_6
REMARK    2  A    between atoms: C_9  and  C_13
REMARK    3  A    between atoms: C_10  and  O_12
REMARK    4  A    between atoms: C_23  and  C_25
REMARK    5  A    between atoms: C_23  and  O_31
REMARK                            x       y       z     vdW  Elec       q    Type
REMARK                         _______ _______ _______ _____ _____    ______ ____
ROOT
ATOM      1  C   UNL     1       1.563  -1.312  -1.528  0.00  0.00    +0.251 C 
ATOM      2  O   UNL     1       0.718  -2.152  -1.775  0.00  0.00    -0.270 OA
ATOM      3  N   UNL     1       1.267  -0.277  -0.717  0.00  0.00    -0.291 N 
ATOM      4  C   UNL     1      -0.041   0.067  -0.108  0.00  0.00    +0.080 C 
ATOM      5  C   UNL     1      -0.135   1.603  -0.251  0.00  0.00    +0.024 C 
ATOM      6  C   UNL     1       1.330   2.082  -0.327  0.00  0.00    +0.024 C 
ATOM      7  C   UNL     1       2.172   0.789  -0.224  0.00  0.00    +0.080 C 
ATOM      8  C   UNL     1       2.431   0.514   1.266  0.00  0.00    +0.062 C 
ATOM      9  C   UNL     1       1.110   0.642   2.031  0.00  0.00    +0.094 C 
ATOM     10  C   UNL     1       0.038  -0.263   1.391  0.00  0.00    +0.062 C 
ENDROOT
BRANCH   1  14
ATOM     11  C   UNL     1       5.446  -1.643  -3.219  0.00  0.00    +0.049 A 
ATOM     12  C   UNL     1       5.294  -1.247  -1.893  0.00  0.00    +0.027 A 
ATOM     13  C   UNL     1       4.039  -1.138  -1.342  0.00  0.00    +0.019 A 
ATOM     14  C   UNL     1       2.909  -1.427  -2.115  0.00  0.00    +0.078 A 
ATOM     15  C   UNL     1       3.064  -1.833  -3.449  0.00  0.00    +0.131 A 
ATOM     16  C   UNL     1       4.332  -1.932  -3.995  0.00  0.00    +0.072 A 
BRANCH  11  20
ATOM     17  C   UNL     1       8.351  -2.113  -5.208  0.00  0.00    +0.019 A 
ATOM     18  C   UNL     1       8.915  -1.712  -3.980  0.00  0.00    +0.019 A 
ATOM     19  C   UNL     1       7.900  -1.497  -3.119  0.00  0.00    +0.091 A 
ATOM     20  N   UNL     1       6.726  -1.751  -3.772  0.00  0.00    -0.323 N 
ATOM     21  C   UNL     1       7.012  -2.134  -5.052  0.00  0.00    +0.091 A 
ENDBRANCH  11  20
BRANCH  15  22
ATOM     22  O   UNL     1       1.974  -2.120  -4.203  0.00  0.00    -0.506 OA
ATOM     23  H   UNL     1       2.097  -2.438  -5.249  0.00  0.00    +0.292 HD
ENDBRANCH  15  22
ENDBRANCH   1  14
BRANCH   9  24
ATOM     24  C   UNL     1       1.319   0.231   3.465  0.00  0.00    -0.013 A 
ATOM     25  C   UNL     1       2.271  -0.720   3.800  0.00  0.00    +0.026 A 
ATOM     26  C   UNL     1       2.438  -1.068   5.127  0.00  0.00    +0.111 A 
ATOM     27  N   UNL     1       1.698  -0.515   6.067  0.00  0.00    -0.263 NA
ATOM     28  C   UNL     1       0.779   0.389   5.786  0.00  0.00    +0.111 A 
ATOM     29  C   UNL     1       0.560   0.791   4.482  0.00  0.00    +0.026 A 
ENDBRANCH   9  24
BRANCH   9  30
ATOM     30  O   UNL     1       0.664   1.999   1.985  0.00  0.00    -0.384 OA
ATOM     31  H   UNL     1      -0.274   2.287   2.482  0.00  0.00    +0.211 HD
ENDBRANCH   9  30
TORSDOF 5
