REMARK  Name = ZINC65398079
REMARK  6 active torsions:
REMARK  status: ('A' for Active; 'I' for Inactive)
REMARK    1  A    between atoms: C_1  and  C_2
REMARK    2  A    between atoms: C_5  and  C_7
REMARK    3  A    between atoms: C_7  and  N_8
REMARK    4  A    between atoms: C_11  and  C_25
REMARK    5  A    between atoms: C_12  and  C_13
REMARK    6  A    between atoms: C_15  and  C_24
REMARK                            x       y       z     vdW  Elec       q    Type
REMARK                         _______ _______ _______ _____ _____    ______ ____
ROOT
ATOM      1  N   UNL     1       1.438  -3.713   1.738  0.00  0.00    -0.322 N 
ATOM      2  C   UNL     1       2.108  -4.706   1.113  0.00  0.00    +0.200 A 
ATOM      3  N   UNL     1       3.325  -4.753   1.576  0.00  0.00    -0.235 NA
ATOM      4  C   UNL     1       3.481  -3.795   2.512  0.00  0.00    +0.094 A 
ATOM      5  C   UNL     1       2.301  -3.129   2.621  0.00  0.00    +0.073 A 
ENDROOT
BRANCH   5   6
ATOM      6  C   UNL     1       2.003  -1.972   3.539  0.00  0.00    +0.155 C 
ATOM      7  C   UNL     1       1.921  -0.686   2.747  0.00  0.00    -0.036 C 
ATOM      8  C   UNL     1       0.668  -0.212   2.930  0.00  0.00    +0.002 A 
ATOM      9  C   UNL     1      -0.026   0.982   2.433  0.00  0.00    +0.048 A 
ATOM     10  C   UNL     1      -1.313   1.193   2.797  0.00  0.00    +0.124 A 
ATOM     11  C   UNL     1      -1.998   0.299   3.635  0.00  0.00    +0.040 A 
ATOM     12  C   UNL     1      -1.427  -0.820   4.129  0.00  0.00    +0.029 A 
ATOM     13  C   UNL     1      -0.078  -1.139   3.812  0.00  0.00    +0.043 A 
ATOM     14  N   UNL     1       0.686  -2.147   4.162  0.00  0.00    -0.372 N 
ATOM     15  F   UNL     1      -1.954   2.292   2.342  0.00  0.00    -0.205 F 
ATOM     16  C   UNL     1       3.016  -0.058   1.923  0.00  0.00    +0.042 C 
ATOM     17  H   UNL     1       0.425  -2.884   4.735  0.00  0.00    +0.161 HD
ENDBRANCH   5   6
BRANCH   4  18
ATOM     18  C   UNL     1       4.718  -3.515   3.282  0.00  0.00    +0.002 A 
ATOM     19  C   UNL     1       4.648  -3.262   4.650  0.00  0.00    +0.010 A 
ATOM     20  C   UNL     1       5.803  -3.003   5.361  0.00  0.00    +0.001 A 
ATOM     21  C   UNL     1       7.027  -2.994   4.717  0.00  0.00    +0.000 A 
ATOM     22  C   UNL     1       7.102  -3.245   3.359  0.00  0.00    +0.001 A 
ATOM     23  C   UNL     1       5.955  -3.511   2.639  0.00  0.00    +0.010 A 
ENDBRANCH   4  18
BRANCH   1  24
ATOM     24  C   UNL     1       0.043  -3.330   1.507  0.00  0.00    +0.220 C 
BRANCH  24  29
ATOM     25  C   UNL     1      -0.037   1.243  -0.600  0.00  0.00    +0.111 C 
ATOM     26  C   UNL     1      -0.044  -0.250  -0.393  0.00  0.00    +0.214 A 
ATOM     27  N   UNL     1      -0.120  -1.157  -1.325  0.00  0.00    -0.113 NA
ATOM     28  N   UNL     1      -0.099  -2.325  -0.787  0.00  0.00    -0.111 NA
ATOM     29  C   UNL     1      -0.010  -2.204   0.507  0.00  0.00    +0.237 A 
ATOM     30  O   UNL     1       0.032  -0.890   0.786  0.00  0.00    -0.423 OA
ENDBRANCH  24  29
ENDBRANCH   1  24
TORSDOF 4
