REMARK  Name = ZINC16700796
REMARK  7 active torsions:
REMARK  status: ('A' for Active; 'I' for Inactive)
REMARK    1  A    between atoms: C_1  and  C_2
REMARK    2  A    between atoms: C_4  and  N_17
REMARK    3  A    between atoms: C_7  and  S_8
REMARK    4  A    between atoms: S_8  and  N_11
REMARK    5  A    between atoms: N_11  and  C_12
REMARK    6  A    between atoms: C_20  and  C_25
REMARK    7  A    between atoms: C_20  and  C_26
REMARK                            x       y       z     vdW  Elec       q    Type
REMARK                         _______ _______ _______ _____ _____    ______ ____
ROOT
ATOM      1  C   UNL     1       3.371  -0.454  -0.224  0.00  0.00    +0.046 C 
ATOM      2  C   UNL     1       1.954   0.007  -0.003  0.00  0.00    -0.022 A 
ATOM      3  C   UNL     1       1.674   1.357   0.090  0.00  0.00    +0.030 A 
ATOM      4  C   UNL     1       0.367   1.781   0.293  0.00  0.00    +0.060 A 
ATOM      5  C   UNL     1      -0.654   0.846   0.402  0.00  0.00    +0.027 A 
ATOM      6  C   UNL     1      -0.368  -0.501   0.308  0.00  0.00    +0.030 A 
ATOM      7  C   UNL     1       0.934  -0.921   0.106  0.00  0.00    +0.108 A 
ENDROOT
BRANCH   4   8
ATOM      8  N   UNL     1       0.081   3.147   0.388  0.00  0.00    -0.143 N 
ATOM      9  C   UNL     1       0.810   4.145  -0.134  0.00  0.00    +0.246 C 
ATOM     10  O   UNL     1       1.806   3.910  -0.784  0.00  0.00    -0.273 OA
ATOM     11  C   UNL     1       0.362   5.556   0.100  0.00  0.00    +0.064 C 
ATOM     12  C   UNL     1      -1.131   5.542   0.520  0.00  0.00    +0.205 C 
ATOM     13  S   UNL     1      -1.230   3.826   1.179  0.00  0.00    +0.053 S 
ATOM     14  O   UNL     1      -2.375   3.154   0.673  0.00  0.00    -0.155 OA
ATOM     15  O   UNL     1      -0.903   3.794   2.561  0.00  0.00    -0.155 OA
ATOM     16  C   UNL     1       0.527   6.372  -1.184  0.00  0.00    +0.022 C 
ATOM     17  C   UNL     1       1.206   6.176   1.215  0.00  0.00    +0.022 C 
ENDBRANCH   4   8
BRANCH   7  18
ATOM     18  S   UNL     1       1.296  -2.641  -0.014  0.00  0.00    +0.059 S 
ATOM     19  O   UNL     1       0.064  -3.328   0.164  0.00  0.00    -0.153 OA
ATOM     20  O   UNL     1       2.100  -2.807  -1.174  0.00  0.00    -0.153 OA
BRANCH  18  21
ATOM     21  N   UNL     1       2.248  -3.033   1.282  0.00  0.00    -0.187 NA
ATOM     22  H   UNL     1       3.162  -3.325   1.142  0.00  0.00    +0.148 HD
BRANCH  21  23
ATOM     23  C   UNL     1       1.709  -2.939   2.642  0.00  0.00    +0.077 C 
ATOM     24  C   UNL     1       2.147  -1.611   3.293  0.00  0.00    +0.020 C 
ATOM     25  C   UNL     1       2.406  -1.981   4.774  0.00  0.00    +0.002 C 
ATOM     26  C   UNL     1       3.052  -3.385   4.667  0.00  0.00    +0.002 C 
ATOM     27  C   UNL     1       2.285  -4.067   3.516  0.00  0.00    +0.020 C 
ENDBRANCH  21  23
ENDBRANCH  18  21
ENDBRANCH   7  18
TORSDOF 4
