REMARK  Name = ZINC36506460
REMARK  14 active torsions:
REMARK  status: ('A' for Active; 'I' for Inactive)
REMARK    1  A    between atoms: C_1  and  C_2
REMARK    2  A    between atoms: C_2  and  C_3
REMARK    3  A    between atoms: C_2  and  C_4
REMARK    4  A    between atoms: C_2  and  N_5
REMARK    5  A    between atoms: C_6  and  C_8
REMARK    6  A    between atoms: C_8  and  C_10
REMARK    7  A    between atoms: C_8  and  N_19
REMARK    8  A    between atoms: C_11  and  O_18
REMARK    9  A    between atoms: C_13  and  O_17
REMARK   10  A    between atoms: C_15  and  O_16
REMARK   11  A    between atoms: N_19  and  C_20
REMARK   12  A    between atoms: C_20  and  C_21
REMARK   13  A    between atoms: C_26  and  C_28
REMARK   14  A    between atoms: C_31  and  N_34
REMARK                            x       y       z     vdW  Elec       q    Type
REMARK                         _______ _______ _______ _____ _____    ______ ____
ROOT
ATOM      1  C   UNL     1       2.625  -0.497  -2.050  0.00  0.00    +0.200 C 
ENDROOT
BRANCH   1   2
ATOM      2  C   UNL     1       2.482  -1.927  -1.596  0.00  0.00    +0.065 A 
ATOM      3  C   UNL     1       3.308  -2.424  -0.599  0.00  0.00    +0.129 A 
ATOM      4  C   UNL     1       3.176  -3.739  -0.181  0.00  0.00    +0.091 A 
ATOM      5  C   UNL     1       2.219  -4.558  -0.760  0.00  0.00    +0.124 A 
ATOM      6  C   UNL     1       1.393  -4.061  -1.757  0.00  0.00    +0.091 A 
ATOM      7  C   UNL     1       1.521  -2.744  -2.172  0.00  0.00    +0.129 A 
BRANCH   7   8
ATOM      8  O   UNL     1       0.709  -2.256  -3.146  0.00  0.00    -0.506 OA
ATOM      9  H   UNL     1       1.056  -2.368  -4.041  0.00  0.00    +0.292 HD
ENDBRANCH   7   8
BRANCH   5  10
ATOM     10  O   UNL     1       2.090  -5.848  -0.351  0.00  0.00    -0.507 OA
ATOM     11  H   UNL     1       1.467  -5.969   0.379  0.00  0.00    +0.292 HD
ENDBRANCH   5  10
BRANCH   3  12
ATOM     12  O   UNL     1       4.246  -1.621  -0.031  0.00  0.00    -0.506 OA
ATOM     13  H   UNL     1       3.958  -1.198   0.789  0.00  0.00    +0.292 HD
ENDBRANCH   3  12
ENDBRANCH   1   2
BRANCH   1  15
ATOM     14  N   UNL     1       1.539   0.438  -0.034  0.00  0.00    -0.309 N 
ATOM     15  C   UNL     1       2.611   0.415  -0.851  0.00  0.00    +0.239 C 
ATOM     16  O   UNL     1       3.565   1.127  -0.620  0.00  0.00    -0.273 OA
ATOM     17  H   UNL     1       0.776  -0.132  -0.219  0.00  0.00    +0.149 HD
BRANCH  14  19
ATOM     18  C   UNL     1       1.671   2.776   0.671  0.00  0.00    +0.031 C 
ATOM     19  C   UNL     1       1.526   1.325   1.132  0.00  0.00    +0.026 C 
ATOM     20  C   UNL     1       2.688   0.965   2.059  0.00  0.00    +0.031 C 
ATOM     21  C   UNL     1       0.203   1.158   1.884  0.00  0.00    +0.031 C 
ENDBRANCH  14  19
ENDBRANCH   1  15
BRANCH   1  22
ATOM     22  N   UNL     1       3.891  -0.338  -2.770  0.00  0.00    -0.274 N 
ATOM     23  C   UNL     1       4.294   0.887  -3.163  0.00  0.00    +0.248 C 
ATOM     24  O   UNL     1       5.276   1.007  -3.869  0.00  0.00    -0.270 OA
BRANCH  23  25
ATOM     25  C   UNL     1       3.541   2.085  -2.734  0.00  0.00    +0.037 A 
ATOM     26  C   UNL     1       2.226   1.962  -2.281  0.00  0.00    +0.015 A 
ATOM     27  C   UNL     1       1.530   3.084  -1.882  0.00  0.00    +0.033 A 
ATOM     28  C   UNL     1       2.131   4.329  -1.931  0.00  0.00    +0.126 A 
ATOM     29  C   UNL     1       3.433   4.458  -2.380  0.00  0.00    +0.033 A 
ATOM     30  C   UNL     1       4.143   3.343  -2.776  0.00  0.00    +0.015 A 
BRANCH  28  31
ATOM     31  N   UNL     1       1.377   5.529  -1.502  0.00  0.00    +0.056 N 
ATOM     32  O   UNL     1       0.239   5.419  -1.110  0.00  0.00    -0.126 OA
ATOM     33  O   UNL     1       1.900   6.618  -1.544  0.00  0.00    -0.126 OA
ENDBRANCH  28  31
ENDBRANCH  23  25
BRANCH  22  34
ATOM     34  C   UNL     1       4.720  -1.510  -3.063  0.00  0.00    +0.183 C 
BRANCH  34  35
ATOM     35  C   UNL     1       4.448  -1.978  -4.469  0.00  0.00    +0.122 A 
ATOM     36  C   UNL     1       5.164  -1.651  -5.560  0.00  0.00    +0.046 A 
ATOM     37  C   UNL     1       4.562  -2.307  -6.658  0.00  0.00    +0.041 A 
ATOM     38  C   UNL     1       3.514  -2.997  -6.172  0.00  0.00    +0.195 A 
ATOM     39  O   UNL     1       3.454  -2.799  -4.846  0.00  0.00    -0.466 OA
ENDBRANCH  34  35
ENDBRANCH  22  34
ENDBRANCH   1  22
TORSDOF 11
