REMARK  Name = ZINC13683562
REMARK  10 active torsions:
REMARK  status: ('A' for Active; 'I' for Inactive)
REMARK    1  A    between atoms: C_1  and  C_2
REMARK    2  A    between atoms: C_2  and  O_3
REMARK    3  A    between atoms: O_3  and  C_4
REMARK    4  A    between atoms: C_12  and  C_14
REMARK    5  A    between atoms: C_14  and  C_16
REMARK    6  A    between atoms: C_14  and  N_17
REMARK    7  A    between atoms: N_17  and  C_18
REMARK    8  A    between atoms: N_17  and  S_26
REMARK    9  A    between atoms: C_23  and  C_24
REMARK   10  A    between atoms: S_26  and  C_29
REMARK                            x       y       z     vdW  Elec       q    Type
REMARK                         _______ _______ _______ _____ _____    ______ ____
ROOT
ATOM      1  C   UNL     1       0.305   0.607  -0.089  0.00  0.00    +0.180 C 
ATOM      2  C   UNL     1       0.267  -0.890   0.225  0.00  0.00    +0.040 C 
ENDROOT
BRANCH   1  11
ATOM      3  C   UNL     1      -5.155   3.233  -1.354  0.00  0.00    +0.403 C 
ATOM      4  O   UNL     1      -5.764   3.352  -2.399  0.00  0.00    -0.226 OA
ATOM      5  N   UNL     1      -3.845   2.918  -1.369  0.00  0.00    -0.264 N 
ATOM      6  C   UNL     1      -3.139   2.715  -2.643  0.00  0.00    +0.130 C 
ATOM      7  C   UNL     1      -2.481   1.330  -2.623  0.00  0.00    +0.127 C 
ATOM      8  N   UNL     1      -1.732   1.183  -1.367  0.00  0.00    -0.297 N 
ATOM      9  C   UNL     1      -2.439   1.380  -0.094  0.00  0.00    +0.127 C 
ATOM     10  C   UNL     1      -3.096   2.771  -0.114  0.00  0.00    +0.130 C 
ATOM     11  C   UNL     1      -0.422   0.868  -1.383  0.00  0.00    +0.238 C 
ATOM     12  O   UNL     1       0.171   0.794  -2.438  0.00  0.00    -0.274 OA
BRANCH   3  13
ATOM     13  O   UNL     1      -5.790   3.416  -0.181  0.00  0.00    -0.451 OA
BRANCH  13  15
ATOM     14  C   UNL     1      -7.745   3.921   1.180  0.00  0.00    +0.048 C 
ATOM     15  C   UNL     1      -7.201   3.754  -0.240  0.00  0.00    +0.230 C 
ENDBRANCH  13  15
ENDBRANCH   3  13
ENDBRANCH   1  11
BRANCH   1  16
ATOM     16  N   UNL     1       1.698   1.044  -0.216  0.00  0.00    -0.196 N 
BRANCH  16  17
ATOM     17  C   UNL     1       2.485   0.572  -1.268  0.00  0.00    +0.056 A 
ATOM     18  C   UNL     1       3.123  -0.658  -1.163  0.00  0.00    +0.045 A 
ATOM     19  C   UNL     1       3.900  -1.123  -2.207  0.00  0.00    +0.043 A 
ATOM     20  C   UNL     1       4.044  -0.363  -3.356  0.00  0.00    +0.020 A 
ATOM     21  C   UNL     1       3.411   0.861  -3.462  0.00  0.00    +0.006 A 
ATOM     22  C   UNL     1       2.628   1.328  -2.425  0.00  0.00    -0.028 A 
ATOM     23  C   UNL     1       1.933   2.660  -2.545  0.00  0.00    +0.046 C 
ATOM     24 CL   UNL     1       4.698  -2.659  -2.077  0.00  0.00    -0.083 Cl
ENDBRANCH  16  17
BRANCH  16  25
ATOM     25  S   UNL     1       2.339   2.098   0.889  0.00  0.00    +0.043 S 
ATOM     26  O   UNL     1       3.444   2.693   0.224  0.00  0.00    -0.155 OA
ATOM     27  O   UNL     1       1.238   2.888   1.317  0.00  0.00    -0.155 OA
ATOM     28  C   UNL     1       2.921   1.049   2.251  0.00  0.00    +0.218 C 
ENDBRANCH  16  25
ENDBRANCH   1  16
TORSDOF 6
