REMARK  Name = ZINC13195555
REMARK  13 active torsions:
REMARK  status: ('A' for Active; 'I' for Inactive)
REMARK    1  A    between atoms: C_1  and  C_2
REMARK    2  A    between atoms: C_2  and  N_3
REMARK    3  A    between atoms: N_3  and  C_4
REMARK    4  A    between atoms: C_10  and  C_12
REMARK    5  A    between atoms: C_12  and  C_14
REMARK    6  A    between atoms: C_12  and  S_15
REMARK    7  A    between atoms: S_15  and  C_16
REMARK    8  A    between atoms: C_19  and  C_24
REMARK    9  A    between atoms: N_20  and  C_21
REMARK   10  A    between atoms: C_21  and  C_22
REMARK   11  A    between atoms: C_27  and  O_30
REMARK   12  A    between atoms: O_30  and  C_31
REMARK   13  A    between atoms: C_31  and  C_32
REMARK                            x       y       z     vdW  Elec       q    Type
REMARK                         _______ _______ _______ _____ _____    ______ ____
ROOT
ATOM      1  C   UNL     1       6.358  -4.924   0.995  0.00  0.00    +0.193 A 
ATOM      2  N   UNL     1       7.429  -4.241   0.660  0.00  0.00    -0.122 NA
ATOM      3  N   UNL     1       8.485  -4.939   0.883  0.00  0.00    -0.128 NA
ATOM      4  C   UNL     1       8.153  -6.110   1.376  0.00  0.00    +0.165 A 
ATOM      5  N   UNL     1       6.780  -6.135   1.467  0.00  0.00    -0.291 N 
ENDROOT
BRANCH   4   6
ATOM      6  C   UNL     1       9.079  -7.194   1.764  0.00  0.00    +0.020 A 
ATOM      7  C   UNL     1      10.423  -6.910   2.015  0.00  0.00    +0.015 A 
ATOM      8  C   UNL     1      11.283  -7.924   2.382  0.00  0.00    +0.046 A 
ATOM      9  C   UNL     1      10.816  -9.227   2.491  0.00  0.00    +0.121 A 
ATOM     10  C   UNL     1       9.481  -9.514   2.238  0.00  0.00    +0.046 A 
ATOM     11  C   UNL     1       8.614  -8.506   1.875  0.00  0.00    +0.015 A 
BRANCH   9  12
ATOM     12  O   UNL     1      11.667 -10.224   2.848  0.00  0.00    -0.492 OA
BRANCH  12  13
ATOM     13  C   UNL     1      13.027  -9.859   3.094  0.00  0.00    +0.225 C 
ATOM     14  C   UNL     1      13.828 -11.104   3.480  0.00  0.00    +0.048 C 
ENDBRANCH  12  13
ENDBRANCH   9  12
ENDBRANCH   4   6
BRANCH   1  15
ATOM     15  S   UNL     1       4.687  -4.378   0.867  0.00  0.00    -0.073 S 
BRANCH  15  16
ATOM     16  C   UNL     1       4.950  -2.723   0.182  0.00  0.00    +0.137 C 
ATOM     17  C   UNL     1       5.559  -2.840  -1.216  0.00  0.00    +0.029 C 
BRANCH  16  19
ATOM     18  N   UNL     1       3.603  -0.655   0.009  0.00  0.00    -0.271 N 
ATOM     19  C   UNL     1       3.630  -2.000   0.097  0.00  0.00    +0.233 C 
ATOM     20  O   UNL     1       2.593  -2.628   0.106  0.00  0.00    -0.274 OA
BRANCH  18  21
ATOM     21  C   UNL     1       2.379   0.022   0.014  0.00  0.00    +0.036 A 
ATOM     22  C   UNL     1       1.483  -0.168   1.059  0.00  0.00    +0.023 A 
ATOM     23  C   UNL     1       0.276   0.502   1.062  0.00  0.00    +0.002 A 
ATOM     24  C   UNL     1      -0.043   1.361   0.026  0.00  0.00    +0.000 A 
ATOM     25  C   UNL     1       0.847   1.552  -1.016  0.00  0.00    +0.002 A 
ATOM     26  C   UNL     1       2.056   0.885  -1.024  0.00  0.00    +0.023 A 
ENDBRANCH  18  21
BRANCH  18  28
ATOM     27  C   UNL     1       5.351   0.455   1.310  0.00  0.00    +0.025 C 
ATOM     28  C   UNL     1       4.856   0.098  -0.092  0.00  0.00    +0.110 C 
ENDBRANCH  18  28
ENDBRANCH  16  19
ENDBRANCH  15  16
ENDBRANCH   1  15
BRANCH   5  29
ATOM     29  C   UNL     1       5.946  -7.231   1.964  0.00  0.00    +0.250 C 
BRANCH  29  30
ATOM     30  C   UNL     1       5.492  -8.082   0.806  0.00  0.00    +0.375 C 
ATOM     31  O   UNL     1       5.831  -7.801  -0.319  0.00  0.00    -0.244 OA
ATOM     32  O   UNL     1       4.712  -9.152   1.025  0.00  0.00    -0.244 OA
ENDBRANCH  29  30
ENDBRANCH   5  29
TORSDOF 10
