REMARK  Name = ZINC24673918
REMARK  17 active torsions:
REMARK  status: ('A' for Active; 'I' for Inactive)
REMARK    1  A    between atoms: C_1  and  C_2
REMARK    2  A    between atoms: C_2  and  C_3
REMARK    3  A    between atoms: C_3  and  C_4
REMARK    4  A    between atoms: C_4  and  N_5
REMARK    5  A    between atoms: N_5  and  C_6
REMARK    6  A    between atoms: C_7  and  N_19
REMARK    7  A    between atoms: N_8  and  C_15
REMARK    8  A    between atoms: C_15  and  C_16
REMARK    9  A    between atoms: C_16  and  C_17
REMARK   10  A    between atoms: C_16  and  C_18
REMARK   11  A    between atoms: C_20  and  C_22
REMARK   12  A    between atoms: C_22  and  N_23
REMARK   13  A    between atoms: N_23  and  C_24
REMARK   14  A    between atoms: N_23  and  C_31
REMARK   15  A    between atoms: C_24  and  C_25
REMARK   16  A    between atoms: C_31  and  C_33
REMARK   17  A    between atoms: C_31  and  C_34
REMARK                            x       y       z     vdW  Elec       q    Type
REMARK                         _______ _______ _______ _____ _____    ______ ____
ROOT
ATOM      1  N   UNL     1      -3.247  -2.444   0.792  0.00  0.00    -0.266 N 
ATOM      2  C   UNL     1      -3.623  -2.292   2.079  0.00  0.00    +0.203 C 
ATOM      3  O   UNL     1      -4.543  -2.947   2.524  0.00  0.00    -0.277 OA
ENDROOT
BRANCH   1   4
ATOM      4  C   UNL     1      -3.857  -3.433  -0.009  0.00  0.00    +0.140 A 
ATOM      5  C   UNL     1      -3.555  -4.767   0.172  0.00  0.00    +0.127 A 
ATOM      6  N   UNL     1      -4.166  -5.707  -0.625  0.00  0.00    -0.280 N 
ATOM      7  C   UNL     1      -5.047  -5.331  -1.569  0.00  0.00    +0.331 A 
ATOM      8  O   UNL     1      -5.576  -6.178  -2.264  0.00  0.00    -0.246 OA
ATOM      9  N   UNL     1      -5.353  -4.035  -1.760  0.00  0.00    -0.273 N 
ATOM     10  H   UNL     1      -5.992  -3.790  -2.447  0.00  0.00    +0.173 HD
ATOM     11  C   UNL     1      -4.788  -3.075  -1.002  0.00  0.00    +0.277 A 
ATOM     12  O   UNL     1      -5.076  -1.904  -1.180  0.00  0.00    -0.266 OA
BRANCH   5  13
ATOM     13  N   UNL     1      -2.655  -5.152   1.136  0.00  0.00    -0.343 N 
ATOM     14  H   UNL     1      -2.258  -4.488   1.722  0.00  0.00    +0.144 HD
ATOM     15  H   UNL     1      -2.416  -6.087   1.231  0.00  0.00    +0.144 HD
ENDBRANCH   5  13
BRANCH   6  16
ATOM     16  C   UNL     1      -3.855  -7.128  -0.444  0.00  0.00    +0.131 C 
BRANCH  16  17
ATOM     17  C   UNL     1      -4.821  -7.735   0.576  0.00  0.00    +0.003 C 
ATOM     18  C   UNL     1      -6.243  -7.701   0.014  0.00  0.00    +0.009 C 
ATOM     19  C   UNL     1      -4.419  -9.184   0.858  0.00  0.00    +0.009 C 
ENDBRANCH  16  17
ENDBRANCH   6  16
ENDBRANCH   1   4
BRANCH   1  20
ATOM     20  C   UNL     1      -2.206  -1.583   0.227  0.00  0.00    +0.114 C 
BRANCH  20  21
ATOM     21  C   UNL     1      -2.840  -0.293  -0.298  0.00  0.00    +0.019 C 
BRANCH  21  23
ATOM     22  C   UNL     1      -2.374   1.954  -1.285  0.00  0.00    +0.004 C 
ATOM     23  C   UNL     1      -1.740   0.665  -0.760  0.00  0.00    -0.002 C 
ENDBRANCH  21  23
ENDBRANCH  20  21
ENDBRANCH   1  20
BRANCH   2  24
ATOM     24  C   UNL     1      -2.901  -1.310   2.965  0.00  0.00    +0.020 C 
BRANCH  24  25
ATOM     25  N   UNL     1      -3.602  -1.202   4.251  0.00  0.00    +0.390 N 
ATOM     26  H   UNL     1      -3.976  -2.104   4.507  0.00  0.00    -0.080 HD
BRANCH  25  27
ATOM     27  C   UNL     1      -4.699  -0.233   4.131  0.00  0.00    -0.067 C 
ATOM     28  C   UNL     1      -4.213   0.996   3.361  0.00  0.00    -0.013 C 
BRANCH  27  29
ATOM     29  C   UNL     1      -5.867  -0.876   3.380  0.00  0.00    -0.025 C 
ATOM     30  C   UNL     1      -6.131  -0.406   1.948  0.00  0.00    +0.002 C 
ATOM     31  C   UNL     1      -7.081   0.004   3.075  0.00  0.00    +0.002 C 
ENDBRANCH  27  29
ENDBRANCH  25  27
BRANCH  25  32
ATOM     32  C   UNL     1      -2.661  -0.751   5.285  0.00  0.00    -0.042 C 
BRANCH  32  33
ATOM     33  C   UNL     1      -3.336  -0.798   6.632  0.00  0.00    -0.064 A 
ATOM     34  C   UNL     1      -3.921   0.342   7.152  0.00  0.00    +0.002 A 
ATOM     35  C   UNL     1      -4.540   0.298   8.387  0.00  0.00    +0.000 A 
ATOM     36  C   UNL     1      -4.572  -0.884   9.103  0.00  0.00    +0.000 A 
ATOM     37  C   UNL     1      -3.987  -2.023   8.583  0.00  0.00    +0.000 A 
ATOM     38  C   UNL     1      -3.373  -1.981   7.346  0.00  0.00    +0.002 A 
ENDBRANCH  32  33
ENDBRANCH  25  32
ENDBRANCH  24  25
ENDBRANCH   2  24
TORSDOF 13
