REMARK  Name = ZINC44254310
REMARK  6 active torsions:
REMARK  status: ('A' for Active; 'I' for Inactive)
REMARK    1  A    between atoms: C_7  and  C_23
REMARK    2  A    between atoms: C_14  and  S_15
REMARK    3  A    between atoms: S_15  and  C_16
REMARK    4  A    between atoms: C_23  and  C_25
REMARK    5  A    between atoms: C_23  and  N_29
REMARK    6  A    between atoms: C_25  and  C_26
REMARK                            x       y       z     vdW  Elec       q    Type
REMARK                         _______ _______ _______ _____ _____    ______ ____
ROOT
ATOM      1  C   UNL     1       0.438   0.878   0.957  0.00  0.00    +0.001 A 
ATOM      2  C   UNL     1       1.576   1.679   0.872  0.00  0.00    +0.001 A 
ATOM      3  C   UNL     1       2.770   1.181   0.456  0.00  0.00    +0.009 A 
ATOM      4  C   UNL     1       2.870  -0.177   0.099  0.00  0.00    -0.003 A 
ATOM      5  C   UNL     1       1.675  -1.021   0.188  0.00  0.00    -0.015 A 
ATOM      6  C   UNL     1       0.467  -0.440   0.628  0.00  0.00    +0.009 A 
ATOM      7  C   UNL     1       1.740  -2.370  -0.158  0.00  0.00    -0.046 A 
ATOM      8  C   UNL     1       2.948  -2.917  -0.591  0.00  0.00    -0.015 A 
ATOM      9  C   UNL     1       3.043  -4.280  -0.948  0.00  0.00    +0.009 A 
ATOM     10  C   UNL     1       4.234  -4.781  -1.366  0.00  0.00    +0.001 A 
ATOM     11  C   UNL     1       5.375  -3.983  -1.452  0.00  0.00    +0.001 A 
ATOM     12  C   UNL     1       5.351  -2.665  -1.123  0.00  0.00    +0.009 A 
ATOM     13  C   UNL     1       4.147  -2.081  -0.682  0.00  0.00    -0.003 A 
ATOM     14  C   UNL     1       4.087  -0.723  -0.335  0.00  0.00    +0.030 A 
ENDROOT
BRANCH  14  15
ATOM     15  S   UNL     1       5.527   0.287  -0.445  0.00  0.00    -0.067 S 
BRANCH  15  16
ATOM     16  C   UNL     1       6.274   0.138   1.144  0.00  0.00    +0.122 A 
ATOM     17  C   UNL     1       5.873  -0.882   2.001  0.00  0.00    +0.037 A 
ATOM     18  C   UNL     1       6.468  -0.988   3.245  0.00  0.00    +0.004 A 
ATOM     19  C   UNL     1       7.449  -0.068   3.592  0.00  0.00    +0.021 A 
ATOM     20  C   UNL     1       7.798   0.919   2.692  0.00  0.00    +0.134 A 
ATOM     21  N   UNL     1       7.218   0.994   1.509  0.00  0.00    -0.133 N 
ATOM     22  O   UNL     1       7.608   2.016   0.611  0.00  0.00    -0.163 OA
ENDBRANCH  15  16
ENDBRANCH  14  15
BRANCH   7  23
ATOM     23  C   UNL     1       0.509  -3.235  -0.065  0.00  0.00    -0.034 C 
BRANCH  23  24
ATOM     24  N   UNL     1       0.782  -4.382   0.811  0.00  0.00    +0.383 N 
ATOM     25  H   UNL     1       1.636  -4.833   0.517  0.00  0.00    -0.089 HD
ATOM     26  H   UNL     1       0.880  -4.063   1.763  0.00  0.00    -0.089 HD
ATOM     27  H   UNL     1       0.018  -5.039   0.753  0.00  0.00    -0.089 HD
ENDBRANCH  23  24
BRANCH  23  28
ATOM     28  C   UNL     1       0.131  -3.736  -1.460  0.00  0.00    +0.084 C 
BRANCH  28  29
ATOM     29  C   UNL     1      -1.167  -4.498  -1.385  0.00  0.00    +0.209 C 
ATOM     30  O   UNL     1      -1.734  -4.627  -0.321  0.00  0.00    -0.276 OA
ATOM     31  N   UNL     1      -1.698  -5.035  -2.501  0.00  0.00    -0.329 N 
ATOM     32  H   UNL     1      -1.245  -4.932  -3.352  0.00  0.00    +0.145 HD
ATOM     33  H   UNL     1      -2.534  -5.526  -2.453  0.00  0.00    +0.145 HD
ENDBRANCH  28  29
ENDBRANCH  23  28
ENDBRANCH   7  23
TORSDOF 6
