REMARK  Name = ZINC14165116
REMARK  8 active torsions:
REMARK  status: ('A' for Active; 'I' for Inactive)
REMARK    1  A    between atoms: C_1  and  C_2
REMARK    2  A    between atoms: C_2  and  S_3
REMARK    3  A    between atoms: S_3  and  C_4
REMARK    4  A    between atoms: C_9  and  C_21
REMARK    5  A    between atoms: C_15  and  C_20
REMARK    6  A    between atoms: C_24  and  O_29
REMARK    7  A    between atoms: C_25  and  O_27
REMARK    8  A    between atoms: O_27  and  C_28
REMARK                            x       y       z     vdW  Elec       q    Type
REMARK                         _______ _______ _______ _____ _____    ______ ____
ROOT
ATOM      1  C   UNL     1      -0.465  -2.110   0.131  0.00  0.00    +0.210 A 
ATOM      2  N   UNL     1      -0.946  -0.865   0.256  0.00  0.00    -0.187 NA
ATOM      3  C   UNL     1       0.002  -0.004   0.002  0.00  0.00    +0.219 A 
ATOM      4  N   UNL     1       1.129  -0.695  -0.302  0.00  0.00    -0.220 N 
ATOM      5  N   UNL     1       0.804  -2.047  -0.209  0.00  0.00    -0.141 NA
ATOM      6  C   UNL     1       2.391  -0.056  -0.651  0.00  0.00    +0.176 C 
ATOM      7  C   UNL     1       2.345   1.413  -0.291  0.00  0.00    +0.041 C 
ATOM      8  C   UNL     1       1.187   2.043   0.002  0.00  0.00    +0.020 C 
ATOM      9  N   UNL     1      -0.017   1.381   0.010  0.00  0.00    -0.287 N 
ATOM     10  C   UNL     1       1.169   3.517   0.333  0.00  0.00    +0.055 C 
ATOM     11  C   UNL     1       2.477   3.904   1.027  0.00  0.00    -0.001 C 
ATOM     12  C   UNL     1       3.640   3.564   0.089  0.00  0.00    +0.083 C 
ATOM     13  C   UNL     1       3.569   2.106  -0.270  0.00  0.00    +0.163 C 
ATOM     14  O   UNL     1       4.592   1.512  -0.548  0.00  0.00    -0.292 OA
ATOM     15  C   UNL     1       2.478   5.404   1.326  0.00  0.00    +0.008 C 
ATOM     16  H   UNL     1      -0.855   1.869   0.016  0.00  0.00    +0.155 HD
ENDROOT
BRANCH   6  17
ATOM     17  C   UNL     1       2.633  -0.201  -2.131  0.00  0.00    -0.015 A 
ATOM     18  C   UNL     1       1.725   0.323  -3.033  0.00  0.00    +0.010 A 
ATOM     19  C   UNL     1       1.945   0.198  -4.392  0.00  0.00    +0.049 A 
ATOM     20  C   UNL     1       3.071  -0.464  -4.853  0.00  0.00    +0.158 A 
ATOM     21  C   UNL     1       3.982  -0.997  -3.946  0.00  0.00    +0.162 A 
ATOM     22  C   UNL     1       3.759  -0.863  -2.585  0.00  0.00    +0.055 A 
BRANCH  21  23
ATOM     23  O   UNL     1       5.090  -1.647  -4.393  0.00  0.00    -0.491 OA
ATOM     24  C   UNL     1       5.981  -2.167  -3.405  0.00  0.00    +0.277 C 
ENDBRANCH  21  23
BRANCH  20  25
ATOM     25  O   UNL     1       3.286  -0.594  -6.190  0.00  0.00    -0.503 OA
ATOM     26  H   UNL     1       2.901  -1.393  -6.574  0.00  0.00    +0.292 HD
ENDBRANCH  20  25
ENDBRANCH   6  17
BRANCH   1  27
ATOM     27  S   UNL     1      -1.385  -3.592   0.383  0.00  0.00    -0.085 S 
BRANCH  27  29
ATOM     28  C   UNL     1      -3.958  -4.210   1.073  0.00  0.00    +0.016 C 
ATOM     29  C   UNL     1      -3.045  -3.008   0.824  0.00  0.00    +0.074 C 
ENDBRANCH  27  29
ENDBRANCH   1  27
TORSDOF 5
