REMARK  Name = ZINC16753277
REMARK  5 active torsions:
REMARK  status: ('A' for Active; 'I' for Inactive)
REMARK    1  A    between atoms: C_4  and  O_33
REMARK    2  A    between atoms: C_5  and  C_7
REMARK    3  A    between atoms: N_15  and  C_26
REMARK    4  A    between atoms: C_16  and  C_18
REMARK    5  A    between atoms: C_26  and  C_27
REMARK                            x       y       z     vdW  Elec       q    Type
REMARK                         _______ _______ _______ _____ _____    ______ ____
ROOT
ATOM      1  C   UNL     1       1.456  -2.572  -0.371  0.00  0.00    +0.102 A 
ATOM      2  C   UNL     1       0.293  -3.310  -0.129  0.00  0.00    +0.035 A 
ATOM      3  C   UNL     1       0.708  -4.615   0.059  0.00  0.00    +0.126 A 
ATOM      4  N   UNL     1       2.067  -4.604  -0.076  0.00  0.00    -0.272 N 
ATOM      5  H   UNL     1       2.640  -5.382   0.004  0.00  0.00    +0.189 HD
ATOM      6  N   UNL     1       2.472  -3.411  -0.329  0.00  0.00    -0.173 NA
ATOM      7  C   UNL     1      -0.473  -5.446   0.319  0.00  0.00    +0.266 C 
ATOM      8  O   UNL     1      -0.446  -6.644   0.526  0.00  0.00    -0.268 OA
ATOM      9  N   UNL     1      -1.589  -4.696   0.297  0.00  0.00    -0.283 N 
ATOM     10  C   UNL     1      -1.204  -3.306   0.017  0.00  0.00    +0.141 C 
ENDROOT
BRANCH  10  11
ATOM     11  C   UNL     1      -1.612  -2.414   1.161  0.00  0.00    -0.021 A 
ATOM     12  C   UNL     1      -1.108  -2.642   2.428  0.00  0.00    +0.007 A 
ATOM     13  C   UNL     1      -1.482  -1.825   3.478  0.00  0.00    +0.022 A 
ATOM     14  C   UNL     1      -2.360  -0.779   3.262  0.00  0.00    +0.059 A 
ATOM     15  C   UNL     1      -2.864  -0.550   1.993  0.00  0.00    +0.060 A 
ATOM     16  C   UNL     1      -2.485  -1.366   0.942  0.00  0.00    +0.027 A 
ATOM     17 CL   UNL     1      -3.967   0.762   1.720  0.00  0.00    -0.082 Cl
ATOM     18 CL   UNL     1      -2.830   0.247   4.581  0.00  0.00    -0.082 Cl
ENDBRANCH  10  11
BRANCH   1  23
ATOM     19  C   UNL     1       0.441   0.992  -1.012  0.00  0.00    +0.001 A 
ATOM     20  C   UNL     1       1.673   1.611  -1.126  0.00  0.00    +0.004 A 
ATOM     21  C   UNL     1       2.837   0.878  -0.996  0.00  0.00    +0.046 A 
ATOM     22  C   UNL     1       2.775  -0.484  -0.750  0.00  0.00    +0.126 A 
ATOM     23  C   UNL     1       1.532  -1.113  -0.634  0.00  0.00    +0.044 A 
ATOM     24  C   UNL     1       0.365  -0.365  -0.767  0.00  0.00    +0.014 A 
BRANCH  22  25
ATOM     25  O   UNL     1       3.919  -1.206  -0.622  0.00  0.00    -0.506 OA
ATOM     26  H   UNL     1       4.252  -1.259   0.285  0.00  0.00    +0.292 HD
ENDBRANCH  22  25
ENDBRANCH   1  23
BRANCH   9  27
ATOM     27  C   UNL     1      -2.954  -5.181   0.516  0.00  0.00    +0.140 C 
BRANCH  27  28
ATOM     28  C   UNL     1      -3.235  -5.255   2.018  0.00  0.00    +0.136 C 
ATOM     29  C   UNL     1      -4.623  -5.884   2.261  0.00  0.00    +0.035 C 
ATOM     30  C   UNL     1      -5.167  -5.036   3.443  0.00  0.00    +0.031 C 
ATOM     31  C   UNL     1      -4.553  -3.651   3.118  0.00  0.00    +0.160 C 
ATOM     32  O   UNL     1      -3.252  -3.935   2.574  0.00  0.00    -0.375 OA
ENDBRANCH  27  28
ENDBRANCH   9  27
TORSDOF 5
