REMARK  Name = ZINC04115153
REMARK  5 active torsions:
REMARK  status: ('A' for Active; 'I' for Inactive)
REMARK    1  A    between atoms: C_1  and  N_2
REMARK    2  A    between atoms: C_19  and  C_25
REMARK    3  A    between atoms: C_19  and  C_27
REMARK    4  A    between atoms: C_20  and  N_24
REMARK    5  A    between atoms: C_21  and  C_22
REMARK                            x       y       z     vdW  Elec       q    Type
REMARK                         _______ _______ _______ _____ _____    ______ ____
ROOT
ATOM      1  C   UNL     1      -0.013   1.086   0.008  0.00  0.00    +0.105 C 
ATOM      2  N   UNL     1      -0.700   1.560   1.217  0.00  0.00    -0.301 NA
ATOM      3  C   UNL     1      -0.070   1.013   2.431  0.00  0.00    +0.111 C 
ATOM      4  C   UNL     1      -0.927   1.407   3.609  0.00  0.00    -0.006 C 
ATOM      5  C   UNL     1      -1.586   2.551   3.595  0.00  0.00    -0.025 C 
ATOM      6  C   UNL     1      -1.489   3.537   2.466  0.00  0.00    +0.056 C 
ATOM      7  C   UNL     1      -0.718   3.024   1.271  0.00  0.00    +0.094 C 
ATOM      8  C   UNL     1      -2.901   3.980   2.096  0.00  0.00    +0.118 C 
ATOM      9  C   UNL     1      -3.725   2.821   1.630  0.00  0.00    -0.008 A 
ATOM     10  C   UNL     1      -4.109   1.660   2.265  0.00  0.00    +0.006 A 
ATOM     11  C   UNL     1      -4.891   0.771   1.536  0.00  0.00    +0.000 A 
ATOM     12  C   UNL     1      -5.264   1.043   0.235  0.00  0.00    +0.002 A 
ATOM     13  C   UNL     1      -4.881   2.208  -0.410  0.00  0.00    +0.023 A 
ATOM     14  C   UNL     1      -4.095   3.108   0.311  0.00  0.00    +0.038 A 
ATOM     15  N   UNL     1      -3.576   4.330  -0.079  0.00  0.00    -0.284 N 
ATOM     16  C   UNL     1      -2.859   4.913   0.904  0.00  0.00    +0.231 C 
ATOM     17  O   UNL     1      -2.288   5.982   0.844  0.00  0.00    -0.274 OA
ATOM     18  C   UNL     1      -3.555   4.677   3.284  0.00  0.00    +0.199 C 
ATOM     19  C   UNL     1      -3.432   3.865   4.539  0.00  0.00    +0.055 C 
ATOM     20  C   UNL     1      -2.513   2.880   4.706  0.00  0.00    +0.074 C 
ATOM     21  H   UNL     1      -3.770   4.713  -1.092  0.00  0.00    +0.155 HD
ENDROOT
BRANCH  19  22
ATOM     22  N   UNL     1      -4.290   4.132   5.569  0.00  0.00    -0.358 N 
ATOM     23  H   UNL     1      -4.224   3.554   6.503  0.00  0.00    +0.142 HD
ATOM     24  H   UNL     1      -5.045   4.924   5.465  0.00  0.00    +0.142 HD
ENDBRANCH  19  22
BRANCH  20  25
ATOM     25  C   UNL     1      -2.439   2.164   5.944  0.00  0.00    +0.101 C 
ATOM     26  N   UNL     1      -2.381   1.596   6.926  0.00  0.00    -0.191 NA
ENDBRANCH  20  25
BRANCH  18  27
ATOM     27  C   UNL     1      -2.908   5.983   3.491  0.00  0.00    +0.092 C 
ATOM     28  N   UNL     1      -2.408   6.990   3.651  0.00  0.00    -0.194 NA
ENDBRANCH  18  27
BRANCH  18  29
ATOM     29  C   UNL     1      -4.981   4.891   2.989  0.00  0.00    +0.092 C 
ATOM     30  N   UNL     1      -6.082   5.057   2.762  0.00  0.00    -0.194 NA
ENDBRANCH  18  29
TORSDOF 4
