REMARK  Name = ZINC42597139
REMARK  6 active torsions:
REMARK  status: ('A' for Active; 'I' for Inactive)
REMARK    1  A    between atoms: C_1  and  C_2
REMARK    2  A    between atoms: C_5  and  C_7
REMARK    3  A    between atoms: C_7  and  C_9
REMARK    4  A    between atoms: C_7  and  N_10
REMARK    5  A    between atoms: C_11  and  C_13
REMARK    6  A    between atoms: C_15  and  N_19
REMARK                            x       y       z     vdW  Elec       q    Type
REMARK                         _______ _______ _______ _____ _____    ______ ____
ROOT
ATOM      1  N   UNL     1       2.201  -4.137  -0.921  0.00  0.00    -0.303 N 
ATOM      2  C   UNL     1       2.539  -5.311  -1.489  0.00  0.00    +0.261 C 
ATOM      3  O   UNL     1       1.882  -6.310  -1.259  0.00  0.00    -0.269 OA
ATOM      4  H   UNL     1       2.725  -3.341  -1.103  0.00  0.00    +0.150 HD
ENDROOT
BRANCH   2   5
ATOM      5  C   UNL     1       3.699  -5.386  -2.383  0.00  0.00    +0.104 A 
ATOM      6  C   UNL     1       4.153  -6.515  -3.034  0.00  0.00    +0.055 A 
ATOM      7  C   UNL     1       5.278  -6.136  -3.780  0.00  0.00    +0.043 A 
ATOM      8  C   UNL     1       5.485  -4.809  -3.574  0.00  0.00    +0.106 A 
ATOM      9  N   UNL     1       4.526  -4.343  -2.730  0.00  0.00    -0.355 N 
ATOM     10  H   UNL     1       4.441  -3.427  -2.421  0.00  0.00    +0.166 HD
BRANCH   7  11
ATOM     11  N   UNL     1       6.055  -6.980  -4.596  0.00  0.00    -0.357 N 
ATOM     12  H   UNL     1       5.826  -7.919  -4.680  0.00  0.00    +0.142 HD
ATOM     13  H   UNL     1       6.819  -6.622  -5.075  0.00  0.00    +0.142 HD
ENDBRANCH   7  11
ENDBRANCH   2   5
BRANCH   1  14
ATOM     14  C   UNL     1       1.043  -4.062  -0.027  0.00  0.00    +0.107 C 
ATOM     15  C   UNL     1       1.465  -4.458   1.389  0.00  0.00    +0.033 C 
BRANCH  14  20
ATOM     16  C   UNL     1      -0.018   1.503   0.010  0.00  0.00    +0.051 C 
ATOM     17  C   UNL     1       0.002  -0.004   0.002  0.00  0.00    -0.013 A 
ATOM     18  C   UNL     1      -1.039  -0.872   0.002  0.00  0.00    +0.011 A 
ATOM     19  C   UNL     1      -0.780  -2.230  -0.007  0.00  0.00    +0.013 A 
ATOM     20  C   UNL     1       0.507  -2.653  -0.016  0.00  0.00    +0.010 A 
ATOM     21  S   UNL     1       1.404  -1.109  -0.018  0.00  0.00    -0.097 S 
ENDBRANCH  14  20
ENDBRANCH   1  14
TORSDOF 4
