REMARK  Name = ZINC20598573
REMARK  6 active torsions:
REMARK  status: ('A' for Active; 'I' for Inactive)
REMARK    1  A    between atoms: C_2  and  C_6
REMARK    2  A    between atoms: C_6  and  N_7
REMARK    3  A    between atoms: N_10  and  C_17
REMARK    4  A    between atoms: C_11  and  C_14
REMARK    5  A    between atoms: C_14  and  C_15
REMARK    6  A    between atoms: C_15  and  O_16
REMARK                            x       y       z     vdW  Elec       q    Type
REMARK                         _______ _______ _______ _____ _____    ______ ____
ROOT
ATOM      1  N   UNL     1      -2.145   4.481  -1.359  0.00  0.00    -0.300 NA
ATOM      2  C   UNL     1      -2.790   3.326  -1.999  0.00  0.00    +0.066 C 
ATOM      3  C   UNL     1      -3.340   3.744  -3.364  0.00  0.00    -0.062 C 
ATOM      4  N   UNL     1      -2.243   4.257  -4.196  0.00  0.00    +0.385 N 
ATOM      5  C   UNL     1      -1.598   5.412  -3.556  0.00  0.00    -0.052 C 
ATOM      6  C   UNL     1      -1.047   4.995  -2.190  0.00  0.00    +0.069 C 
ATOM      7  H   UNL     1      -1.491   3.461  -4.296  0.00  0.00    -0.081 HD
ENDROOT
BRANCH   4   8
ATOM      8  C   UNL     1      -2.718   4.599  -5.543  0.00  0.00    -0.068 C 
ATOM      9  C   UNL     1      -3.852   5.641  -5.455  0.00  0.00    -0.015 C 
ATOM     10  C   UNL     1      -4.833   5.230  -6.581  0.00  0.00    -0.002 C 
ATOM     11  C   UNL     1      -4.792   3.683  -6.524  0.00  0.00    -0.002 C 
ATOM     12  C   UNL     1      -3.315   3.354  -6.223  0.00  0.00    -0.015 C 
ENDBRANCH   4   8
BRANCH   1  13
ATOM     13  C   UNL     1      -1.670   4.139  -0.012  0.00  0.00    +0.139 C 
BRANCH  13  15
ATOM     14  C   UNL     1       0.757   3.386  -0.126  0.00  0.00    +0.106 A 
ATOM     15  C   UNL     1      -0.563   3.121  -0.113  0.00  0.00    +0.047 A 
ATOM     16  N   UNL     1      -0.721   1.793  -0.209  0.00  0.00    -0.349 N 
ATOM     17  C   UNL     1       0.452   1.224  -0.274  0.00  0.00    +0.171 A 
ATOM     18  N   UNL     1       1.401   2.183  -0.228  0.00  0.00    -0.352 N 
ATOM     19  H   UNL     1       2.500   2.148  -0.258  0.00  0.00    +0.166 HD
ATOM     20  H   UNL     1      -1.732   1.358  -0.222  0.00  0.00    +0.166 HD
ENDBRANCH  13  15
ENDBRANCH   1  13
BRANCH   5  21
ATOM     21  C   UNL     1      -0.451   5.910  -4.438  0.00  0.00    +0.014 C 
BRANCH  21  22
ATOM     22  C   UNL     1       0.166   7.163  -3.814  0.00  0.00    +0.154 C 
BRANCH  22  23
ATOM     23  O   UNL     1       1.156   7.697  -4.696  0.00  0.00    -0.395 OA
ATOM     24  H   UNL     1       1.711   8.604  -4.415  0.00  0.00    +0.209 HD
ENDBRANCH  22  23
ENDBRANCH  21  22
ENDBRANCH   5  21
TORSDOF 6
