REMARK  Name = ZINC63920417
REMARK  7 active torsions:
REMARK  status: ('A' for Active; 'I' for Inactive)
REMARK    1  A    between atoms: C_1  and  C_2
REMARK    2  A    between atoms: C_2  and  C_3
REMARK    3  A    between atoms: C_5  and  C_9
REMARK    4  A    between atoms: C_9  and  S_10
REMARK    5  A    between atoms: S_10  and  C_11
REMARK    6  A    between atoms: C_14  and  C_19
REMARK    7  A    between atoms: N_15  and  C_16
REMARK                            x       y       z     vdW  Elec       q    Type
REMARK                         _______ _______ _______ _____ _____    ______ ____
ROOT
ATOM      1  C   UNL     1       2.496  -5.370   2.007  0.00  0.00    +0.192 A 
ATOM      2  N   UNL     1       3.757  -5.575   2.358  0.00  0.00    -0.122 NA
ATOM      3  N   UNL     1       4.153  -6.723   1.936  0.00  0.00    -0.129 NA
ATOM      4  C   UNL     1       3.167  -7.325   1.286  0.00  0.00    +0.163 A 
ATOM      5  N   UNL     1       2.079  -6.470   1.323  0.00  0.00    -0.299 N 
ENDROOT
BRANCH   4   6
ATOM      6  C   UNL     1       3.215  -8.590   0.681  0.00  0.00    +0.025 C 
ATOM      7  C   UNL     1       4.300  -9.467   0.645  0.00  0.00    +0.006 A 
ATOM      8  C   UNL     1       5.609  -9.385   1.164  0.00  0.00    +0.010 A 
ATOM      9  C   UNL     1       6.475 -10.413   0.973  0.00  0.00    +0.001 A 
ATOM     10  C   UNL     1       6.103 -11.562   0.271  0.00  0.00    +0.002 A 
ATOM     11  C   UNL     1       4.862 -11.708  -0.255  0.00  0.00    +0.026 A 
ATOM     12  C   UNL     1       3.902 -10.675  -0.096  0.00  0.00    +0.043 A 
ATOM     13  N   UNL     1       2.652 -10.577  -0.503  0.00  0.00    -0.380 N 
ATOM     14  C   UNL     1       2.100  -9.291  -0.064  0.00  0.00    +0.152 C 
ATOM     15  H   UNL     1       2.172 -11.250  -1.010  0.00  0.00    +0.160 HD
ENDBRANCH   4   6
BRANCH   5  16
ATOM     16  C   UNL     1       0.754  -6.701   0.743  0.00  0.00    +0.091 C 
ATOM     17  C   UNL     1      -0.157  -5.486   0.557  0.00  0.00    +0.027 C 
ATOM     18  C   UNL     1      -0.460  -6.508   1.654  0.00  0.00    +0.027 C 
ENDBRANCH   5  16
BRANCH   1  19
ATOM     19  S   UNL     1       1.534  -3.939   2.366  0.00  0.00    -0.081 S 
BRANCH  19  20
ATOM     20  C   UNL     1       2.669  -2.867   3.290  0.00  0.00    +0.134 C 
BRANCH  20  23
ATOM     21  C   UNL     1       0.217  -0.762   2.498  0.00  0.00    +0.102 C 
ATOM     22  N   UNL     1       1.500  -0.865   2.463  0.00  0.00    -0.346 N 
ATOM     23  C   UNL     1       1.951  -1.570   3.670  0.00  0.00    +0.253 C 
ATOM     24  O   UNL     1       0.752  -1.860   4.407  0.00  0.00    -0.247 OA
ATOM     25  N   UNL     1      -0.305  -1.325   3.626  0.00  0.00    -0.252 N 
ATOM     26  H   UNL     1      -1.247  -1.356   3.856  0.00  0.00    +0.195 HD
ATOM     27  H   UNL     1       2.075  -0.533   1.756  0.00  0.00    +0.163 HD
BRANCH  21  29
ATOM     28  C   UNL     1      -0.758   1.393   1.753  0.00  0.00    +0.012 C 
ATOM     29  C   UNL     1      -0.606  -0.095   1.427  0.00  0.00    +0.070 C 
ENDBRANCH  21  29
ENDBRANCH  20  23
ENDBRANCH  19  20
ENDBRANCH   1  19
TORSDOF 6
