REMARK  Name = ZINC06866977
REMARK  10 active torsions:
REMARK  status: ('A' for Active; 'I' for Inactive)
REMARK    1  A    between atoms: C_1  and  C_2
REMARK    2  A    between atoms: C_7  and  S_15
REMARK    3  A    between atoms: C_12  and  C_14
REMARK    4  A    between atoms: S_15  and  N_18
REMARK    5  A    between atoms: N_18  and  C_19
REMARK    6  A    between atoms: N_18  and  C_20
REMARK    7  A    between atoms: C_20  and  C_21
REMARK    8  A    between atoms: N_23  and  C_24
REMARK    9  A    between atoms: N_23  and  C_25
REMARK   10  A    between atoms: C_25  and  C_26
REMARK                            x       y       z     vdW  Elec       q    Type
REMARK                         _______ _______ _______ _____ _____    ______ ____
ROOT
ATOM      1  S   UNL     1      -0.017   1.417   0.010  0.00  0.00    +0.061 S 
ATOM      2  O   UNL     1       0.002  -0.004   0.002  0.00  0.00    -0.153 OA
ATOM      3  O   UNL     1       1.172   2.195   0.003  0.00  0.00    -0.153 OA
ENDROOT
BRANCH   1   9
ATOM      4  C   UNL     1      -5.578   2.057  -4.816  0.00  0.00    +0.029 C 
ATOM      5  C   UNL     1      -4.094   1.708  -4.945  0.00  0.00    +0.083 C 
ATOM      6  C   UNL     1      -3.682   0.716  -3.845  0.00  0.00    +0.059 C 
ATOM      7  C   UNL     1      -2.619   1.445  -3.054  0.00  0.00    -0.022 A 
ATOM      8  C   UNL     1      -1.880   1.054  -1.954  0.00  0.00    +0.034 A 
ATOM      9  C   UNL     1      -0.954   1.915  -1.397  0.00  0.00    +0.106 A 
ATOM     10  C   UNL     1      -0.760   3.168  -1.950  0.00  0.00    +0.030 A 
ATOM     11  C   UNL     1      -1.492   3.561  -3.050  0.00  0.00    +0.026 A 
ATOM     12  C   UNL     1      -2.433   2.698  -3.615  0.00  0.00    +0.040 A 
ATOM     13  N   UNL     1      -3.268   2.898  -4.719  0.00  0.00    -0.268 N 
ATOM     14  C   UNL     1      -3.309   4.020  -5.464  0.00  0.00    +0.217 C 
ATOM     15  O   UNL     1      -4.072   4.096  -6.404  0.00  0.00    -0.276 OA
ATOM     16  C   UNL     1      -2.408   5.180  -5.129  0.00  0.00    +0.109 C 
ENDBRANCH   1   9
BRANCH   1  17
ATOM     17  N   UNL     1      -0.872   1.871   1.353  0.00  0.00    -0.171 NA
ATOM     18  C   UNL     1      -0.654   3.192   1.948  0.00  0.00    +0.132 C 
BRANCH  17  19
ATOM     19  C   UNL     1      -1.846   0.952   1.947  0.00  0.00    +0.205 C 
BRANCH  19  20
ATOM     20  C   UNL     1      -1.192   0.181   3.066  0.00  0.00    +0.231 C 
ATOM     21  O   UNL     1      -0.028   0.380   3.339  0.00  0.00    -0.274 OA
ATOM     22  N   UNL     1      -1.902  -0.729   3.761  0.00  0.00    -0.296 N 
ATOM     23  C   UNL     1      -3.309  -0.969   3.430  0.00  0.00    +0.132 C 
BRANCH  22  24
ATOM     24  C   UNL     1      -1.267  -1.478   4.848  0.00  0.00    +0.181 C 
BRANCH  24  25
ATOM     25  C   UNL     1      -1.438  -0.727   6.143  0.00  0.00    +0.122 A 
ATOM     26  C   UNL     1      -2.464  -0.863   7.002  0.00  0.00    +0.046 A 
ATOM     27  C   UNL     1      -2.222   0.026   8.074  0.00  0.00    +0.041 A 
ATOM     28  C   UNL     1      -1.063   0.653   7.806  0.00  0.00    +0.195 A 
ATOM     29  O   UNL     1      -0.589   0.189   6.638  0.00  0.00    -0.466 OA
ENDBRANCH  24  25
ENDBRANCH  22  24
ENDBRANCH  19  20
ENDBRANCH  17  19
ENDBRANCH   1  17
TORSDOF 6
