REMARK  Name = ZINC36375281
REMARK  5 active torsions:
REMARK  status: ('A' for Active; 'I' for Inactive)
REMARK    1  A    between atoms: C_1  and  C_2
REMARK    2  A    between atoms: C_5  and  O_30
REMARK    3  A    between atoms: C_10  and  C_28
REMARK    4  A    between atoms: C_18  and  C_23
REMARK    5  A    between atoms: C_28  and  O_29
REMARK                            x       y       z     vdW  Elec       q    Type
REMARK                         _______ _______ _______ _____ _____    ______ ____
ROOT
ATOM      1  C   UNL     1      -0.019   1.526   0.010  0.00  0.00    +0.009 C 
ATOM      2  C   UNL     1       0.002  -0.004   0.002  0.00  0.00    +0.006 C 
ATOM      3  C   UNL     1      -1.428  -0.530   0.129  0.00  0.00    +0.036 C 
ATOM      4  C   UNL     1      -2.121   0.149   1.316  0.00  0.00    +0.126 C 
ATOM      5  C   UNL     1      -1.095   0.409   2.408  0.00  0.00    +0.055 C 
ATOM      6  C   UNL     1      -0.603   1.859   2.482  0.00  0.00    +0.173 C 
ATOM      7  O   UNL     1      -0.738   1.715   3.911  0.00  0.00    -0.370 OA
ATOM      8  C   UNL     1      -1.690   0.637   3.808  0.00  0.00    +0.103 C 
ATOM      9  C   UNL     1      -1.367  -0.523   4.753  0.00  0.00    +0.038 C 
ATOM     10  C   UNL     1       0.138  -0.677   4.938  0.00  0.00    +0.003 C 
ATOM     11  C   UNL     1       0.903  -0.342   3.662  0.00  0.00    +0.005 C 
ATOM     12  C   UNL     1       0.034  -0.625   2.435  0.00  0.00    +0.020 C 
ATOM     13  C   UNL     1       0.853  -0.503   1.163  0.00  0.00    +0.078 C 
ATOM     14  C   UNL     1       1.481  -1.869   0.807  0.00  0.00    +0.068 C 
ATOM     15  C   UNL     1       2.922  -1.673   1.353  0.00  0.00    +0.211 C 
ATOM     16  O   UNL     1       3.168  -0.272   1.109  0.00  0.00    -0.456 OA
ATOM     17  C   UNL     1       2.037   0.410   1.384  0.00  0.00    +0.315 C 
ATOM     18  O   UNL     1       1.980   1.562   1.746  0.00  0.00    -0.250 OA
ENDROOT
BRANCH  15  19
ATOM     19  C   UNL     1       3.901  -2.532   0.595  0.00  0.00    +0.030 A 
ATOM     20  C   UNL     1       4.353  -3.820   0.963  0.00  0.00    +0.048 A 
ATOM     21  C   UNL     1       5.214  -4.218   0.009  0.00  0.00    +0.195 A 
ATOM     22  O   UNL     1       5.307  -3.245  -0.911  0.00  0.00    -0.471 OA
ATOM     23  C   UNL     1       4.510  -2.222  -0.564  0.00  0.00    +0.202 A 
ENDBRANCH  15  19
BRANCH   4  24
ATOM     24  O   UNL     1      -3.151  -0.704   1.819  0.00  0.00    -0.391 OA
ATOM     25  H   UNL     1      -3.838  -0.915   1.172  0.00  0.00    +0.210 HD
ENDBRANCH   4  24
BRANCH   8  26
ATOM     26  C   UNL     1      -3.156   1.072   3.821  0.00  0.00    +0.191 C 
BRANCH  26  27
ATOM     27  O   UNL     1      -3.589   1.250   5.171  0.00  0.00    -0.392 OA
ATOM     28  H   UNL     1      -4.511   1.526   5.255  0.00  0.00    +0.210 HD
ENDBRANCH  26  27
ENDBRANCH   8  26
TORSDOF 4
