REMARK  Name = ZINC09779444
REMARK  5 active torsions:
REMARK  status: ('A' for Active; 'I' for Inactive)
REMARK    1  A    between atoms: C_1  and  C_2
REMARK    2  A    between atoms: C_2  and  C_3
REMARK    3  A    between atoms: C_2  and  C_4
REMARK    4  A    between atoms: C_16  and  C_18
REMARK    5  A    between atoms: C_27  and  C_30
REMARK                            x       y       z     vdW  Elec       q    Type
REMARK                         _______ _______ _______ _____ _____    ______ ____
ROOT
ATOM      1  C   UNL     1       3.459   5.067  -2.075  0.00  0.00    +0.223 C 
ATOM      2  O   UNL     1       3.744   6.038  -2.744  0.00  0.00    -0.275 OA
ATOM      3  N   UNL     1       2.324   5.058  -1.348  0.00  0.00    -0.258 N 
ATOM      4  C   UNL     1       1.419   6.114  -1.473  0.00  0.00    +0.058 A 
ATOM      5  C   UNL     1       0.705   6.319  -2.642  0.00  0.00    +0.025 A 
ATOM      6  C   UNL     1      -0.265   7.306  -2.682  0.00  0.00    +0.002 A 
ATOM      7  C   UNL     1      -0.519   8.083  -1.565  0.00  0.00    +0.002 A 
ATOM      8  C   UNL     1       0.209   7.895  -0.403  0.00  0.00    +0.025 A 
ATOM      9  C   UNL     1       1.192   6.920  -0.368  0.00  0.00    +0.053 A 
ATOM     10  N   UNL     1       1.990   6.710   0.748  0.00  0.00    -0.316 N 
ATOM     11  C   UNL     1       1.988   5.582   1.504  0.00  0.00    +0.017 C 
ATOM     12  C   UNL     1       2.023   4.332   1.013  0.00  0.00    +0.037 C 
ATOM     13  C   UNL     1       2.062   3.955  -0.449  0.00  0.00    +0.147 C 
ATOM     14  C   UNL     1       2.021   3.222   1.890  0.00  0.00    +0.163 C 
ATOM     15  O   UNL     1       2.073   2.102   1.420  0.00  0.00    -0.292 OA
ATOM     16  C   UNL     1       1.958   3.379   3.380  0.00  0.00    +0.088 C 
ATOM     17  C   UNL     1       1.217   4.683   3.701  0.00  0.00    +0.032 C 
ATOM     18  C   UNL     1       1.959   5.822   3.004  0.00  0.00    +0.059 C 
ATOM     19  H   UNL     1       2.595   7.423   1.007  0.00  0.00    +0.152 HD
ENDROOT
BRANCH  13  20
ATOM     20  C   UNL     1       0.735   3.343  -0.819  0.00  0.00    -0.022 A 
ATOM     21  C   UNL     1      -0.414   4.111  -0.786  0.00  0.00    +0.006 A 
ATOM     22  C   UNL     1      -1.630   3.549  -1.126  0.00  0.00    +0.000 A 
ATOM     23  C   UNL     1      -1.699   2.218  -1.494  0.00  0.00    +0.000 A 
ATOM     24  C   UNL     1      -0.549   1.452  -1.532  0.00  0.00    +0.000 A 
ATOM     25  C   UNL     1       0.668   2.014  -1.192  0.00  0.00    +0.006 A 
ENDBRANCH  13  20
BRANCH  17  26
ATOM     26  C   UNL     1       1.209   4.914   5.190  0.00  0.00    -0.044 A 
ATOM     27  C   UNL     1       2.402   4.996   5.883  0.00  0.00    +0.004 A 
ATOM     28  C   UNL     1       2.395   5.213   7.249  0.00  0.00    +0.000 A 
ATOM     29  C   UNL     1       1.195   5.338   7.922  0.00  0.00    +0.000 A 
ATOM     30  C   UNL     1       0.001   5.250   7.230  0.00  0.00    +0.000 A 
ATOM     31  C   UNL     1       0.009   5.038   5.864  0.00  0.00    +0.004 A 
ENDBRANCH  17  26
BRANCH   1  33
ATOM     32  C   UNL     1       5.404   3.999  -3.182  0.00  0.00    +0.017 C 
ATOM     33  C   UNL     1       4.373   3.869  -2.059  0.00  0.00    +0.069 C 
ATOM     34  C   UNL     1       5.093   3.796  -0.711  0.00  0.00    +0.017 C 
ENDBRANCH   1  33
TORSDOF 3
