REMARK  Name = ZINC39272637
REMARK  8 active torsions:
REMARK  status: ('A' for Active; 'I' for Inactive)
REMARK    1  A    between atoms: C_1  and  C_2
REMARK    2  A    between atoms: C_5  and  C_8
REMARK    3  A    between atoms: C_8  and  N_9
REMARK    4  A    between atoms: C_10  and  C_36
REMARK    5  A    between atoms: C_12  and  C_35
REMARK    6  A    between atoms: C_14  and  C_26
REMARK    7  A    between atoms: C_16  and  N_18
REMARK    8  A    between atoms: C_19  and  C_21
REMARK                            x       y       z     vdW  Elec       q    Type
REMARK                         _______ _______ _______ _____ _____    ______ ____
ROOT
ATOM      1  N   UNL     1       1.568  -5.249  -0.371  0.00  0.00    -0.277 NA
ATOM      2  C   UNL     1       2.506  -4.685  -1.359  0.00  0.00    +0.059 C 
ATOM      3  C   UNL     1       3.314  -5.861  -1.945  0.00  0.00    +0.016 C 
ATOM      4  C   UNL     1       3.187  -6.953  -0.850  0.00  0.00    +0.094 C 
ATOM      5  C   UNL     1       1.744  -6.717  -0.339  0.00  0.00    +0.155 C 
ATOM      6  C   UNL     1       2.700  -6.337  -3.263  0.00  0.00    +0.010 C 
ATOM      7  C   UNL     1       3.447  -3.692  -0.674  0.00  0.00    +0.024 C 
ENDROOT
BRANCH   4   8
ATOM      8  C   UNL     1       3.332  -8.331  -1.443  0.00  0.00    +0.115 A 
ATOM      9  N   UNL     1       2.347  -9.147  -1.682  0.00  0.00    -0.232 NA
ATOM     10  C   UNL     1       2.828 -10.300  -2.215  0.00  0.00    +0.089 A 
ATOM     11  C   UNL     1       2.228 -11.484  -2.649  0.00  0.00    +0.030 A 
ATOM     12  C   UNL     1       2.999 -12.493  -3.153  0.00  0.00    +0.002 A 
ATOM     13  C   UNL     1       4.377 -12.355  -3.239  0.00  0.00    +0.002 A 
ATOM     14  C   UNL     1       4.991 -11.195  -2.816  0.00  0.00    +0.028 A 
ATOM     15  C   UNL     1       4.223 -10.159  -2.302  0.00  0.00    +0.066 A 
ATOM     16  N   UNL     1       4.511  -8.901  -1.811  0.00  0.00    -0.341 N 
ATOM     17  H   UNL     1       5.391  -8.499  -1.739  0.00  0.00    +0.167 HD
ENDBRANCH   4   8
BRANCH   5  18
ATOM     18  N   UNL     1       0.776  -7.366  -1.227  0.00  0.00    -0.293 N 
ATOM     19  C   UNL     1      -0.305  -7.983  -0.709  0.00  0.00    +0.281 C 
ATOM     20  O   UNL     1      -0.476  -8.001   0.496  0.00  0.00    -0.267 OA
ATOM     21  H   UNL     1       0.912  -7.352  -2.187  0.00  0.00    +0.151 HD
BRANCH  19  22
ATOM     22  C   UNL     1      -1.274  -8.633  -1.597  0.00  0.00    +0.189 A 
ATOM     23  C   UNL     1      -2.408  -9.286  -1.207  0.00  0.00    +0.054 A 
ATOM     24  C   UNL     1      -3.030  -9.748  -2.377  0.00  0.00    +0.042 A 
ATOM     25  C   UNL     1      -2.259  -9.362  -3.417  0.00  0.00    +0.196 A 
ATOM     26  O   UNL     1      -1.204  -8.686  -2.943  0.00  0.00    -0.458 OA
ENDBRANCH  19  22
ENDBRANCH   5  18
BRANCH   1  27
ATOM     27  C   UNL     1       0.181  -4.893  -0.699  0.00  0.00    +0.121 C 
BRANCH  27  32
ATOM     28  C   UNL     1      -0.600   0.773   0.127  0.00  0.00    +0.044 C 
ATOM     29  C   UNL     1      -0.397  -0.704  -0.088  0.00  0.00    -0.050 A 
ATOM     30  C   UNL     1       0.019  -1.172  -1.321  0.00  0.00    +0.003 A 
ATOM     31  C   UNL     1       0.206  -2.528  -1.518  0.00  0.00    +0.005 A 
ATOM     32  C   UNL     1      -0.022  -3.415  -0.483  0.00  0.00    -0.033 A 
ATOM     33  C   UNL     1      -0.437  -2.947   0.750  0.00  0.00    +0.005 A 
ATOM     34  C   UNL     1      -0.620  -1.591   0.948  0.00  0.00    +0.003 A 
ENDBRANCH  27  32
ENDBRANCH   1  27
TORSDOF 5
