REMARK  Name = ZINC63003572
REMARK  6 active torsions:
REMARK  status: ('A' for Active; 'I' for Inactive)
REMARK    1  A    between atoms: C_4  and  C_7
REMARK    2  A    between atoms: C_7  and  C_9
REMARK    3  A    between atoms: C_7  and  N_11
REMARK    4  A    between atoms: C_9  and  O_10
REMARK    5  A    between atoms: N_11  and  S_12
REMARK    6  A    between atoms: S_12  and  C_15
REMARK                            x       y       z     vdW  Elec       q    Type
REMARK                         _______ _______ _______ _____ _____    ______ ____
ROOT
ATOM      1  N   UNL     1       3.699  -1.818  -0.845  0.00  0.00    -0.180 NA
ATOM      2  H   UNL     1       2.840  -2.268  -0.858  0.00  0.00    +0.149 HD
ENDROOT
BRANCH   1   3
ATOM      3  S   UNL     1       4.880  -2.260  -1.918  0.00  0.00    +0.062 S 
ATOM      4  O   UNL     1       6.068  -2.448  -1.160  0.00  0.00    -0.153 OA
ATOM      5  O   UNL     1       4.327  -3.284  -2.733  0.00  0.00    -0.153 OA
BRANCH   3   6
ATOM      6  C   UNL     1       5.170  -0.878  -2.973  0.00  0.00    +0.143 A 
ATOM      7  C   UNL     1       6.397  -0.235  -2.966  0.00  0.00    +0.048 A 
ATOM      8  C   UNL     1       6.580   0.848  -3.814  0.00  0.00    +0.038 A 
ATOM      9  C   UNL     1       5.539   1.247  -4.632  0.00  0.00    +0.127 A 
ATOM     10  N   UNL     1       4.383   0.612  -4.611  0.00  0.00    -0.240 NA
ATOM     11  C   UNL     1       4.176  -0.426  -3.822  0.00  0.00    +0.155 A 
ATOM     12 CL   UNL     1       2.636  -1.227  -3.846  0.00  0.00    -0.060 Cl
ATOM     13 BR   UNL     1       8.232   1.767  -3.850  0.00  0.00    -0.049 Br
ENDBRANCH   3   6
ENDBRANCH   1   3
BRANCH   1  14
ATOM     14  C   UNL     1       3.952  -0.748   0.123  0.00  0.00    +0.132 C 
BRANCH  14  18
ATOM     15  C   UNL     1       0.384   1.533   0.686  0.00  0.00    +0.000 A 
ATOM     16  C   UNL     1       1.609   2.170   0.623  0.00  0.00    +0.000 A 
ATOM     17  C   UNL     1       2.764   1.432   0.441  0.00  0.00    +0.005 A 
ATOM     18  C   UNL     1       2.693   0.057   0.323  0.00  0.00    -0.027 A 
ATOM     19  C   UNL     1       1.468  -0.581   0.387  0.00  0.00    +0.005 A 
ATOM     20  C   UNL     1       0.314   0.158   0.568  0.00  0.00    +0.000 A 
ENDBRANCH  14  18
BRANCH  14  21
ATOM     21  C   UNL     1       4.383  -1.359   1.458  0.00  0.00    +0.181 C 
BRANCH  21  22
ATOM     22  O   UNL     1       3.304  -2.117   2.006  0.00  0.00    -0.393 OA
ATOM     23  H   UNL     1       3.507  -2.534   2.854  0.00  0.00    +0.209 HD
ENDBRANCH  21  22
ENDBRANCH  14  21
ENDBRANCH   1  14
TORSDOF 6
