REMARK  Name = ZINC63696900
REMARK  17 active torsions:
REMARK  status: ('A' for Active; 'I' for Inactive)
REMARK    1  A    between atoms: C_1  and  C_2
REMARK    2  A    between atoms: C_2  and  O_3
REMARK    3  A    between atoms: O_3  and  C_4
REMARK    4  A    between atoms: C_4  and  C_6
REMARK    5  A    between atoms: C_8  and  C_36
REMARK    6  A    between atoms: C_9  and  C_13
REMARK    7  A    between atoms: C_10  and  C_12
REMARK    8  A    between atoms: C_13  and  N_14
REMARK    9  A    between atoms: N_14  and  C_15
REMARK   10  A    between atoms: C_15  and  C_16
REMARK   11  A    between atoms: C_22  and  C_24
REMARK   12  A    between atoms: C_26  and  O_34
REMARK   13  A    between atoms: C_27  and  O_32
REMARK   14  A    between atoms: C_28  and  O_30
REMARK   15  A    between atoms: O_30  and  C_31
REMARK   16  A    between atoms: O_32  and  C_33
REMARK   17  A    between atoms: O_34  and  C_35
REMARK                            x       y       z     vdW  Elec       q    Type
REMARK                         _______ _______ _______ _____ _____    ______ ____
ROOT
ATOM      1  N   UNL     1       4.592  -5.202  -4.582  0.00  0.00    -0.291 N 
ATOM      2  C   UNL     1       5.809  -4.727  -4.913  0.00  0.00    +0.247 C 
ATOM      3  O   UNL     1       5.914  -3.637  -5.440  0.00  0.00    -0.270 OA
ENDROOT
BRANCH   2   4
ATOM      4  C   UNL     1       7.015  -5.532  -4.635  0.00  0.00    +0.044 A 
ATOM      5  C   UNL     1       7.941  -5.778  -5.652  0.00  0.00    +0.062 A 
ATOM      6  C   UNL     1       9.070  -6.531  -5.389  0.00  0.00    +0.166 A 
ATOM      7  C   UNL     1       9.284  -7.045  -4.113  0.00  0.00    +0.204 A 
ATOM      8  C   UNL     1       8.363  -6.801  -3.098  0.00  0.00    +0.166 A 
ATOM      9  C   UNL     1       7.235  -6.043  -3.354  0.00  0.00    +0.062 A 
BRANCH   8  10
ATOM     10  O   UNL     1       8.575  -7.304  -1.852  0.00  0.00    -0.491 OA
ATOM     11  C   UNL     1       7.588  -7.015  -0.859  0.00  0.00    +0.277 C 
ENDBRANCH   8  10
BRANCH   7  12
ATOM     12  O   UNL     1      10.395  -7.785  -3.857  0.00  0.00    -0.488 OA
ATOM     13  C   UNL     1      11.557  -7.081  -3.415  0.00  0.00    +0.277 C 
ENDBRANCH   7  12
BRANCH   6  14
ATOM     14  O   UNL     1       9.972  -6.772  -6.378  0.00  0.00    -0.491 OA
ATOM     15  C   UNL     1       9.752  -6.117  -7.629  0.00  0.00    +0.277 C 
ENDBRANCH   6  14
ENDBRANCH   2   4
BRANCH   1  16
ATOM     16  C   UNL     1       3.390  -4.432  -4.916  0.00  0.00    +0.141 C 
BRANCH  16  20
ATOM     17  C   UNL     1       2.268  -2.499  -1.782  0.00  0.00    +0.132 C 
ATOM     18  N   UNL     1       2.952  -1.673  -2.518  0.00  0.00    -0.249 NA
ATOM     19  C   UNL     1       3.408  -2.217  -3.651  0.00  0.00    +0.040 C 
ATOM     20  C   UNL     1       3.058  -3.501  -3.778  0.00  0.00    -0.023 C 
ATOM     21  C   UNL     1       2.260  -3.820  -2.527  0.00  0.00    +0.071 C 
ATOM     22  C   UNL     1       0.831  -4.229  -2.889  0.00  0.00    +0.019 C 
ATOM     23  C   UNL     1       4.226  -1.467  -4.670  0.00  0.00    +0.065 C 
BRANCH  17  24
ATOM     24  C   UNL     1       1.635  -2.211  -0.485  0.00  0.00    +0.354 C 
ATOM     25  O   UNL     1       1.027  -3.085   0.101  0.00  0.00    -0.244 OA
BRANCH  24  26
ATOM     26  O   UNL     1       1.731  -0.979   0.054  0.00  0.00    -0.461 OA
BRANCH  26  28
ATOM     27  C   UNL     1       1.308   0.676   1.763  0.00  0.00    +0.048 C 
ATOM     28  C   UNL     1       1.093  -0.771   1.315  0.00  0.00    +0.229 C 
ENDBRANCH  26  28
ENDBRANCH  24  26
ENDBRANCH  17  24
ENDBRANCH  16  20
ENDBRANCH   1  16
BRANCH   1  29
ATOM     29  C   UNL     1       4.470  -6.487  -3.889  0.00  0.00    +0.140 C 
BRANCH  29  30
ATOM     30  C   UNL     1       4.492  -7.623  -4.914  0.00  0.00    +0.136 C 
ATOM     31  C   UNL     1       4.397  -8.994  -4.198  0.00  0.00    +0.035 C 
ATOM     32  C   UNL     1       3.799  -9.875  -5.328  0.00  0.00    +0.031 C 
ATOM     33  C   UNL     1       2.876  -8.880  -6.065  0.00  0.00    +0.160 C 
ATOM     34  O   UNL     1       3.332  -7.556  -5.758  0.00  0.00    -0.375 OA
ENDBRANCH  29  30
ENDBRANCH   1  29
TORSDOF 11
