REMARK  Name = ZINC09885597
REMARK  10 active torsions:
REMARK  status: ('A' for Active; 'I' for Inactive)
REMARK    1  A    between atoms: C_1  and  C_2
REMARK    2  A    between atoms: C_4  and  N_11
REMARK    3  A    between atoms: C_6  and  C_8
REMARK    4  A    between atoms: C_8  and  C_9
REMARK    5  A    between atoms: C_8  and  C_10
REMARK    6  A    between atoms: C_16  and  C_18
REMARK    7  A    between atoms: C_16  and  C_19
REMARK    8  A    between atoms: C_16  and  N_67
REMARK    9  A    between atoms: N_21  and  C_22
REMARK   10  A    between atoms: C_23  and  C_32
REMARK                            x       y       z     vdW  Elec       q    Type
REMARK                         _______ _______ _______ _____ _____    ______ ____
ROOT
ATOM      1  C   UNL     1       6.647  -3.349  -1.137  0.00  0.00    +0.017 C 
ATOM      2  C   UNL     1       6.935  -2.357  -2.266  0.00  0.00    -0.004 C 
ENDROOT
BRANCH   1   8
ATOM      3  N   UNL     1       2.983  -2.671   0.853  0.00  0.00    -0.319 N 
ATOM      4  C   UNL     1       3.258  -1.898  -0.366  0.00  0.00    +0.088 C 
ATOM      5  C   UNL     1       4.763  -1.909  -0.646  0.00  0.00    -0.059 C 
ATOM      6  C   UNL     1       4.946  -4.071   0.427  0.00  0.00    -0.059 C 
ATOM      7  C   UNL     1       3.441  -4.059   0.707  0.00  0.00    +0.088 C 
ATOM      8  N   UNL     1       5.205  -3.310  -0.813  0.00  0.00    +0.389 N 
ATOM      9  H   UNL     1       4.678  -3.737  -1.584  0.00  0.00    -0.081 HD
BRANCH   3  13
ATOM     10  C   UNL     1      -1.085  -0.106   1.900  0.00  0.00    +0.066 C 
ATOM     11  C   UNL     1      -0.347  -1.402   1.688  0.00  0.00    +0.044 A 
ATOM     12  C   UNL     1       0.996  -1.397   1.365  0.00  0.00    +0.066 A 
ATOM     13  C   UNL     1       1.638  -2.623   1.178  0.00  0.00    +0.125 A 
ATOM     14  N   UNL     1       0.936  -3.744   1.318  0.00  0.00    -0.217 NA
ATOM     15  C   UNL     1      -0.344  -3.702   1.628  0.00  0.00    +0.134 A 
ATOM     16  N   UNL     1      -0.978  -2.561   1.811  0.00  0.00    -0.237 NA
BRANCH  15  17
ATOM     17  C   UNL     1      -1.104  -4.995   1.778  0.00  0.00    +0.051 C 
ATOM     18  C   UNL     1      -1.667  -5.093   3.197  0.00  0.00    +0.015 C 
ATOM     19  C   UNL     1      -2.253  -5.031   0.770  0.00  0.00    +0.015 C 
ENDBRANCH  15  17
ENDBRANCH   3  13
ENDBRANCH   1   8
BRANCH   1  20
ATOM     20  C   UNL     1       7.470  -2.986   0.072  0.00  0.00    +0.204 C 
ATOM     21  O   UNL     1       7.013  -2.243   0.915  0.00  0.00    -0.277 OA
ATOM     22  N   UNL     1       8.713  -3.487   0.217  0.00  0.00    -0.280 N 
ATOM     23  H   UNL     1       9.078  -4.081  -0.457  0.00  0.00    +0.155 HD
BRANCH  22  24
ATOM     24  C   UNL     1       9.470  -3.152   1.331  0.00  0.00    +0.090 A 
ATOM     25  C   UNL     1      10.753  -3.562   1.654  0.00  0.00    +0.084 A 
ATOM     26  C   UNL     1      11.333  -3.062   2.893  0.00  0.00    -0.018 A 
ATOM     27  C   UNL     1      10.530  -2.243   3.607  0.00  0.00    -0.004 A 
ATOM     28  S   UNL     1       9.043  -2.116   2.651  0.00  0.00    -0.077 S 
ATOM     29  C   UNL     1      10.827  -1.585   4.919  0.00  0.00    +0.043 C 
ATOM     30  C   UNL     1      12.201  -0.906   4.844  0.00  0.00    +0.005 C 
ATOM     31  C   UNL     1      13.262  -1.913   5.274  0.00  0.00    +0.001 C 
ATOM     32  C   UNL     1      12.849  -3.323   4.858  0.00  0.00    +0.005 C 
ATOM     33  C   UNL     1      12.744  -3.422   3.340  0.00  0.00    +0.037 C 
BRANCH  25  34
ATOM     34  C   UNL     1      11.485  -4.446   0.799  0.00  0.00    +0.102 C 
ATOM     35  N   UNL     1      12.066  -5.148   0.120  0.00  0.00    -0.191 NA
ENDBRANCH  25  34
ENDBRANCH  22  24
ENDBRANCH   1  20
TORSDOF 6
