REMARK  Name = ZINC09129742
REMARK  11 active torsions:
REMARK  status: ('A' for Active; 'I' for Inactive)
REMARK    1  A    between atoms: C_1  and  C_2
REMARK    2  A    between atoms: C_2  and  C_3
REMARK    3  A    between atoms: C_15  and  C_17
REMARK    4  A    between atoms: C_20  and  O_27
REMARK    5  A    between atoms: C_21  and  O_25
REMARK    6  A    between atoms: C_22  and  O_23
REMARK    7  A    between atoms: O_23  and  C_24
REMARK    8  A    between atoms: O_25  and  C_26
REMARK    9  A    between atoms: O_27  and  C_28
REMARK   10  A    between atoms: C_32  and  C_34
REMARK   11  A    between atoms: C_32  and  C_35
REMARK                            x       y       z     vdW  Elec       q    Type
REMARK                         _______ _______ _______ _____ _____    ______ ____
ROOT
ATOM      1  C   UNL     1       3.138   1.253  -0.961  0.00  0.00    +0.220 C 
ATOM      2  O   UNL     1       4.177   0.628  -0.920  0.00  0.00    -0.275 OA
ATOM      3  N   UNL     1       2.313   1.260   0.104  0.00  0.00    -0.258 N 
ATOM      4  C   UNL     1       1.122   1.982   0.045  0.00  0.00    +0.058 A 
ATOM      5  C   UNL     1       1.123   3.368  -0.020  0.00  0.00    +0.025 A 
ATOM      6  C   UNL     1      -0.081   4.050   0.001  0.00  0.00    +0.002 A 
ATOM      7  C   UNL     1      -1.277   3.361   0.084  0.00  0.00    +0.002 A 
ATOM      8  C   UNL     1      -1.282   1.977   0.126  0.00  0.00    +0.025 A 
ATOM      9  C   UNL     1      -0.080   1.293   0.087  0.00  0.00    +0.053 A 
ATOM     10  N   UNL     1      -0.013  -0.096   0.077  0.00  0.00    -0.316 N 
ATOM     11  C   UNL     1       0.546  -0.850   1.058  0.00  0.00    +0.017 C 
ATOM     12  C   UNL     1       1.744  -0.626   1.619  0.00  0.00    +0.037 C 
ATOM     13  C   UNL     1       2.677   0.517   1.292  0.00  0.00    +0.150 C 
ATOM     14  C   UNL     1       2.246  -1.507   2.607  0.00  0.00    +0.163 C 
ATOM     15  O   UNL     1       3.327  -1.268   3.108  0.00  0.00    -0.292 OA
ATOM     16  C   UNL     1       1.495  -2.723   3.057  0.00  0.00    +0.086 C 
ATOM     17  C   UNL     1       0.589  -3.193   1.913  0.00  0.00    -0.023 C 
ATOM     18  C   UNL     1      -0.308  -2.020   1.519  0.00  0.00    +0.058 C 
ATOM     19  C   UNL     1       1.442  -3.617   0.716  0.00  0.00    +0.011 C 
ATOM     20  C   UNL     1      -0.269  -4.370   2.380  0.00  0.00    +0.011 C 
ATOM     21  H   UNL     1      -0.395  -0.559  -0.685  0.00  0.00    +0.152 HD
ENDROOT
BRANCH  13  22
ATOM     22  C   UNL     1       2.700   1.466   2.462  0.00  0.00    +0.023 A 
ATOM     23  C   UNL     1       1.570   2.196   2.782  0.00  0.00    +0.013 A 
ATOM     24  C   UNL     1       1.586   3.067   3.855  0.00  0.00    +0.050 A 
ATOM     25  C   UNL     1       2.737   3.213   4.615  0.00  0.00    +0.165 A 
ATOM     26  C   UNL     1       3.874   2.481   4.298  0.00  0.00    +0.204 A 
ATOM     27  C   UNL     1       3.853   1.602   3.221  0.00  0.00    +0.170 A 
BRANCH  27  28
ATOM     28  O   UNL     1       4.962   0.879   2.909  0.00  0.00    -0.491 OA
ATOM     29  C   UNL     1       5.886   1.472   1.994  0.00  0.00    +0.277 C 
ENDBRANCH  27  28
BRANCH  26  30
ATOM     30  O   UNL     1       5.005   2.621   5.042  0.00  0.00    -0.488 OA
ATOM     31  C   UNL     1       5.155   1.749   6.164  0.00  0.00    +0.277 C 
ENDBRANCH  26  30
BRANCH  25  32
ATOM     32  O   UNL     1       2.751   4.070   5.671  0.00  0.00    -0.491 OA
ATOM     33  C   UNL     1       1.546   4.788   5.940  0.00  0.00    +0.277 C 
ENDBRANCH  25  32
ENDBRANCH  13  22
BRANCH   1  35
ATOM     34  C   UNL     1       3.870   1.849  -3.254  0.00  0.00    +0.013 C 
ATOM     35  C   UNL     1       2.771   2.023  -2.204  0.00  0.00    +0.093 C 
ENDBRANCH   1  35
TORSDOF 5
