REMARK  Name = ZINC13756385
REMARK  10 active torsions:
REMARK  status: ('A' for Active; 'I' for Inactive)
REMARK    1  A    between atoms: C_1  and  C_2
REMARK    2  A    between atoms: C_5  and  S_8
REMARK    3  A    between atoms: S_8  and  N_11
REMARK    4  A    between atoms: N_11  and  C_12
REMARK    5  A    between atoms: C_12  and  C_14
REMARK    6  A    between atoms: C_12  and  C_15
REMARK    7  A    between atoms: C_15  and  O_17
REMARK    8  A    between atoms: O_17  and  C_18
REMARK    9  A    between atoms: C_25  and  C_36
REMARK   10  A    between atoms: C_26  and  C_29
REMARK                            x       y       z     vdW  Elec       q    Type
REMARK                         _______ _______ _______ _____ _____    ______ ____
ROOT
ATOM      1  C   UNL     1       2.231   1.085  -0.048  0.00  0.00    +0.135 A 
ATOM      2  C   UNL     1       2.066  -0.296  -0.121  0.00  0.00    +0.047 A 
ATOM      3  C   UNL     1       3.155  -1.118  -0.177  0.00  0.00    +0.019 A 
ATOM      4  C   UNL     1       4.439  -0.571  -0.148  0.00  0.00    +0.065 A 
ATOM      5  C   UNL     1       4.616   0.821  -0.068  0.00  0.00    +0.142 A 
ATOM      6  C   UNL     1       3.498   1.643  -0.018  0.00  0.00    +0.093 A 
ATOM      7  O   UNL     1       5.856   1.348  -0.040  0.00  0.00    -0.459 OA
ATOM      8  C   UNL     1       6.968   0.610  -0.085  0.00  0.00    +0.114 A 
ATOM      9  C   UNL     1       6.942  -0.746  -0.163  0.00  0.00    +0.067 A 
ATOM     10  C   UNL     1       5.637  -1.428  -0.200  0.00  0.00    +0.200 A 
ATOM     11  O   UNL     1       5.553  -2.642  -0.270  0.00  0.00    -0.286 OA
ATOM     12  C   UNL     1       8.303   1.308  -0.047  0.00  0.00    +0.087 C 
ENDROOT
BRANCH   9  13
ATOM     13  C   UNL     1       8.204  -1.524  -0.210  0.00  0.00    -0.011 A 
ATOM     14  C   UNL     1       9.071  -1.517   0.881  0.00  0.00    +0.011 A 
ATOM     15  C   UNL     1      10.241  -2.248   0.835  0.00  0.00    +0.039 A 
ATOM     16  C   UNL     1      10.559  -2.978  -0.298  0.00  0.00    +0.123 A 
ATOM     17  C   UNL     1       9.703  -2.984  -1.387  0.00  0.00    +0.039 A 
ATOM     18  C   UNL     1       8.528  -2.261  -1.348  0.00  0.00    +0.011 A 
ATOM     19  F   UNL     1      11.708  -3.687  -0.341  0.00  0.00    -0.205 F 
ENDBRANCH   9  13
BRANCH   1  20
ATOM     20  O   UNL     1       1.139   1.891   0.001  0.00  0.00    -0.425 OA
BRANCH  20  21
ATOM     21  C   UNL     1       0.805   2.534  -1.129  0.00  0.00    +0.331 C 
ATOM     22  O   UNL     1       1.515   2.452  -2.103  0.00  0.00    -0.249 OA
BRANCH  21  23
ATOM     23  C   UNL     1      -0.452   3.363  -1.181  0.00  0.00    +0.182 C 
ATOM     24  C   UNL     1      -0.376   4.471  -0.128  0.00  0.00    +0.037 C 
BRANCH  23  25
ATOM     25  N   UNL     1      -0.588   3.962  -2.511  0.00  0.00    -0.176 NA
ATOM     26  H   UNL     1       0.202   4.244  -2.999  0.00  0.00    +0.149 HD
BRANCH  25  27
ATOM     27  S   UNL     1      -2.089   4.158  -3.182  0.00  0.00    +0.059 S 
ATOM     28  O   UNL     1      -1.892   4.781  -4.444  0.00  0.00    -0.153 OA
ATOM     29  O   UNL     1      -2.762   2.914  -3.043  0.00  0.00    -0.153 OA
BRANCH  27  34
ATOM     30  C   UNL     1      -5.072   8.125   0.249  0.00  0.00    +0.044 C 
ATOM     31  C   UNL     1      -4.327   7.135  -0.608  0.00  0.00    -0.050 A 
ATOM     32  C   UNL     1      -3.567   7.577  -1.674  0.00  0.00    +0.005 A 
ATOM     33  C   UNL     1      -2.884   6.668  -2.460  0.00  0.00    +0.029 A 
ATOM     34  C   UNL     1      -2.960   5.317  -2.180  0.00  0.00    +0.105 A 
ATOM     35  C   UNL     1      -3.724   4.874  -1.117  0.00  0.00    +0.029 A 
ATOM     36  C   UNL     1      -4.404   5.783  -0.328  0.00  0.00    +0.005 A 
ENDBRANCH  27  34
ENDBRANCH  25  27
ENDBRANCH  23  25
ENDBRANCH  21  23
ENDBRANCH  20  21
ENDBRANCH   1  20
TORSDOF 7
