REMARK  Name = ZINC66891807
REMARK  4 active torsions:
REMARK  status: ('A' for Active; 'I' for Inactive)
REMARK    1  A    between atoms: C_4  and  N_7
REMARK    2  A    between atoms: C_10  and  C_12
REMARK    3  A    between atoms: C_12  and  N_13
REMARK    4  A    between atoms: C_18  and  C_20
REMARK                            x       y       z     vdW  Elec       q    Type
REMARK                         _______ _______ _______ _____ _____    ______ ____
ROOT
ATOM      1  C   UNL     1       7.617  -1.127  -0.723  0.00  0.00    -0.019 C 
ENDROOT
BRANCH   1   5
ATOM      2  N   UNL     1       4.467  -0.914   1.134  0.00  0.00    -0.236 N 
ATOM      3  C   UNL     1       4.933  -2.094   1.609  0.00  0.00    +0.048 A 
ATOM      4  C   UNL     1       6.122  -2.336   1.014  0.00  0.00    -0.005 A 
ATOM      5  C   UNL     1       6.393  -1.269   0.145  0.00  0.00    +0.050 A 
ATOM      6  N   UNL     1       5.400  -0.422   0.213  0.00  0.00    -0.173 NA
ATOM      7  C   UNL     1       6.697  -3.647   1.506  0.00  0.00    +0.039 C 
ATOM      8  C   UNL     1       5.914  -3.966   2.799  0.00  0.00    +0.011 C 
ATOM      9  C   UNL     1       4.585  -3.215   2.564  0.00  0.00    +0.056 C 
BRANCH   2  13
ATOM     10  C   UNL     1       0.879   0.918   2.207  0.00  0.00    +0.000 A 
ATOM     11  C   UNL     1       1.990   1.690   1.923  0.00  0.00    +0.002 A 
ATOM     12  C   UNL     1       3.180   1.087   1.567  0.00  0.00    +0.028 A 
ATOM     13  C   UNL     1       3.260  -0.298   1.495  0.00  0.00    +0.066 A 
ATOM     14  C   UNL     1       2.143  -1.071   1.782  0.00  0.00    +0.028 A 
ATOM     15  C   UNL     1       0.956  -0.461   2.137  0.00  0.00    +0.002 A 
ENDBRANCH   2  13
ENDBRANCH   1   5
BRANCH   1  16
ATOM     16  N   UNL     1       7.365  -1.750  -2.030  0.00  0.00    +0.391 N 
ATOM     17  C   UNL     1       7.190  -3.197  -1.854  0.00  0.00    -0.077 C 
ATOM     18  C   UNL     1       6.847  -3.840  -3.200  0.00  0.00    -0.019 C 
ATOM     19  C   UNL     1       7.987  -3.579  -4.189  0.00  0.00    -0.003 C 
ATOM     20  C   UNL     1       8.210  -2.068  -4.308  0.00  0.00    -0.006 C 
ATOM     21  C   UNL     1       8.502  -1.491  -2.921  0.00  0.00    +0.020 C 
ATOM     22  H   UNL     1       6.527  -1.359  -2.432  0.00  0.00    -0.080 HD
BRANCH  21  23
ATOM     23  C   UNL     1       8.723  -0.004  -3.033  0.00  0.00    +0.202 C 
ATOM     24  O   UNL     1       7.790   0.759  -2.900  0.00  0.00    -0.277 OA
ATOM     25  N   UNL     1       9.957   0.477  -3.281  0.00  0.00    -0.298 N 
ATOM     26  C   UNL     1      11.081  -0.430  -3.564  0.00  0.00    +0.136 C 
ATOM     27  C   UNL     1      11.775   0.046  -4.846  0.00  0.00    +0.179 C 
ATOM     28  O   UNL     1      12.095   1.434  -4.720  0.00  0.00    -0.377 OA
ATOM     29  C   UNL     1      10.957   2.286  -4.572  0.00  0.00    +0.179 C 
ATOM     30  C   UNL     1      10.220   1.925  -3.282  0.00  0.00    +0.136 C 
ENDBRANCH  21  23
ENDBRANCH   1  16
TORSDOF 4
