REMARK  Name = ZINC37033167
REMARK  4 active torsions:
REMARK  status: ('A' for Active; 'I' for Inactive)
REMARK    1  A    between atoms: C_2  and  N_12
REMARK    2  A    between atoms: C_6  and  N_7
REMARK    3  A    between atoms: C_13  and  C_15
REMARK    4  A    between atoms: C_18  and  O_22
REMARK                            x       y       z     vdW  Elec       q    Type
REMARK                         _______ _______ _______ _____ _____    ______ ____
ROOT
ATOM      1  N   UNL     1       1.159   3.488   0.009  0.00  0.00    -0.284 N 
ATOM      2  C   UNL     1      -0.013   4.148  -0.078  0.00  0.00    +0.203 C 
ATOM      3  O   UNL     1      -1.058   3.533  -0.072  0.00  0.00    -0.277 OA
ATOM      4  H   UNL     1       1.990   3.983   0.085  0.00  0.00    +0.155 HD
ENDROOT
BRANCH   1   6
ATOM      5  C   UNL     1       0.141   1.387  -0.611  0.00  0.00    +0.061 A 
ATOM      6  C   UNL     1       1.177   2.087  -0.009  0.00  0.00    +0.071 A 
ATOM      7  C   UNL     1       2.233   1.397   0.575  0.00  0.00    +0.147 A 
ATOM      8  C   UNL     1       2.248   0.014   0.555  0.00  0.00    +0.081 A 
ATOM      9  C   UNL     1       1.213  -0.681  -0.047  0.00  0.00    +0.156 A 
ATOM     10  C   UNL     1       0.160   0.005  -0.628  0.00  0.00    +0.163 A 
ATOM     11  F   UNL     1       1.230  -2.032  -0.067  0.00  0.00    -0.203 F 
ATOM     12  F   UNL     1       3.243   2.076   1.161  0.00  0.00    -0.203 F 
BRANCH  10  13
ATOM     13  N   UNL     1      -0.945  -0.742  -1.270  0.00  0.00    +0.059 N 
ATOM     14  O   UNL     1      -1.864  -0.143  -1.778  0.00  0.00    -0.126 OA
ATOM     15  O   UNL     1      -0.929  -1.950  -1.286  0.00  0.00    -0.126 OA
ENDBRANCH  10  13
ENDBRANCH   1   6
BRANCH   2  16
ATOM     16  C   UNL     1      -0.025   5.652  -0.184  0.00  0.00    +0.019 C 
ATOM     17  C   UNL     1       0.114   6.300   1.216  0.00  0.00    +0.023 C 
ATOM     18  C   UNL     1      -0.527   7.692   1.018  0.00  0.00    +0.097 C 
ATOM     19  C   UNL     1      -1.446   7.541  -0.207  0.00  0.00    -0.050 C 
ATOM     20  N   UNL     1      -1.349   6.133  -0.655  0.00  0.00    +0.388 N 
ATOM     21  H   UNL     1      -1.400   6.081  -1.662  0.00  0.00    -0.085 HD
ATOM     22  H   UNL     1      -2.087   5.585  -0.239  0.00  0.00    -0.085 HD
BRANCH  18  23
ATOM     23  O   UNL     1       0.483   8.671   0.765  0.00  0.00    -0.394 OA
ATOM     24  H   UNL     1       0.140   9.566   0.633  0.00  0.00    +0.210 HD
ENDBRANCH  18  23
ENDBRANCH   2  16
TORSDOF 4
