REMARK  Name = ZINC03336935
REMARK  5 active torsions:
REMARK  status: ('A' for Active; 'I' for Inactive)
REMARK    1  A    between atoms: C_6  and  C_7
REMARK    2  A    between atoms: C_7  and  O_9
REMARK    3  A    between atoms: O_9  and  C_10
REMARK    4  A    between atoms: C_10  and  C_11
REMARK    5  A    between atoms: N_13  and  C_14
REMARK                            x       y       z     vdW  Elec       q    Type
REMARK                         _______ _______ _______ _____ _____    ______ ____
ROOT
ATOM      1  C   UNL     1      -3.672   1.482  -0.006  0.00  0.00    +0.340 C 
ATOM      2  O   UNL     1      -3.848   2.684  -0.004  0.00  0.00    -0.245 OA
ENDROOT
BRANCH   1   8
ATOM      3  C   UNL     1      -4.626  -0.820  -0.020  0.00  0.00    +0.017 A 
ATOM      4  C   UNL     1      -5.685  -1.678  -0.018  0.00  0.00    +0.027 A 
ATOM      5  C   UNL     1      -6.988  -1.185  -0.020  0.00  0.00    +0.047 A 
ATOM      6  C   UNL     1      -7.208   0.209  -0.018  0.00  0.00    +0.004 A 
ATOM      7  C   UNL     1      -6.123   1.082  -0.014  0.00  0.00    +0.025 A 
ATOM      8  C   UNL     1      -4.829   0.567  -0.012  0.00  0.00    +0.060 A 
ATOM      9  C   UNL     1      -8.657   0.384  -0.023  0.00  0.00    -0.019 A 
ATOM     10  C   UNL     1      -9.209  -0.844  -0.025  0.00  0.00    +0.020 A 
ATOM     11  N   UNL     1      -8.223  -1.790  -0.023  0.00  0.00    -0.358 N 
ATOM     12  H   UNL     1      -8.297  -2.888  -0.024  0.00  0.00    +0.166 HD
ATOM     13  C   UNL     1     -10.700  -1.092  -0.028  0.00  0.00    +0.053 C 
ATOM     14  C   UNL     1     -11.410   0.200   0.392  0.00  0.00    +0.006 C 
ATOM     15  C   UNL     1     -10.879   1.369  -0.443  0.00  0.00    +0.005 C 
ATOM     16  C   UNL     1      -9.435   1.674  -0.028  0.00  0.00    +0.037 C 
ENDBRANCH   1   8
BRANCH   1  17
ATOM     17  O   UNL     1      -2.420   0.985  -0.004  0.00  0.00    -0.452 OA
BRANCH  17  18
ATOM     18  C   UNL     1      -1.330   1.944   0.001  0.00  0.00    +0.328 C 
BRANCH  18  19
ATOM     19  C   UNL     1      -0.014   1.208   0.002  0.00  0.00    +0.255 C 
ATOM     20  O   UNL     1       0.003  -0.004  -0.001  0.00  0.00    -0.272 OA
ATOM     21  N   UNL     1       1.143   1.898   0.001  0.00  0.00    -0.281 N 
ATOM     22  H   UNL     1       1.129   2.996  -0.070  0.00  0.00    +0.155 HD
BRANCH  21  23
ATOM     23  C   UNL     1       2.364   1.218   0.092  0.00  0.00    +0.053 A 
ATOM     24  C   UNL     1       2.513  -0.025  -0.508  0.00  0.00    +0.046 A 
ATOM     25  C   UNL     1       3.719  -0.694  -0.417  0.00  0.00    +0.061 A 
ATOM     26  C   UNL     1       4.779  -0.125   0.270  0.00  0.00    +0.061 A 
ATOM     27  C   UNL     1       4.632   1.113   0.869  0.00  0.00    +0.043 A 
ATOM     28  C   UNL     1       3.430   1.789   0.776  0.00  0.00    +0.064 A 
ATOM     29 CL   UNL     1       3.249   3.347   1.521  0.00  0.00    -0.082 Cl
ATOM     30 CL   UNL     1       6.292  -0.968   0.382  0.00  0.00    -0.082 Cl
ATOM     31 CL   UNL     1       3.907  -2.249  -1.167  0.00  0.00    -0.082 Cl
ENDBRANCH  21  23
ENDBRANCH  18  19
ENDBRANCH  17  18
ENDBRANCH   1  17
TORSDOF 5
