REMARK  Name = ZINC39478330
REMARK  7 active torsions:
REMARK  status: ('A' for Active; 'I' for Inactive)
REMARK    1  A    between atoms: C_1  and  C_2
REMARK    2  A    between atoms: C_4  and  C_8
REMARK    3  A    between atoms: N_10  and  C_11
REMARK    4  A    between atoms: N_10  and  C_18
REMARK    5  A    between atoms: C_11  and  C_12
REMARK    6  A    between atoms: C_18  and  C_19
REMARK    7  A    between atoms: N_22  and  C_25
REMARK                            x       y       z     vdW  Elec       q    Type
REMARK                         _______ _______ _______ _____ _____    ______ ____
ROOT
ATOM      1  C   UNL     1      -2.606  -4.205   2.501  0.00  0.00    +0.111 C 
ENDROOT
BRANCH   1   2
ATOM      2  C   UNL     1      -3.252  -3.232   3.489  0.00  0.00    +0.003 C 
ATOM      3  C   UNL     1      -2.205  -2.227   3.977  0.00  0.00    -0.014 C 
ATOM      4  C   UNL     1      -2.837  -1.308   5.024  0.00  0.00    -0.078 C 
ATOM      5  N   UNL     1      -3.315  -2.107   6.158  0.00  0.00    +0.382 N 
ATOM      6  C   UNL     1      -4.371  -3.024   5.711  0.00  0.00    -0.078 C 
ATOM      7  C   UNL     1      -3.797  -4.010   4.691  0.00  0.00    -0.014 C 
ATOM      8  H   UNL     1      -2.548  -2.640   6.540  0.00  0.00    -0.081 HD
BRANCH   5   9
ATOM      9  C   UNL     1      -3.850  -1.214   7.194  0.00  0.00    -0.060 C 
ATOM     10  C   UNL     1      -2.725  -0.362   7.819  0.00  0.00    +0.020 C 
ATOM     11  C   UNL     1      -3.101  -0.218   9.278  0.00  0.00    -0.046 A 
ATOM     12  C   UNL     1      -2.654   0.677  10.236  0.00  0.00    +0.004 A 
ATOM     13  C   UNL     1      -3.146   0.619  11.525  0.00  0.00    +0.000 A 
ATOM     14  C   UNL     1      -4.087  -0.337  11.862  0.00  0.00    +0.000 A 
ATOM     15  C   UNL     1      -4.534  -1.230  10.908  0.00  0.00    +0.004 A 
ATOM     16  C   UNL     1      -4.042  -1.173   9.615  0.00  0.00    -0.046 A 
ATOM     17  C   UNL     1      -4.363  -2.024   8.405  0.00  0.00    +0.020 C 
ENDBRANCH   5   9
ENDBRANCH   1   2
BRANCH   1  20
ATOM     18  C   UNL     1      -0.958  -2.939   1.229  0.00  0.00    +0.246 C 
ATOM     19  O   UNL     1      -0.190  -3.058   2.160  0.00  0.00    -0.273 OA
ATOM     20  N   UNL     1      -2.191  -3.477   1.299  0.00  0.00    -0.297 N 
BRANCH  18  24
ATOM     21  C   UNL     1      -0.018   1.503   0.010  0.00  0.00    +0.067 C 
ATOM     22  C   UNL     1       0.002  -0.004   0.002  0.00  0.00    +0.059 C 
ATOM     23  C   UNL     1      -1.086  -0.777   0.003  0.00  0.00    +0.035 C 
ATOM     24  C   UNL     1      -0.531  -2.190  -0.007  0.00  0.00    +0.238 C 
ATOM     25  N   UNL     1       0.926  -1.973  -0.013  0.00  0.00    -0.170 NA
ATOM     26  N   UNL     1       1.125  -0.756  -0.013  0.00  0.00    -0.159 NA
ENDBRANCH  18  24
BRANCH  20  27
ATOM     27  C   UNL     1      -3.118  -3.333   0.174  0.00  0.00    +0.139 C 
BRANCH  27  28
ATOM     28  C   UNL     1      -2.939  -4.509  -0.788  0.00  0.00    +0.136 C 
ATOM     29  C   UNL     1      -3.824  -4.305  -2.036  0.00  0.00    +0.035 C 
ATOM     30  C   UNL     1      -4.341  -5.743  -2.313  0.00  0.00    +0.031 C 
ATOM     31  C   UNL     1      -4.465  -6.293  -0.870  0.00  0.00    +0.160 C 
ATOM     32  O   UNL     1      -3.356  -5.724  -0.154  0.00  0.00    -0.375 OA
ENDBRANCH  27  28
ENDBRANCH  20  27
ENDBRANCH   1  20
TORSDOF 6
