REMARK  Name = ZINC61440099
REMARK  7 active torsions:
REMARK  status: ('A' for Active; 'I' for Inactive)
REMARK    1  A    between atoms: C_1  and  C_2
REMARK    2  A    between atoms: C_9  and  S_11
REMARK    3  A    between atoms: S_11  and  C_12
REMARK    4  A    between atoms: C_12  and  C_14
REMARK    5  A    between atoms: C_12  and  C_20
REMARK    6  A    between atoms: C_20  and  C_22
REMARK    7  A    between atoms: C_20  and  N_23
REMARK                            x       y       z     vdW  Elec       q    Type
REMARK                         _______ _______ _______ _____ _____    ______ ____
ROOT
ATOM      1  C   UNL     1      -0.053  -7.024   1.045  0.00  0.00    +0.076 C 
ENDROOT
BRANCH   1   2
ATOM      2  C   UNL     1      -0.385  -8.422   1.498  0.00  0.00    +0.003 A 
ATOM      3  C   UNL     1      -1.482  -9.169   1.226  0.00  0.00    +0.013 A 
ATOM      4  C   UNL     1      -1.575 -10.443   1.757  0.00  0.00    +0.023 A 
ATOM      5  C   UNL     1      -0.564 -10.906   2.534  0.00  0.00    +0.055 A 
ATOM      6  S   UNL     1       0.569  -9.526   2.527  0.00  0.00    -0.085 S 
ATOM      7 BR   UNL     1      -0.396 -12.581   3.395  0.00  0.00    -0.043 Br
ENDBRANCH   1   2
BRANCH   1   8
ATOM      8  C   UNL     1       1.244  -7.045   0.235  0.00  0.00    -0.060 C 
ATOM      9  C   UNL     1       2.410  -7.430   1.148  0.00  0.00    -0.013 C 
BRANCH   8  10
ATOM     10  N   UNL     1       1.128  -8.028  -0.851  0.00  0.00    +0.381 N 
ATOM     11  H   UNL     1       0.305  -7.826  -1.400  0.00  0.00    -0.090 HD
ATOM     12  H   UNL     1       1.946  -7.977  -1.440  0.00  0.00    -0.090 HD
ATOM     13  H   UNL     1       1.052  -8.954  -0.459  0.00  0.00    -0.090 HD
ENDBRANCH   8  10
ENDBRANCH   1   8
BRANCH   1  14
ATOM     14  S   UNL     1       0.156  -5.952   2.493  0.00  0.00    -0.081 S 
BRANCH  14  23
ATOM     15  C   UNL     1       0.775   1.533   0.784  0.00  0.00    +0.044 C 
ATOM     16  C   UNL     1       0.654   0.038   0.639  0.00  0.00    -0.048 A 
ATOM     17  C   UNL     1       0.619  -0.531  -0.625  0.00  0.00    +0.005 A 
ATOM     18  C   UNL     1       0.509  -1.896  -0.775  0.00  0.00    +0.030 A 
ATOM     19  C   UNL     1       0.433  -2.714   0.355  0.00  0.00    +0.090 A 
ATOM     20  C   UNL     1       0.471  -2.132   1.633  0.00  0.00    +0.067 A 
ATOM     21  C   UNL     1       0.586  -0.757   1.765  0.00  0.00    +0.031 A 
ATOM     22  N   UNL     1       0.379  -3.179   2.536  0.00  0.00    -0.333 N 
ATOM     23  C   UNL     1       0.291  -4.333   1.810  0.00  0.00    +0.168 A 
ATOM     24  N   UNL     1       0.323  -4.057   0.529  0.00  0.00    -0.222 NA
ATOM     25  H   UNL     1       0.378  -3.107   3.503  0.00  0.00    +0.168 HD
ENDBRANCH  14  23
ENDBRANCH   1  14
TORSDOF 5
