REMARK  Name = ZINC66832820
REMARK  6 active torsions:
REMARK  status: ('A' for Active; 'I' for Inactive)
REMARK    1  A    between atoms: C_1  and  O_2
REMARK    2  A    between atoms: O_2  and  C_3
REMARK    3  A    between atoms: C_3  and  C_5
REMARK    4  A    between atoms: N_10  and  C_12
REMARK    5  A    between atoms: C_12  and  C_13
REMARK    6  A    between atoms: C_21  and  C_23
REMARK                            x       y       z     vdW  Elec       q    Type
REMARK                         _______ _______ _______ _____ _____    ______ ____
ROOT
ATOM      1  C   UNL     1       2.517  -5.928   3.546  0.00  0.00    +0.199 C 
ATOM      2  O   UNL     1       2.038  -6.590   2.650  0.00  0.00    -0.278 OA
ATOM      3  N   UNL     1       3.192  -6.532   4.543  0.00  0.00    -0.300 N 
ATOM      4  C   UNL     1       3.772  -5.742   5.639  0.00  0.00    +0.126 C 
ATOM      5  C   UNL     1       3.240  -6.286   6.970  0.00  0.00    +0.127 C 
ATOM      6  N   UNL     1       3.409  -7.746   6.982  0.00  0.00    -0.291 N 
ATOM      7  C   UNL     1       2.829  -8.535   5.887  0.00  0.00    +0.127 C 
ATOM      8  C   UNL     1       3.356  -7.992   4.559  0.00  0.00    +0.126 C 
ATOM      9  C   UNL     1       4.085  -8.350   7.980  0.00  0.00    +0.302 C 
ATOM     10  O   UNL     1       4.136  -9.561   8.032  0.00  0.00    -0.265 OA
ENDROOT
BRANCH   9  11
ATOM     11  C   UNL     1       4.771  -7.528   9.023  0.00  0.00    +0.302 C 
ATOM     12  O   UNL     1       4.630  -6.322   9.035  0.00  0.00    -0.265 OA
ATOM     13  N   UNL     1       5.545  -8.125   9.950  0.00  0.00    -0.294 N 
ATOM     14  C   UNL     1       5.806  -9.569  10.047  0.00  0.00    +0.108 C 
ATOM     15  C   UNL     1       6.722  -9.787  11.271  0.00  0.00    +0.020 C 
ATOM     16  C   UNL     1       6.466  -8.519  12.127  0.00  0.00    +0.020 C 
ATOM     17  C   UNL     1       6.277  -7.438  11.030  0.00  0.00    +0.108 C 
ENDBRANCH   9  11
BRANCH   1  18
ATOM     18  C   UNL     1       2.356  -4.429   3.543  0.00  0.00    +0.019 C 
BRANCH  18  23
ATOM     19  C   UNL     1       0.812  -2.124   1.016  0.00  0.00    +0.081 C 
ATOM     20  C   UNL     1      -0.614  -2.681   1.038  0.00  0.00    +0.011 C 
ATOM     21  C   UNL     1      -0.555  -4.204   1.187  0.00  0.00    -0.018 C 
ATOM     22  C   UNL     1       0.225  -4.558   2.454  0.00  0.00    -0.078 C 
ATOM     23  N   UNL     1       1.588  -4.021   2.360  0.00  0.00    +0.386 N 
ATOM     24  C   UNL     1       1.543  -2.555   2.289  0.00  0.00    -0.064 C 
ATOM     25  H   UNL     1       2.034  -4.382   1.530  0.00  0.00    -0.081 HD
BRANCH  19  26
ATOM     26  C   UNL     1       0.765  -0.620   0.948  0.00  0.00    +0.308 C 
ATOM     27  O   UNL     1       1.265   0.041   1.827  0.00  0.00    -0.251 OA
BRANCH  26  29
ATOM     28  C   UNL     1       0.158   1.416  -0.089  0.00  0.00    +0.280 C 
ATOM     29  O   UNL     1       0.166  -0.013  -0.089  0.00  0.00    -0.468 OA
ENDBRANCH  26  29
ENDBRANCH  19  26
ENDBRANCH  18  23
ENDBRANCH   1  18
TORSDOF 5
