REMARK  Name = ZINC38775698
REMARK  9 active torsions:
REMARK  status: ('A' for Active; 'I' for Inactive)
REMARK    1  A    between atoms: C_1  and  C_2
REMARK    2  A    between atoms: C_4  and  N_10
REMARK    3  A    between atoms: C_5  and  C_9
REMARK    4  A    between atoms: N_7  and  C_8
REMARK    5  A    between atoms: C_11  and  C_13
REMARK    6  A    between atoms: C_13  and  C_14
REMARK    7  A    between atoms: C_14  and  S_15
REMARK    8  A    between atoms: S_15  and  C_16
REMARK    9  A    between atoms: C_16  and  C_17
REMARK                            x       y       z     vdW  Elec       q    Type
REMARK                         _______ _______ _______ _____ _____    ______ ____
ROOT
ATOM      1  C   UNL     1       1.961  -0.977  -5.902  0.00  0.00    +0.079 C 
ENDROOT
BRANCH   1   2
ATOM      2  C   UNL     1       0.888  -0.381  -4.988  0.00  0.00    +0.107 C 
BRANCH   2   4
ATOM      3  N   UNL     1       0.393  -0.294  -2.566  0.00  0.00    -0.286 N 
ATOM      4  C   UNL     1       1.206  -0.717  -3.554  0.00  0.00    +0.218 C 
ATOM      5  O   UNL     1       2.194  -1.369  -3.289  0.00  0.00    -0.275 OA
ATOM      6  H   UNL     1      -0.434   0.165  -2.782  0.00  0.00    +0.155 HD
BRANCH   3   9
ATOM      7  C   UNL     1      -0.188  -2.764  -0.659  0.00  0.00    +0.032 C 
ATOM      8  C   UNL     1       1.037  -1.852  -0.582  0.00  0.00    +0.118 C 
ATOM      9  C   UNL     1       0.742  -0.515  -1.228  0.00  0.00    +0.047 C 
ATOM     10  C   UNL     1       0.878   0.404  -0.286  0.00  0.00    +0.034 C 
ATOM     11  N   UNL     1       1.233  -0.165   0.931  0.00  0.00    -0.280 N 
ATOM     12  N   UNL     1       1.348  -1.524   0.823  0.00  0.00    -0.224 NA
ATOM     13  C   UNL     1       0.424  -2.205   1.740  0.00  0.00    +0.128 C 
ATOM     14  C   UNL     1       0.673   1.880  -0.505  0.00  0.00    +0.063 C 
ATOM     15  H   UNL     1       1.382   0.336   1.749  0.00  0.00    +0.166 HD
ENDBRANCH   3   9
ENDBRANCH   2   4
ENDBRANCH   1   2
BRANCH   1  16
ATOM     16  S   UNL     1       1.577  -0.573  -7.628  0.00  0.00    -0.153 S 
BRANCH  16  17
ATOM     17  C   UNL     1       2.926  -1.340  -8.569  0.00  0.00    +0.142 C 
BRANCH  17  18
ATOM     18  C   UNL     1       2.726  -1.076 -10.039  0.00  0.00    +0.133 C 
ATOM     19  N   UNL     1       1.683  -0.373 -10.409  0.00  0.00    -0.161 NA
ATOM     20  C   UNL     1       1.417  -0.093 -11.689  0.00  0.00    +0.271 C 
ATOM     21  O   UNL     1       0.441   0.570 -11.996  0.00  0.00    -0.268 OA
ATOM     22  C   UNL     1       2.353  -0.616 -12.732  0.00  0.00    +0.071 C 
ATOM     23  C   UNL     1       2.227  -0.567 -14.070  0.00  0.00    -0.042 C 
ATOM     24  C   UNL     1       1.185  -0.324 -15.159  0.00  0.00    +0.033 C 
ATOM     25  C   UNL     1       1.537  -1.299 -16.303  0.00  0.00    +0.006 C 
ATOM     26  C   UNL     1       2.851  -2.001 -15.874  0.00  0.00    +0.019 C 
ATOM     27  C   UNL     1       3.454  -0.993 -14.877  0.00  0.00    +0.079 C 
ATOM     28  S   UNL     1       4.459  -1.836 -13.603  0.00  0.00    -0.097 S 
ATOM     29  C   UNL     1       3.498  -1.376 -12.183  0.00  0.00    +0.111 C 
ATOM     30  N   UNL     1       3.617  -1.562 -10.890  0.00  0.00    -0.227 NA
ENDBRANCH  17  18
ENDBRANCH  16  17
ENDBRANCH   1  16
TORSDOF 6
