REMARK  Name = ZINC20609179
REMARK  9 active torsions:
REMARK  status: ('A' for Active; 'I' for Inactive)
REMARK    1  A    between atoms: C_1  and  C_2
REMARK    2  A    between atoms: C_2  and  O_3
REMARK    3  A    between atoms: O_3  and  C_4
REMARK    4  A    between atoms: C_4  and  C_6
REMARK    5  A    between atoms: C_6  and  C_8
REMARK    6  A    between atoms: C_6  and  N_19
REMARK    7  A    between atoms: C_8  and  C_9
REMARK    8  A    between atoms: N_19  and  S_20
REMARK    9  A    between atoms: S_20  and  C_23
REMARK                            x       y       z     vdW  Elec       q    Type
REMARK                         _______ _______ _______ _____ _____    ______ ____
ROOT
ATOM      1  C   UNL     1       4.636   0.078  -2.493  0.00  0.00    +0.189 C 
ENDROOT
BRANCH   1   2
ATOM      2  C   UNL     1       6.125   0.313  -2.520  0.00  0.00    +0.326 C 
ATOM      3  O   UNL     1       6.861  -0.408  -1.889  0.00  0.00    -0.249 OA
BRANCH   2   4
ATOM      4  O   UNL     1       6.632   1.323  -3.244  0.00  0.00    -0.464 OA
BRANCH   4   6
ATOM      5  C   UNL     1       8.463   2.682  -4.099  0.00  0.00    +0.048 C 
ATOM      6  C   UNL     1       8.074   1.490  -3.222  0.00  0.00    +0.229 C 
ENDBRANCH   4   6
ENDBRANCH   2   4
ENDBRANCH   1   2
BRANCH   1   7
ATOM      7  N   UNL     1       4.338  -1.074  -1.639  0.00  0.00    -0.176 NA
ATOM      8  H   UNL     1       4.223  -2.073  -2.083  0.00  0.00    +0.149 HD
BRANCH   7   9
ATOM      9  S   UNL     1       3.931  -0.843  -0.050  0.00  0.00    +0.059 S 
ATOM     10  O   UNL     1       4.904   0.039   0.494  0.00  0.00    -0.153 OA
ATOM     11  O   UNL     1       3.679  -2.130   0.496  0.00  0.00    -0.153 OA
BRANCH   9  12
ATOM     12  C   UNL     1       2.397   0.024  -0.026  0.00  0.00    +0.109 A 
ATOM     13  C   UNL     1       1.207  -0.680  -0.016  0.00  0.00    +0.032 A 
ATOM     14  C   UNL     1       0.002  -0.004   0.002  0.00  0.00    +0.051 A 
ATOM     15  C   UNL     1      -0.017   1.383   0.010  0.00  0.00    +0.162 A 
ATOM     16  C   UNL     1       1.179   2.090   0.002  0.00  0.00    +0.164 A 
ATOM     17  C   UNL     1       2.386   1.406  -0.017  0.00  0.00    +0.078 A 
ATOM     18  O   UNL     1       1.184   3.451   0.018  0.00  0.00    -0.485 OA
ATOM     19  C   UNL     1      -0.040   4.103  -0.340  0.00  0.00    +0.270 C 
ATOM     20  C   UNL     1      -1.189   3.413   0.408  0.00  0.00    +0.270 C 
ATOM     21  O   UNL     1      -1.212   2.035   0.019  0.00  0.00    -0.485 OA
ENDBRANCH   9  12
ENDBRANCH   7   9
ENDBRANCH   1   7
BRANCH   1  22
ATOM     22  C   UNL     1       4.138  -0.198  -3.913  0.00  0.00    +0.069 C 
BRANCH  22  23
ATOM     23  C   UNL     1       2.636  -0.311  -3.906  0.00  0.00    -0.020 A 
ATOM     24  C   UNL     1       1.921  -1.444  -3.817  0.00  0.00    +0.087 A 
ATOM     25  N   UNL     1       0.584  -1.155  -3.840  0.00  0.00    -0.360 N 
ATOM     26  H   UNL     1      -0.156  -1.966  -3.776  0.00  0.00    +0.165 HD
ATOM     27  C   UNL     1       0.401   0.206  -3.948  0.00  0.00    +0.047 A 
ATOM     28  C   UNL     1       1.678   0.794  -3.988  0.00  0.00    +0.003 A 
ATOM     29  C   UNL     1       1.804   2.180  -4.103  0.00  0.00    +0.010 A 
ATOM     30  C   UNL     1       0.683   2.959  -4.165  0.00  0.00    +0.001 A 
ATOM     31  C   UNL     1      -0.579   2.385  -4.120  0.00  0.00    +0.002 A 
ATOM     32  C   UNL     1      -0.726   1.019  -4.013  0.00  0.00    +0.026 A 
ENDBRANCH  22  23
ENDBRANCH   1  22
TORSDOF 8
