REMARK  Name = ZINC35612844
REMARK  6 active torsions:
REMARK  status: ('A' for Active; 'I' for Inactive)
REMARK    1  A    between atoms: C_4  and  C_7
REMARK    2  A    between atoms: C_7  and  N_8
REMARK    3  A    between atoms: N_8  and  C_9
REMARK    4  A    between atoms: C_9  and  C_10
REMARK    5  A    between atoms: C_13  and  C_15
REMARK    6  A    between atoms: N_20  and  C_21
REMARK                            x       y       z     vdW  Elec       q    Type
REMARK                         _______ _______ _______ _____ _____    ______ ____
ROOT
ATOM      1  N   UNL     1       3.855  -0.373   2.354  0.00  0.00    -0.283 N 
ATOM      2  C   UNL     1       4.872   0.461   2.647  0.00  0.00    +0.266 C 
ATOM      3  O   UNL     1       4.987   1.515   2.050  0.00  0.00    -0.268 OA
ENDROOT
BRANCH   2   4
ATOM      4  C   UNL     1       5.846   0.096   3.689  0.00  0.00    +0.135 A 
ATOM      5  C   UNL     1       6.814   0.987   4.081  0.00  0.00    +0.081 A 
ATOM      6  S   UNL     1       7.667   0.026   5.324  0.00  0.00    -0.060 S 
ATOM      7  C   UNL     1       6.664  -1.448   5.202  0.00  0.00    +0.163 A 
ATOM      8  N   UNL     1       5.796  -1.104   4.271  0.00  0.00    -0.220 NA
ATOM      9  N   UNL     1       6.768  -2.637   5.904  0.00  0.00    -0.293 N 
ATOM     10  H   UNL     1       6.217  -3.396   5.658  0.00  0.00    +0.154 HD
BRANCH   9  11
ATOM     11  C   UNL     1       7.668  -2.743   6.970  0.00  0.00    +0.053 A 
ATOM     12  C   UNL     1       8.012  -1.616   7.705  0.00  0.00    +0.025 A 
ATOM     13  C   UNL     1       8.900  -1.724   8.757  0.00  0.00    +0.003 A 
ATOM     14  C   UNL     1       9.448  -2.952   9.079  0.00  0.00    +0.021 A 
ATOM     15  C   UNL     1       9.109  -4.077   8.350  0.00  0.00    +0.061 A 
ATOM     16  C   UNL     1       8.215  -3.978   7.298  0.00  0.00    +0.080 A 
ATOM     17 CL   UNL     1       7.783  -5.391   6.388  0.00  0.00    -0.080 Cl
ATOM     18 CL   UNL     1       9.800  -5.617   8.758  0.00  0.00    -0.082 Cl
ENDBRANCH   9  11
ENDBRANCH   2   4
BRANCH   1  19
ATOM     19  C   UNL     1       2.951  -0.063   1.243  0.00  0.00    +0.143 C 
BRANCH  19  23
ATOM     20  C   UNL     1      -0.322   2.277   2.679  0.00  0.00    +0.000 A 
ATOM     21  C   UNL     1       0.825   2.899   2.224  0.00  0.00    +0.000 A 
ATOM     22  C   UNL     1       1.885   2.142   1.760  0.00  0.00    +0.005 A 
ATOM     23  C   UNL     1       1.796   0.763   1.750  0.00  0.00    -0.030 A 
ATOM     24  C   UNL     1       0.649   0.140   2.206  0.00  0.00    +0.005 A 
ATOM     25  C   UNL     1      -0.411   0.897   2.669  0.00  0.00    +0.000 A 
ENDBRANCH  19  23
ENDBRANCH   1  19
BRANCH   1  26
ATOM     26  C   UNL     1       3.652  -1.588   3.146  0.00  0.00    +0.203 C 
BRANCH  26  27
ATOM     27  C   UNL     1       4.542  -2.685   2.619  0.00  0.00    +0.228 C 
ATOM     28  O   UNL     1       5.274  -2.471   1.676  0.00  0.00    -0.274 OA
ATOM     29  N   UNL     1       4.525  -3.902   3.197  0.00  0.00    -0.328 N 
ATOM     30  H   UNL     1       3.940  -4.073   3.952  0.00  0.00    +0.145 HD
ATOM     31  H   UNL     1       5.098  -4.608   2.859  0.00  0.00    +0.145 HD
ENDBRANCH  26  27
ENDBRANCH   1  26
TORSDOF 6
