REMARK  Name = ZINC39324369
REMARK  10 active torsions:
REMARK  status: ('A' for Active; 'I' for Inactive)
REMARK    1  A    between atoms: C_1  and  C_2
REMARK    2  A    between atoms: C_2  and  O_3
REMARK    3  A    between atoms: O_3  and  C_4
REMARK    4  A    between atoms: C_9  and  C_10
REMARK    5  A    between atoms: C_18  and  N_33
REMARK    6  A    between atoms: C_19  and  C_31
REMARK    7  A    between atoms: C_20  and  C_22
REMARK    8  A    between atoms: C_27  and  O_28
REMARK    9  A    between atoms: O_28  and  C_29
REMARK   10  A    between atoms: C_29  and  C_30
REMARK                            x       y       z     vdW  Elec       q    Type
REMARK                         _______ _______ _______ _____ _____    ______ ____
ROOT
ATOM      1  C   UNL     1      -3.970  -1.530   0.032  0.00  0.00    +0.018 C 
ATOM      2  C   UNL     1      -5.201  -2.065  -0.060  0.00  0.00    -0.004 C 
ATOM      3  C   UNL     1      -5.399  -3.564  -0.063  0.00  0.00    +0.039 C 
ATOM      4  C   UNL     1      -6.470  -3.873  -1.119  0.00  0.00    +0.009 C 
ATOM      5  C   UNL     1      -7.774  -3.199  -0.706  0.00  0.00    +0.036 C 
ATOM      6  C   UNL     1      -7.584  -1.723  -0.465  0.00  0.00    -0.014 C 
ATOM      7  C   UNL     1      -6.396  -1.202  -0.156  0.00  0.00    +0.133 C 
ATOM      8  O   UNL     1      -6.237   0.126   0.074  0.00  0.00    -0.441 OA
ATOM      9  C   UNL     1      -7.294   0.882   0.416  0.00  0.00    +0.199 C 
ATOM     10  C   UNL     1      -8.557   0.476   0.134  0.00  0.00    +0.098 C 
ATOM     11  C   UNL     1      -8.799  -0.831  -0.578  0.00  0.00    +0.097 C 
ENDROOT
BRANCH   1  17
ATOM     12  C   UNL     1      -1.590  -2.145  -0.378  0.00  0.00    +0.128 A 
ATOM     13  C   UNL     1      -0.500  -2.966  -0.141  0.00  0.00    +0.046 A 
ATOM     14  C   UNL     1      -0.613  -4.035   0.727  0.00  0.00    +0.004 A 
ATOM     15  C   UNL     1      -1.813  -4.295   1.366  0.00  0.00    +0.001 A 
ATOM     16  C   UNL     1      -2.909  -3.488   1.143  0.00  0.00    +0.011 A 
ATOM     17  C   UNL     1      -2.806  -2.400   0.271  0.00  0.00    +0.017 A 
BRANCH  12  18
ATOM     18  O   UNL     1      -1.480  -1.094  -1.231  0.00  0.00    -0.492 OA
BRANCH  18  20
ATOM     19  C   UNL     1      -0.278   0.326  -2.775  0.00  0.00    +0.048 C 
ATOM     20  C   UNL     1      -0.210  -0.896  -1.856  0.00  0.00    +0.226 C 
ENDBRANCH  18  20
ENDBRANCH  12  18
ENDBRANCH   1  17
BRANCH  11  21
ATOM     21  C   UNL     1      -9.096  -0.574  -2.033  0.00  0.00    +0.007 A 
ATOM     22  C   UNL     1      -8.150   0.036  -2.834  0.00  0.00    +0.008 A 
ATOM     23  C   UNL     1      -8.421   0.272  -4.169  0.00  0.00    +0.001 A 
ATOM     24  C   UNL     1      -9.639  -0.102  -4.706  0.00  0.00    +0.004 A 
ATOM     25  C   UNL     1     -10.588  -0.713  -3.909  0.00  0.00    +0.046 A 
ATOM     26  C   UNL     1     -10.316  -0.956  -2.571  0.00  0.00    +0.125 A 
BRANCH  26  27
ATOM     27  O   UNL     1     -11.246  -1.562  -1.786  0.00  0.00    -0.492 OA
BRANCH  27  28
ATOM     28  C   UNL     1     -12.480  -1.927  -2.408  0.00  0.00    +0.225 C 
ATOM     29  C   UNL     1     -13.393  -2.592  -1.375  0.00  0.00    +0.048 C 
ENDBRANCH  27  28
ENDBRANCH  26  27
ENDBRANCH  11  21
BRANCH   9  30
ATOM     30  N   UNL     1      -7.093   2.079   1.058  0.00  0.00    -0.328 N 
ATOM     31  H   UNL     1      -6.192   2.374   1.262  0.00  0.00    +0.145 HD
ATOM     32  H   UNL     1      -7.852   2.629   1.308  0.00  0.00    +0.145 HD
ENDBRANCH   9  30
BRANCH  10  33
ATOM     33  C   UNL     1      -9.668   1.299   0.508  0.00  0.00    +0.101 C 
ATOM     34  N   UNL     1     -10.549   1.952   0.804  0.00  0.00    -0.191 NA
ENDBRANCH  10  33
TORSDOF 8
