REMARK  Name = ZINC13118368
REMARK  8 active torsions:
REMARK  status: ('A' for Active; 'I' for Inactive)
REMARK    1  A    between atoms: C_1  and  C_2
REMARK    2  A    between atoms: C_2  and  C_29
REMARK    3  A    between atoms: N_8  and  C_9
REMARK    4  A    between atoms: C_15  and  O_28
REMARK    5  A    between atoms: C_16  and  N_17
REMARK    6  A    between atoms: N_18  and  C_19
REMARK    7  A    between atoms: C_19  and  C_21
REMARK    8  A    between atoms: C_26  and  O_27
REMARK                            x       y       z     vdW  Elec       q    Type
REMARK                         _______ _______ _______ _____ _____    ______ ____
ROOT
ATOM      1  C   UNL     1      -0.135   1.904   0.219  0.00  0.00    +0.018 C 
ATOM      2  C   UNL     1       0.002   0.386   0.077  0.00  0.00    +0.018 C 
ATOM      3  C   UNL     1      -1.393  -0.222  -0.065  0.00  0.00    +0.069 C 
ATOM      4  C   UNL     1      -2.074  -0.224   1.278  0.00  0.00    +0.056 A 
ATOM      5  C   UNL     1      -1.356  -0.360   2.466  0.00  0.00    +0.059 A 
ATOM      6  C   UNL     1      -2.278  -0.344   3.519  0.00  0.00    +0.146 A 
ATOM      7  N   UNL     1      -3.472  -0.195   3.002  0.00  0.00    -0.174 NA
ATOM      8  N   UNL     1      -3.360  -0.113   1.605  0.00  0.00    -0.236 N 
ATOM      9  C   UNL     1       0.109  -0.472   2.455  0.00  0.00    +0.150 C 
ATOM     10  C   UNL     1       0.751  -0.146   1.263  0.00  0.00    +0.109 C 
ATOM     11  C   UNL     1       0.802   0.080  -1.191  0.00  0.00    +0.018 C 
ENDROOT
BRANCH   8  12
ATOM     12  C   UNL     1      -4.422   0.057   0.706  0.00  0.00    +0.066 A 
ATOM     13  C   UNL     1      -5.443   0.952   0.997  0.00  0.00    +0.028 A 
ATOM     14  C   UNL     1      -6.488   1.118   0.109  0.00  0.00    +0.002 A 
ATOM     15  C   UNL     1      -6.519   0.393  -1.068  0.00  0.00    +0.000 A 
ATOM     16  C   UNL     1      -5.504  -0.500  -1.360  0.00  0.00    +0.002 A 
ATOM     17  C   UNL     1      -4.453  -0.666  -0.479  0.00  0.00    +0.028 A 
ENDBRANCH   8  12
BRANCH  10  18
ATOM     18  N   UNL     1       2.063  -0.311   1.173  0.00  0.00    -0.157 NA
ATOM     19  N   UNL     1       2.727  -0.767   2.181  0.00  0.00    -0.075 NA
BRANCH  19  20
ATOM     20  C   UNL     1       4.059  -0.935   2.090  0.00  0.00    +0.288 C 
ATOM     21  O   UNL     1       4.639  -0.656   1.055  0.00  0.00    -0.266 OA
BRANCH  20  22
ATOM     22  C   UNL     1       4.818  -1.457   3.244  0.00  0.00    +0.081 A 
ATOM     23  C   UNL     1       4.157  -1.784   4.430  0.00  0.00    +0.017 A 
ATOM     24  C   UNL     1       4.871  -2.270   5.503  0.00  0.00    +0.001 A 
ATOM     25  C   UNL     1       6.243  -2.438   5.412  0.00  0.00    +0.004 A 
ATOM     26  C   UNL     1       6.910  -2.119   4.245  0.00  0.00    +0.046 A 
ATOM     27  C   UNL     1       6.206  -1.633   3.153  0.00  0.00    +0.129 A 
BRANCH  27  28
ATOM     28  O   UNL     1       6.858  -1.325   2.004  0.00  0.00    -0.506 OA
ATOM     29  H   UNL     1       7.171  -0.411   1.962  0.00  0.00    +0.292 HD
ENDBRANCH  27  28
ENDBRANCH  20  22
ENDBRANCH  19  20
ENDBRANCH  10  18
BRANCH   9  30
ATOM     30  O   UNL     1       0.798  -0.870   3.545  0.00  0.00    -0.504 OA
ATOM     31  H   UNL     1       0.242  -1.068   4.311  0.00  0.00    +0.292 HD
ENDBRANCH   9  30
TORSDOF 6
