REMARK  Name = ZINC14184964
REMARK  10 active torsions:
REMARK  status: ('A' for Active; 'I' for Inactive)
REMARK    1  A    between atoms: C_1  and  C_2
REMARK    2  A    between atoms: C_2  and  C_27
REMARK    3  A    between atoms: N_5  and  N_9
REMARK    4  A    between atoms: C_10  and  C_12
REMARK    5  A    between atoms: C_12  and  S_13
REMARK    6  A    between atoms: S_13  and  C_14
REMARK    7  A    between atoms: C_17  and  C_22
REMARK    8  A    between atoms: N_18  and  C_19
REMARK    9  A    between atoms: C_27  and  C_28
REMARK   10  A    between atoms: C_28  and  C_29
REMARK                            x       y       z     vdW  Elec       q    Type
REMARK                         _______ _______ _______ _____ _____    ______ ____
ROOT
ATOM      1  N   UNL     1      -1.040   1.921   1.346  0.00  0.00    -0.223 N 
ATOM      2  C   UNL     1       0.116   1.256   1.154  0.00  0.00    +0.240 C 
ATOM      3  O   UNL     1       0.145   0.048   1.254  0.00  0.00    -0.273 OA
ATOM      4  H   UNL     1      -1.063   2.888   1.266  0.00  0.00    +0.174 HD
ENDROOT
BRANCH   1   9
ATOM      5  C   UNL     1      -5.255   1.106   3.100  0.00  0.00    +0.041 C 
ATOM      6  C   UNL     1      -3.996   0.307   2.757  0.00  0.00    +0.112 C 
ATOM      7  C   UNL     1      -2.761   1.177   2.890  0.00  0.00    +0.263 C 
ATOM      8  O   UNL     1      -2.354   1.722   3.894  0.00  0.00    -0.271 OA
ATOM      9  N   UNL     1      -2.209   1.217   1.661  0.00  0.00    -0.137 N 
ATOM     10  C   UNL     1      -2.919   0.505   0.778  0.00  0.00    +0.326 C 
ATOM     11  O   UNL     1      -2.623   0.395  -0.395  0.00  0.00    -0.251 OA
ATOM     12  N   UNL     1      -3.997  -0.077   1.335  0.00  0.00    -0.284 N 
ATOM     13  H   UNL     1      -4.649  -0.638   0.887  0.00  0.00    +0.151 HD
BRANCH   6  14
ATOM     14  C   UNL     1      -3.882  -0.930   3.650  0.00  0.00    +0.040 C 
BRANCH  14  15
ATOM     15  C   UNL     1      -5.080  -1.849   3.403  0.00  0.00    +0.038 C 
BRANCH  15  16
ATOM     16  C   UNL     1      -4.968  -3.068   4.282  0.00  0.00    -0.047 A 
ATOM     17  C   UNL     1      -4.311  -4.194   3.822  0.00  0.00    +0.003 A 
ATOM     18  C   UNL     1      -4.204  -5.310   4.630  0.00  0.00    +0.000 A 
ATOM     19  C   UNL     1      -4.763  -5.304   5.894  0.00  0.00    +0.000 A 
ATOM     20  C   UNL     1      -5.423  -4.180   6.353  0.00  0.00    +0.000 A 
ATOM     21  C   UNL     1      -5.526  -3.062   5.547  0.00  0.00    +0.003 A 
ENDBRANCH  15  16
ENDBRANCH  14  15
ENDBRANCH   6  14
ENDBRANCH   1   9
BRANCH   2  22
ATOM     22  C   UNL     1       1.373   2.013   0.809  0.00  0.00    +0.174 C 
BRANCH  22  23
ATOM     23  S   UNL     1       2.743   0.848   0.607  0.00  0.00    -0.077 S 
BRANCH  23  24
ATOM     24  C   UNL     1       4.045   1.971   0.220  0.00  0.00    +0.193 A 
ATOM     25  N   UNL     1       3.943   3.277   0.121  0.00  0.00    -0.122 NA
ATOM     26  N   UNL     1       5.085   3.789  -0.172  0.00  0.00    -0.128 NA
ATOM     27  C   UNL     1       5.986   2.839  -0.288  0.00  0.00    +0.172 A 
ATOM     28  N   UNL     1       5.347   1.645  -0.040  0.00  0.00    -0.299 N 
BRANCH  27  29
ATOM     29  C   UNL     1       7.409   3.018  -0.620  0.00  0.00    +0.056 A 
ATOM     30  C   UNL     1       8.043   4.115  -1.147  0.00  0.00    +0.019 A 
ATOM     31  C   UNL     1       9.400   4.050  -1.370  0.00  0.00    +0.008 A 
ATOM     32  C   UNL     1      10.065   2.903  -1.075  0.00  0.00    +0.046 A 
ATOM     33  S   UNL     1       8.758   1.861  -0.449  0.00  0.00    -0.094 S 
ENDBRANCH  27  29
BRANCH  28  34
ATOM     34  C   UNL     1       5.938   0.304  -0.052  0.00  0.00    +0.091 C 
ATOM     35  C   UNL     1       4.983  -0.888  -0.135  0.00  0.00    +0.027 C 
ATOM     36  C   UNL     1       5.710  -0.579   1.176  0.00  0.00    +0.027 C 
ENDBRANCH  28  34
ENDBRANCH  23  24
ENDBRANCH  22  23
ENDBRANCH   2  22
TORSDOF 9
