REMARK  Name = ZINC39691630
REMARK  5 active torsions:
REMARK  status: ('A' for Active; 'I' for Inactive)
REMARK    1  A    between atoms: C_1  and  C_2
REMARK    2  A    between atoms: C_4  and  C_24
REMARK    3  A    between atoms: C_8  and  C_12
REMARK    4  A    between atoms: C_12  and  S_13
REMARK    5  A    between atoms: S_13  and  C_14
REMARK                            x       y       z     vdW  Elec       q    Type
REMARK                         _______ _______ _______ _____ _____    ______ ____
ROOT
ATOM      1  C   UNL     1      -0.019   1.526   0.010  0.00  0.00    +0.057 C 
ATOM      2  C   UNL     1       0.002  -0.004   0.002  0.00  0.00    +0.210 C 
ATOM      3  C   UNL     1       0.722  -0.505  -1.230  0.00  0.00    +0.098 C 
ATOM      4  C   UNL     1       1.782  -1.221  -0.786  0.00  0.00    +0.114 C 
ATOM      5  C   UNL     1       1.783  -1.207   0.691  0.00  0.00    +0.230 C 
ATOM      6  N   UNL     1       2.751  -1.859   1.310  0.00  0.00    -0.199 NA
ATOM      7  C   UNL     1       3.694  -2.507   0.643  0.00  0.00    +0.136 C 
ATOM      8  N   UNL     1       3.778  -2.576  -0.661  0.00  0.00    -0.160 NA
ATOM      9  C   UNL     1       2.876  -1.971  -1.456  0.00  0.00    +0.275 C 
ATOM     10  O   UNL     1       2.953  -2.035  -2.669  0.00  0.00    -0.268 OA
ATOM     11  O   UNL     1       0.733  -0.490   1.131  0.00  0.00    -0.468 OA
ENDROOT
BRANCH   3  12
ATOM     12  C   UNL     1       0.342  -0.261  -2.642  0.00  0.00    +0.387 C 
ATOM     13  O   UNL     1       1.018  -0.729  -3.546  0.00  0.00    -0.241 OA
ATOM     14  O   UNL     1      -0.646   0.408  -2.902  0.00  0.00    -0.241 OA
ENDBRANCH   3  12
BRANCH   7  15
ATOM     15  C   UNL     1       4.752  -3.218   1.448  0.00  0.00    +0.149 C 
BRANCH  15  16
ATOM     16  S   UNL     1       5.925  -4.026   0.324  0.00  0.00    -0.098 S 
BRANCH  16  17
ATOM     17  C   UNL     1       7.082  -4.802   1.403  0.00  0.00    +0.109 A 
ATOM     18  C   UNL     1       8.175  -5.543   0.873  0.00  0.00    +0.039 A 
ATOM     19  C   UNL     1       8.542  -5.798  -0.509  0.00  0.00    +0.020 A 
ATOM     20  C   UNL     1       9.632  -6.535  -0.772  0.00  0.00    +0.048 A 
ATOM     21  S   UNL     1      10.256  -6.948   0.846  0.00  0.00    -0.077 S 
ATOM     22  C   UNL     1       9.036  -6.120   1.832  0.00  0.00    +0.112 A 
ATOM     23  N   UNL     1       8.824  -5.971   3.125  0.00  0.00    -0.228 NA
ATOM     24  C   UNL     1       7.792  -5.272   3.555  0.00  0.00    +0.223 A 
ATOM     25  N   UNL     1       6.949  -4.698   2.716  0.00  0.00    -0.229 NA
ENDBRANCH  16  17
ENDBRANCH  15  16
ENDBRANCH   7  15
TORSDOF 4
