REMARK  Name = ZINC09255330
REMARK  6 active torsions:
REMARK  status: ('A' for Active; 'I' for Inactive)
REMARK    1  A    between atoms: C_1  and  C_2
REMARK    2  A    between atoms: C_2  and  C_3
REMARK    3  A    between atoms: C_3  and  C_29
REMARK    4  A    between atoms: N_6  and  C_10
REMARK    5  A    between atoms: C_10  and  C_11
REMARK    6  A    between atoms: C_16  and  C_19
REMARK                            x       y       z     vdW  Elec       q    Type
REMARK                         _______ _______ _______ _____ _____    ______ ____
ROOT
ATOM      1  C   UNL     1      -6.229  -4.690   0.004  0.00  0.00    +0.237 C 
ATOM      2  O   UNL     1      -7.189  -3.949   0.015  0.00  0.00    -0.274 OA
ATOM      3  N   UNL     1      -4.983  -4.178   0.000  0.00  0.00    -0.263 N 
ATOM      4  C   UNL     1      -4.797  -2.801   0.009  0.00  0.00    +0.165 A 
ATOM      5  N   UNL     1      -3.673  -2.110   0.008  0.00  0.00    -0.225 NA
ATOM      6  C   UNL     1      -3.680  -0.785   0.017  0.00  0.00    +0.080 A 
ATOM      7  C   UNL     1      -4.875  -0.121   0.034  0.00  0.00    +0.076 A 
ATOM      8  S   UNL     1      -6.018  -1.496   0.025  0.00  0.00    -0.060 S 
ATOM      9  H   UNL     1      -4.215  -4.771  -0.008  0.00  0.00    +0.157 HD
ENDROOT
BRANCH   6  10
ATOM     10  C   UNL     1      -2.403  -0.030   0.016  0.00  0.00    +0.005 A 
ATOM     11  C   UNL     1      -2.416   1.364   0.026  0.00  0.00    +0.014 A 
ATOM     12  C   UNL     1      -1.228   2.065   0.019  0.00  0.00    +0.050 A 
ATOM     13  C   UNL     1      -0.017   1.387   0.010  0.00  0.00    +0.162 A 
ATOM     14  C   UNL     1       0.002  -0.004   0.002  0.00  0.00    +0.163 A 
ATOM     15  C   UNL     1      -1.189  -0.712   0.004  0.00  0.00    +0.059 A 
ATOM     16  O   UNL     1       1.181  -0.685  -0.006  0.00  0.00    -0.485 OA
ATOM     17  C   UNL     1       2.347   0.053  -0.387  0.00  0.00    +0.270 C 
ATOM     18  C   UNL     1       2.335   1.391   0.365  0.00  0.00    +0.270 C 
ATOM     19  O   UNL     1       1.144   2.098   0.002  0.00  0.00    -0.485 OA
ENDBRANCH   6  10
BRANCH   1  20
ATOM     20  C   UNL     1      -6.431  -6.184  -0.006  0.00  0.00    +0.214 C 
BRANCH  20  24
ATOM     21  C   UNL     1     -10.009  -6.938   0.644  0.00  0.00    +0.138 C 
ATOM     22  C   UNL     1      -8.598  -6.652   1.119  0.00  0.00    +0.251 C 
ATOM     23  O   UNL     1      -8.210  -6.586   2.265  0.00  0.00    -0.272 OA
ATOM     24  N   UNL     1      -7.865  -6.484   0.000  0.00  0.00    -0.215 N 
ATOM     25  C   UNL     1      -8.607  -6.630  -1.103  0.00  0.00    +0.310 C 
ATOM     26  O   UNL     1      -8.167  -6.528  -2.232  0.00  0.00    -0.252 OA
ATOM     27  N   UNL     1      -9.894  -6.902  -0.824  0.00  0.00    -0.281 N 
ATOM     28  H   UNL     1     -10.608  -7.045  -1.465  0.00  0.00    +0.152 HD
BRANCH  21  29
ATOM     29  C   UNL     1     -10.453  -8.302   1.107  0.00  0.00    -0.015 A 
ATOM     30  C   UNL     1     -11.183  -8.431   2.274  0.00  0.00    +0.006 A 
ATOM     31  C   UNL     1     -11.594  -9.681   2.697  0.00  0.00    +0.000 A 
ATOM     32  C   UNL     1     -11.268 -10.803   1.958  0.00  0.00    +0.000 A 
ATOM     33  C   UNL     1     -10.534 -10.674   0.793  0.00  0.00    +0.000 A 
ATOM     34  C   UNL     1     -10.126  -9.423   0.368  0.00  0.00    +0.006 A 
ENDBRANCH  21  29
BRANCH  21  36
ATOM     35  C   UNL     1     -10.546  -4.499   0.592  0.00  0.00    +0.007 C 
ATOM     36  C   UNL     1     -10.979  -5.862   1.135  0.00  0.00    +0.037 C 
ENDBRANCH  21  36
ENDBRANCH  20  24
ENDBRANCH   1  20
TORSDOF 5
