REMARK  Name = ZINC62269369
REMARK  9 active torsions:
REMARK  status: ('A' for Active; 'I' for Inactive)
REMARK    1  A    between atoms: C_1  and  C_2
REMARK    2  A    between atoms: C_2  and  N_3
REMARK    3  A    between atoms: N_3  and  C_4
REMARK    4  A    between atoms: N_3  and  C_6
REMARK    5  A    between atoms: C_4  and  C_5
REMARK    6  A    between atoms: C_6  and  C_8
REMARK    7  A    between atoms: C_6  and  C_15
REMARK    8  A    between atoms: C_8  and  N_9
REMARK    9  A    between atoms: C_19  and  N_21
REMARK                            x       y       z     vdW  Elec       q    Type
REMARK                         _______ _______ _______ _____ _____    ______ ____
ROOT
ATOM      1  C   UNL     1      -2.088   0.188   0.821  0.00  0.00    -0.023 C 
ENDROOT
BRANCH   1   2
ATOM      2  C   UNL     1      -3.328  -0.654   0.661  0.00  0.00    -0.058 A 
ATOM      3  C   UNL     1      -3.773  -0.996  -0.603  0.00  0.00    +0.002 A 
ATOM      4  C   UNL     1      -4.910  -1.767  -0.750  0.00  0.00    +0.002 A 
ATOM      5  C   UNL     1      -5.603  -2.198   0.367  0.00  0.00    +0.033 A 
ATOM      6  C   UNL     1      -5.157  -1.857   1.630  0.00  0.00    +0.126 A 
ATOM      7  C   UNL     1      -4.017  -1.089   1.777  0.00  0.00    +0.034 A 
BRANCH   6   8
ATOM      8  N   UNL     1      -5.899  -2.317   2.825  0.00  0.00    +0.056 N 
ATOM      9  O   UNL     1      -6.894  -2.992   2.697  0.00  0.00    -0.126 OA
ATOM     10  O   UNL     1      -5.510  -2.019   3.930  0.00  0.00    -0.126 OA
ENDBRANCH   6   8
ENDBRANCH   1   2
BRANCH   1  11
ATOM     11  N   UNL     1      -1.234   0.033  -0.364  0.00  0.00    +0.385 N 
ATOM     12  H   UNL     1      -1.811  -0.009  -1.191  0.00  0.00    -0.081 HD
BRANCH  11  14
ATOM     13  C   UNL     1      -0.122   1.548  -1.933  0.00  0.00    -0.017 C 
ATOM     14  C   UNL     1      -0.320   1.178  -0.462  0.00  0.00    -0.081 C 
ENDBRANCH  11  14
BRANCH  11  15
ATOM     15  C   UNL     1      -0.455  -1.207  -0.248  0.00  0.00    -0.081 C 
ATOM     16  C   UNL     1      -1.395  -2.411  -0.338  0.00  0.00    -0.017 C 
ENDBRANCH  11  15
ENDBRANCH   1  11
BRANCH   1  17
ATOM     17  C   UNL     1      -2.485   1.657   0.975  0.00  0.00    +0.073 C 
BRANCH  17  18
ATOM     18  N   UNL     1      -2.994   2.164  -0.306  0.00  0.00    -0.307 NA
ATOM     19  C   UNL     1      -4.450   1.988  -0.402  0.00  0.00    +0.065 C 
ATOM     20  C   UNL     1      -4.930   2.473  -1.772  0.00  0.00    -0.067 C 
ATOM     21  N   UNL     1      -4.578   3.888  -1.942  0.00  0.00    +0.381 N 
ATOM     22  C   UNL     1      -3.119   4.044  -1.869  0.00  0.00    -0.067 C 
ATOM     23  C   UNL     1      -2.624   3.573  -0.499  0.00  0.00    +0.065 C 
ATOM     24  H   UNL     1      -4.906   4.211  -2.840  0.00  0.00    -0.086 HD
ATOM     25  H   UNL     1      -5.011   4.433  -1.211  0.00  0.00    -0.086 HD
ENDBRANCH  17  18
ENDBRANCH   1  17
TORSDOF 7
