REMARK  Name = ZINC39694879
REMARK  9 active torsions:
REMARK  status: ('A' for Active; 'I' for Inactive)
REMARK    1  A    between atoms: C_1  and  C_2
REMARK    2  A    between atoms: C_4  and  C_39
REMARK    3  A    between atoms: C_6  and  C_8
REMARK    4  A    between atoms: C_8  and  N_9
REMARK    5  A    between atoms: C_10  and  C_12
REMARK    6  A    between atoms: C_23  and  C_25
REMARK    7  A    between atoms: C_25  and  O_26
REMARK    8  A    between atoms: O_26  and  C_27
REMARK    9  A    between atoms: C_37  and  C_38
REMARK                            x       y       z     vdW  Elec       q    Type
REMARK                         _______ _______ _______ _____ _____    ______ ____
ROOT
ATOM      1  C   UNL     1       3.127  -3.974   4.472  0.00  0.00    +0.100 C 
ATOM      2  C   UNL     1       3.874  -2.629   4.617  0.00  0.00    +0.121 C 
ATOM      3  N   UNL     1       3.761  -2.292   6.056  0.00  0.00    -0.297 N 
ATOM      4  C   UNL     1       3.930  -3.590   6.753  0.00  0.00    +0.115 C 
ATOM      5  C   UNL     1       3.170  -4.603   5.875  0.00  0.00    -0.004 C 
ATOM      6  C   UNL     1       3.916  -5.933   5.835  0.00  0.00    -0.010 C 
ATOM      7  C   UNL     1       3.895  -6.567   7.229  0.00  0.00    -0.082 C 
ATOM      8  N   UNL     1       2.505  -6.775   7.652  0.00  0.00    +0.379 N 
ATOM      9  C   UNL     1       1.820  -5.483   7.778  0.00  0.00    -0.082 C 
ATOM     10  C   UNL     1       1.754  -4.803   6.407  0.00  0.00    -0.010 C 
ATOM     11  C   UNL     1       3.553  -1.079   6.607  0.00  0.00    +0.253 C 
ATOM     12  O   UNL     1       3.485  -0.965   7.812  0.00  0.00    -0.272 OA
ATOM     13  H   UNL     1       2.027  -7.342   6.968  0.00  0.00    -0.086 HD
ATOM     14  H   UNL     1       2.493  -7.248   8.544  0.00  0.00    -0.086 HD
ENDROOT
BRANCH   1  16
ATOM     15  N   UNL     1       1.048  -4.676   3.331  0.00  0.00    -0.311 N 
ATOM     16  C   UNL     1       1.701  -3.739   4.046  0.00  0.00    +0.218 C 
ATOM     17  O   UNL     1       1.141  -2.706   4.346  0.00  0.00    -0.275 OA
ATOM     18  H   UNL     1       1.496  -5.502   3.091  0.00  0.00    +0.149 HD
BRANCH  15  19
ATOM     19  C   UNL     1      -0.339  -4.447   2.916  0.00  0.00    +0.139 C 
BRANCH  19  25
ATOM     20  C   UNL     1      -0.954  -6.816  -1.449  0.00  0.00    +0.044 C 
ATOM     21  C   UNL     1      -1.128  -6.771   0.048  0.00  0.00    -0.050 A 
ATOM     22  C   UNL     1      -1.740  -7.822   0.704  0.00  0.00    +0.006 A 
ATOM     23  C   UNL     1      -1.899  -7.781   2.077  0.00  0.00    -0.050 A 
ATOM     24  C   UNL     1      -1.446  -6.689   2.793  0.00  0.00    +0.008 A 
ATOM     25  C   UNL     1      -0.832  -5.638   2.136  0.00  0.00    -0.030 A 
ATOM     26  C   UNL     1      -0.669  -5.682   0.764  0.00  0.00    +0.008 A 
ATOM     27  C   UNL     1      -2.567  -8.927   2.793  0.00  0.00    +0.044 C 
ENDBRANCH  19  25
ENDBRANCH  15  19
ENDBRANCH   1  16
BRANCH  11  28
ATOM     28  C   UNL     1       3.405   0.133   5.725  0.00  0.00    +0.324 C 
BRANCH  28  29
ATOM     29  O   UNL     1       3.195   1.290   6.537  0.00  0.00    -0.479 OA
BRANCH  29  30
ATOM     30  C   UNL     1       3.041   2.477   5.892  0.00  0.00    +0.164 A 
ATOM     31  C   UNL     1       3.085   2.526   4.510  0.00  0.00    +0.049 A 
ATOM     32  C   UNL     1       2.929   3.731   3.841  0.00  0.00    +0.004 A 
ATOM     33  C   UNL     1       2.727   4.898   4.544  0.00  0.00    +0.012 A 
ATOM     34  C   UNL     1       2.679   4.866   5.941  0.00  0.00    +0.024 A 
ATOM     35  C   UNL     1       2.832   3.646   6.621  0.00  0.00    +0.181 A 
ATOM     36  O   UNL     1       2.780   3.617   7.971  0.00  0.00    -0.418 OA
ATOM     37  C   UNL     1       2.580   4.733   8.688  0.00  0.00    +0.338 A 
ATOM     38  O   UNL     1       2.541   4.659   9.903  0.00  0.00    -0.245 OA
ATOM     39  C   UNL     1       2.413   5.992   8.070  0.00  0.00    +0.096 A 
ATOM     40  C   UNL     1       2.466   6.091   6.718  0.00  0.00    -0.033 A 
ATOM     41  C   UNL     1       2.292   7.422   6.032  0.00  0.00    +0.045 C 
ENDBRANCH  29  30
ENDBRANCH  28  29
ENDBRANCH  11  28
TORSDOF 6
