REMARK  Name = ZINC31288541
REMARK  6 active torsions:
REMARK  status: ('A' for Active; 'I' for Inactive)
REMARK    1  A    between atoms: C_6  and  C_7
REMARK    2  A    between atoms: C_7  and  C_12
REMARK    3  A    between atoms: C_12  and  N_13
REMARK    4  A    between atoms: C_14  and  C_16
REMARK    5  A    between atoms: C_16  and  N_17
REMARK    6  A    between atoms: C_18  and  C_20
REMARK                            x       y       z     vdW  Elec       q    Type
REMARK                         _______ _______ _______ _____ _____    ______ ____
ROOT
ATOM      1  C   UNL     1       3.695  -0.716  -0.038  0.00  0.00    +0.011 C 
ATOM      2  C   UNL     1       4.281  -0.252  -1.387  0.00  0.00    +0.013 C 
ATOM      3  C   UNL     1       5.091  -1.474  -1.889  0.00  0.00    +0.001 C 
ATOM      4  C   UNL     1       4.207  -2.671  -1.459  0.00  0.00    +0.001 C 
ATOM      5  C   UNL     1       3.648  -2.253  -0.083  0.00  0.00    +0.013 C 
ENDROOT
BRANCH   1  11
ATOM      6  C   UNL     1       1.345  -0.383  -0.832  0.00  0.00    +0.008 A 
ATOM      7  C   UNL     1       0.069   0.125  -0.674  0.00  0.00    +0.050 A 
ATOM      8  C   UNL     1      -0.252   0.857   0.458  0.00  0.00    +0.162 A 
ATOM      9  C   UNL     1       0.712   1.077   1.436  0.00  0.00    +0.162 A 
ATOM     10  C   UNL     1       1.990   0.566   1.271  0.00  0.00    +0.053 A 
ATOM     11  C   UNL     1       2.304  -0.162   0.139  0.00  0.00    -0.036 A 
ATOM     12  O   UNL     1       0.415   1.786   2.559  0.00  0.00    -0.485 OA
ATOM     13  C   UNL     1      -0.763   2.598   2.515  0.00  0.00    +0.270 C 
ATOM     14  C   UNL     1      -1.901   1.762   1.913  0.00  0.00    +0.270 C 
ATOM     15  O   UNL     1      -1.510   1.358   0.595  0.00  0.00    -0.485 OA
ENDBRANCH   1  11
BRANCH   1  16
ATOM     16  C   UNL     1       4.593  -0.252   1.111  0.00  0.00    +0.115 C 
BRANCH  16  17
ATOM     17  N   UNL     1       4.737   1.205   1.060  0.00  0.00    -0.313 N 
ATOM     18  C   UNL     1       5.557   1.831   1.927  0.00  0.00    +0.230 C 
ATOM     19  O   UNL     1       6.176   1.188   2.749  0.00  0.00    -0.274 OA
ATOM     20  H   UNL     1       4.176   1.788   0.315  0.00  0.00    +0.149 HD
BRANCH  18  21
ATOM     21  C   UNL     1       5.706   3.330   1.875  0.00  0.00    +0.200 C 
BRANCH  21  22
ATOM     22  N   UNL     1       6.646   3.763   2.912  0.00  0.00    -0.303 N 
ATOM     23  C   UNL     1       6.936   5.072   3.054  0.00  0.00    +0.248 C 
ATOM     24  O   UNL     1       6.416   5.893   2.322  0.00  0.00    -0.270 OA
ATOM     25  H   UNL     1       7.116   3.021   3.574  0.00  0.00    +0.150 HD
BRANCH  23  26
ATOM     26  C   UNL     1       7.882   5.508   4.096  0.00  0.00    +0.074 A 
ATOM     27  C   UNL     1       8.309   6.884   4.389  0.00  0.00    +0.054 A 
ATOM     28  C   UNL     1       9.171   6.793   5.414  0.00  0.00    +0.195 A 
ATOM     29  O   UNL     1       9.303   5.504   5.763  0.00  0.00    -0.470 OA
ATOM     30  C   UNL     1       8.540   4.720   4.995  0.00  0.00    +0.207 A 
ENDBRANCH  23  26
ENDBRANCH  21  22
ENDBRANCH  18  21
ENDBRANCH  16  17
ENDBRANCH   1  16
TORSDOF 6
