REMARK  Name = ZINC36301728
REMARK  19 active torsions:
REMARK  status: ('A' for Active; 'I' for Inactive)
REMARK    1  A    between atoms: C_1  and  C_2
REMARK    2  A    between atoms: C_3  and  C_21
REMARK    3  A    between atoms: C_4  and  O_14
REMARK    4  A    between atoms: N_5  and  C_7
REMARK    5  A    between atoms: O_14  and  C_15
REMARK    6  A    between atoms: C_21  and  N_22
REMARK    7  A    between atoms: N_22  and  C_23
REMARK    8  A    between atoms: N_22  and  C_33
REMARK    9  A    between atoms: C_23  and  C_24
REMARK   10  A    between atoms: C_24  and  C_26
REMARK   11  A    between atoms: C_24  and  O_32
REMARK   12  A    between atoms: C_26  and  O_27
REMARK   13  A    between atoms: O_27  and  C_28
REMARK   14  A    between atoms: C_28  and  C_29
REMARK   15  A    between atoms: C_29  and  C_30
REMARK   16  A    between atoms: C_29  and  C_31
REMARK   17  A    between atoms: C_33  and  C_34
REMARK   18  A    between atoms: C_34  and  C_35
REMARK   19  A    between atoms: C_34  and  C_36
REMARK                            x       y       z     vdW  Elec       q    Type
REMARK                         _______ _______ _______ _____ _____    ______ ____
ROOT
ATOM      1  C   UNL     1       0.223  -4.026  -3.465  0.00  0.00    +0.068 C 
ATOM      2  C   UNL     1      -0.585  -3.055  -4.287  0.00  0.00    +0.065 A 
ATOM      3  C   UNL     1      -0.729  -1.689  -4.029  0.00  0.00    +0.021 A 
ATOM      4  C   UNL     1      -1.531  -1.164  -4.994  0.00  0.00    +0.225 A 
ATOM      5  N   UNL     1      -1.878  -2.177  -5.833  0.00  0.00    -0.200 N 
ATOM      6  N   UNL     1      -1.265  -3.347  -5.366  0.00  0.00    -0.168 NA
ENDROOT
BRANCH   5   7
ATOM      7  C   UNL     1      -2.697  -2.069  -6.964  0.00  0.00    +0.070 A 
ATOM      8  C   UNL     1      -3.850  -1.296  -6.916  0.00  0.00    +0.028 A 
ATOM      9  C   UNL     1      -4.657  -1.191  -8.033  0.00  0.00    +0.003 A 
ATOM     10  C   UNL     1      -4.318  -1.854  -9.198  0.00  0.00    +0.020 A 
ATOM     11  C   UNL     1      -3.170  -2.625  -9.249  0.00  0.00    +0.043 A 
ATOM     12  C   UNL     1      -2.356  -2.729  -8.136  0.00  0.00    +0.048 A 
ATOM     13 CL   UNL     1      -2.747  -3.455 -10.714  0.00  0.00    -0.083 Cl
ENDBRANCH   5   7
BRANCH   4  14
ATOM     14  O   UNL     1      -1.915   0.133  -5.101  0.00  0.00    -0.438 OA
BRANCH  14  15
ATOM     15  C   UNL     1      -3.013   0.533  -4.408  0.00  0.00    +0.130 A 
ATOM     16  C   UNL     1      -3.638  -0.343  -3.531  0.00  0.00    +0.046 A 
ATOM     17  C   UNL     1      -4.754   0.066  -2.827  0.00  0.00    +0.004 A 
ATOM     18  C   UNL     1      -5.248   1.346  -2.995  0.00  0.00    +0.000 A 
ATOM     19  C   UNL     1      -4.627   2.221  -3.868  0.00  0.00    +0.004 A 
ATOM     20  C   UNL     1      -3.508   1.819  -4.570  0.00  0.00    +0.046 A 
ENDBRANCH  14  15
ENDBRANCH   4  14
BRANCH   3  21
ATOM     21  C   UNL     1      -0.107  -0.931  -2.884  0.00  0.00    -0.036 C 
BRANCH  21  22
ATOM     22  N   UNL     1       1.244  -0.497  -3.261  0.00  0.00    +0.384 N 
ATOM     23  H   UNL     1       1.794  -1.301  -3.526  0.00  0.00    -0.081 HD
BRANCH  22  24
ATOM     24  C   UNL     1       1.161   0.435  -4.393  0.00  0.00    -0.044 C 
BRANCH  24  25
ATOM     25  C   UNL     1       2.570   0.743  -4.905  0.00  0.00    +0.124 C 
BRANCH  25  26
ATOM     26  O   UNL     1       3.269   1.525  -3.934  0.00  0.00    -0.391 OA
ATOM     27  H   UNL     1       2.846   2.372  -3.734  0.00  0.00    +0.210 HD
ENDBRANCH  25  26
BRANCH  25  28
ATOM     28  C   UNL     1       2.477   1.523  -6.218  0.00  0.00    +0.189 C 
BRANCH  28  29
ATOM     29  O   UNL     1       3.788   1.710  -6.755  0.00  0.00    -0.377 OA
BRANCH  29  30
ATOM     30  C   UNL     1       3.813   2.431  -7.988  0.00  0.00    +0.163 C 
BRANCH  30  31
ATOM     31  C   UNL     1       5.259   2.571  -8.468  0.00  0.00    +0.009 C 
ATOM     32  C   UNL     1       5.278   3.233  -9.847  0.00  0.00    +0.009 C 
ATOM     33  C   UNL     1       6.044   3.434  -7.478  0.00  0.00    +0.009 C 
ENDBRANCH  30  31
ENDBRANCH  29  30
ENDBRANCH  28  29
ENDBRANCH  25  28
ENDBRANCH  24  25
ENDBRANCH  22  24
BRANCH  22  34
ATOM     34  C   UNL     1       1.879   0.175  -2.119  0.00  0.00    -0.075 C 
BRANCH  34  35
ATOM     35  C   UNL     1       1.992  -0.805  -0.949  0.00  0.00    -0.034 C 
ATOM     36  C   UNL     1       2.891  -1.976  -1.350  0.00  0.00    +0.005 C 
ATOM     37  C   UNL     1       2.598  -0.088   0.259  0.00  0.00    +0.005 C 
ENDBRANCH  34  35
ENDBRANCH  22  34
ENDBRANCH  21  22
ENDBRANCH   3  21
TORSDOF 14
