REMARK  Name = ZINC40824635
REMARK  7 active torsions:
REMARK  status: ('A' for Active; 'I' for Inactive)
REMARK    1  A    between atoms: C_1  and  C_2
REMARK    2  A    between atoms: C_6  and  C_7
REMARK    3  A    between atoms: C_7  and  O_9
REMARK    4  A    between atoms: O_9  and  C_10
REMARK    5  A    between atoms: N_24  and  N_25
REMARK    6  A    between atoms: N_25  and  C_26
REMARK    7  A    between atoms: C_26  and  N_28
REMARK                            x       y       z     vdW  Elec       q    Type
REMARK                         _______ _______ _______ _____ _____    ______ ____
ROOT
ATOM      1  C   UNL     1      -0.285   1.509   0.031  0.00  0.00    +0.048 C 
ATOM      2  C   UNL     1      -0.164   0.007   0.013  0.00  0.00    +0.011 A 
ATOM      3  C   UNL     1      -0.127  -0.819  -1.117  0.00  0.00    +0.042 A 
ATOM      4  C   UNL     1      -0.012  -2.116  -0.676  0.00  0.00    +0.115 A 
ATOM      5  O   UNL     1       0.024  -2.098   0.654  0.00  0.00    -0.452 OA
ATOM      6  C   UNL     1      -0.062  -0.822   1.096  0.00  0.00    +0.215 A 
ATOM      7  C   UNL     1       0.053  -3.298  -1.611  0.00  0.00    +0.075 C 
ATOM      8  C   UNL     1      -0.529  -2.903  -2.970  0.00  0.00    +0.014 C 
ATOM      9  C   UNL     1       0.146  -1.633  -3.500  0.00  0.00    +0.058 C 
ATOM     10  C   UNL     1      -0.190  -0.487  -2.558  0.00  0.00    +0.070 C 
ATOM     11  N   UNL     1      -0.508   0.696  -2.986  0.00  0.00    -0.185 NA
ENDROOT
BRANCH   6  12
ATOM     12  C   UNL     1      -0.052  -0.400   2.499  0.00  0.00    +0.380 C 
ATOM     13  O   UNL     1      -0.140   0.780   2.780  0.00  0.00    -0.241 OA
BRANCH  12  14
ATOM     14  O   UNL     1       0.054  -1.320   3.480  0.00  0.00    -0.420 OA
BRANCH  14  15
ATOM     15  C   UNL     1       0.164  -0.878   4.760  0.00  0.00    +0.140 A 
ATOM     16  C   UNL     1       1.405  -0.712   5.332  0.00  0.00    +0.047 A 
ATOM     17  C   UNL     1       1.530  -0.260   6.643  0.00  0.00    +0.004 A 
ATOM     18  C   UNL     1       0.431   0.029   7.394  0.00  0.00    +0.009 A 
ATOM     19  C   UNL     1      -0.853  -0.128   6.846  0.00  0.00    -0.014 A 
ATOM     20  C   UNL     1      -0.991  -0.581   5.511  0.00  0.00    +0.025 A 
ATOM     21  C   UNL     1      -2.276  -0.732   4.964  0.00  0.00    +0.012 A 
ATOM     22  C   UNL     1      -3.369  -0.436   5.719  0.00  0.00    +0.001 A 
ATOM     23  C   UNL     1      -3.234   0.017   7.030  0.00  0.00    +0.001 A 
ATOM     24  C   UNL     1      -2.005   0.162   7.598  0.00  0.00    +0.008 A 
ENDBRANCH  14  15
ENDBRANCH  12  14
ENDBRANCH   6  12
BRANCH  11  25
ATOM     25  N   UNL     1      -0.551   0.954  -4.362  0.00  0.00    -0.218 N 
ATOM     26  H   UNL     1      -0.343   0.249  -4.995  0.00  0.00    +0.176 HD
BRANCH  25  27
ATOM     27  C   UNL     1      -0.881   2.183  -4.808  0.00  0.00    +0.147 C 
ATOM     28  S   UNL     1      -0.934   2.498  -6.489  0.00  0.00    -0.017 S 
BRANCH  27  29
ATOM     29  N   UNL     1      -1.170   3.163  -3.929  0.00  0.00    -0.339 N 
ATOM     30  H   UNL     1      -1.140   2.984  -2.976  0.00  0.00    +0.144 HD
ATOM     31  H   UNL     1      -1.408   4.047  -4.249  0.00  0.00    +0.144 HD
ENDBRANCH  27  29
ENDBRANCH  25  27
ENDBRANCH  11  25
TORSDOF 6
