REMARK  Name = ZINC12746040
REMARK  7 active torsions:
REMARK  status: ('A' for Active; 'I' for Inactive)
REMARK    1  A    between atoms: C_1  and  C_2
REMARK    2  A    between atoms: C_2  and  C_24
REMARK    3  A    between atoms: N_5  and  C_9
REMARK    4  A    between atoms: C_9  and  C_10
REMARK    5  A    between atoms: N_12  and  C_13
REMARK    6  A    between atoms: N_12  and  C_21
REMARK    7  A    between atoms: C_28  and  N_30
REMARK                            x       y       z     vdW  Elec       q    Type
REMARK                         _______ _______ _______ _____ _____    ______ ____
ROOT
ATOM      1  C   UNL     1       0.466   1.429   1.461  0.00  0.00    +0.047 C 
ATOM      2  C   UNL     1       0.409  -0.072   1.174  0.00  0.00    +0.135 C 
ATOM      3  C   UNL     1      -1.029  -0.546   1.100  0.00  0.00    +0.251 C 
ATOM      4  O   UNL     1      -1.880  -0.186   0.315  0.00  0.00    -0.272 OA
ATOM      5  N   UNL     1      -1.165  -1.452   2.089  0.00  0.00    -0.215 N 
ATOM      6  C   UNL     1      -0.025  -1.614   2.770  0.00  0.00    +0.310 C 
ATOM      7  O   UNL     1       0.099  -2.378   3.707  0.00  0.00    -0.252 OA
ATOM      8  N   UNL     1       0.968  -0.837   2.301  0.00  0.00    -0.281 N 
ATOM      9  H   UNL     1       1.876  -0.791   2.640  0.00  0.00    +0.152 HD
ENDROOT
BRANCH   2  10
ATOM     10  C   UNL     1       1.143  -0.395  -0.102  0.00  0.00    -0.014 A 
ATOM     11  C   UNL     1       0.466  -0.394  -1.308  0.00  0.00    +0.006 A 
ATOM     12  C   UNL     1       1.136  -0.689  -2.481  0.00  0.00    +0.002 A 
ATOM     13  C   UNL     1       2.485  -0.987  -2.451  0.00  0.00    +0.028 A 
ATOM     14  C   UNL     1       3.167  -0.989  -1.242  0.00  0.00    +0.069 A 
ATOM     15  C   UNL     1       2.492  -0.686  -0.067  0.00  0.00    +0.034 A 
BRANCH  14  16
ATOM     16  N   UNL     1       4.536  -1.290  -1.208  0.00  0.00    -0.200 N 
ATOM     17  C   UNL     1       5.355  -1.502  -2.261  0.00  0.00    +0.250 A 
ATOM     18  N   UNL     1       6.546  -1.751  -1.783  0.00  0.00    -0.116 NA
ATOM     19  N   UNL     1       6.536  -1.711  -0.499  0.00  0.00    -0.023 NA
ATOM     20  N   UNL     1       5.352  -1.431  -0.072  0.00  0.00    -0.039 NA
ENDBRANCH  14  16
ENDBRANCH   2  10
BRANCH   5  21
ATOM     21  C   UNL     1      -2.409  -2.169   2.382  0.00  0.00    +0.213 C 
BRANCH  21  22
ATOM     22  C   UNL     1      -2.449  -3.450   1.589  0.00  0.00    +0.234 C 
ATOM     23  O   UNL     1      -1.522  -3.743   0.863  0.00  0.00    -0.274 OA
ATOM     24  N   UNL     1      -3.514  -4.269   1.685  0.00  0.00    -0.292 N 
BRANCH  24  25
ATOM     25  C   UNL     1      -3.506  -5.565   1.001  0.00  0.00    +0.099 C 
ATOM     26  C   UNL     1      -3.375  -5.342  -0.514  0.00  0.00    +0.046 C 
ATOM     27  C   UNL     1      -3.055  -6.711  -1.180  0.00  0.00    +0.168 C 
ATOM     28  S   UNL     1      -1.860  -7.406   0.038  0.00  0.00    -0.029 S 
ATOM     29  O   UNL     1      -0.540  -7.063  -0.361  0.00  0.00    -0.174 OA
ATOM     30  O   UNL     1      -2.186  -8.768   0.280  0.00  0.00    -0.174 OA
ATOM     31  C   UNL     1      -2.315  -6.409   1.514  0.00  0.00    +0.188 C 
ENDBRANCH  24  25
BRANCH  24  32
ATOM     32  C   UNL     1      -4.681  -3.864   2.473  0.00  0.00    +0.077 C 
ATOM     33  C   UNL     1      -5.707  -4.944   2.822  0.00  0.00    +0.024 C 
ATOM     34  C   UNL     1      -6.043  -3.878   1.777  0.00  0.00    +0.024 C 
ENDBRANCH  24  32
ENDBRANCH  21  22
ENDBRANCH   5  21
TORSDOF 6
