REMARK  Name = ZINC43527783
REMARK  8 active torsions:
REMARK  status: ('A' for Active; 'I' for Inactive)
REMARK    1  A    between atoms: C_1  and  C_2
REMARK    2  A    between atoms: C_4  and  C_32
REMARK    3  A    between atoms: C_6  and  C_8
REMARK    4  A    between atoms: C_17  and  C_19
REMARK    5  A    between atoms: C_19  and  N_20
REMARK    6  A    between atoms: N_20  and  S_21
REMARK    7  A    between atoms: S_21  and  C_24
REMARK    8  A    between atoms: C_29  and  C_30
REMARK                            x       y       z     vdW  Elec       q    Type
REMARK                         _______ _______ _______ _____ _____    ______ ____
ROOT
ATOM      1  C   UNL     1       0.050  -2.698   2.511  0.00  0.00    +0.024 C 
ATOM      2  C   UNL     1      -0.755  -3.994   2.396  0.00  0.00    -0.068 C 
ATOM      3  N   UNL     1       0.104  -5.146   2.682  0.00  0.00    +0.383 N 
ATOM      4  C   UNL     1       1.202  -5.223   1.715  0.00  0.00    -0.078 C 
ATOM      5  C   UNL     1       2.072  -3.967   1.808  0.00  0.00    -0.015 C 
ATOM      6  C   UNL     1       1.496  -3.042   2.892  0.00  0.00    -0.007 C 
ATOM      7  C   UNL     1       1.477  -3.810   4.221  0.00  0.00    -0.010 C 
ATOM      8  C   UNL     1       0.626  -5.073   4.049  0.00  0.00    -0.053 C 
ATOM      9  H   UNL     1      -0.448  -5.986   2.595  0.00  0.00    -0.081 HD
ENDROOT
BRANCH   1  15
ATOM     10  C   UNL     1      -0.018   1.503   0.010  0.00  0.00    +0.088 C 
ATOM     11  C   UNL     1       0.002  -0.004   0.002  0.00  0.00    +0.127 A 
ATOM     12  N   UNL     1       0.005  -0.637  -1.153  0.00  0.00    -0.232 NA
ATOM     13  C   UNL     1       0.023  -1.968  -1.198  0.00  0.00    +0.075 A 
ATOM     14  C   UNL     1       0.038  -2.684   0.003  0.00  0.00    +0.052 A 
ATOM     15  C   UNL     1       0.035  -1.974   1.190  0.00  0.00    +0.047 A 
ATOM     16  N   UNL     1       0.022  -0.650   1.151  0.00  0.00    -0.237 NA
BRANCH  13  17
ATOM     17  C   UNL     1       0.026  -2.678  -2.499  0.00  0.00    +0.001 A 
ATOM     18  C   UNL     1       0.039  -4.072  -2.535  0.00  0.00    +0.013 A 
ATOM     19  C   UNL     1       0.042  -4.728  -3.748  0.00  0.00    +0.039 A 
ATOM     20  C   UNL     1       0.032  -4.005  -4.930  0.00  0.00    +0.123 A 
ATOM     21  C   UNL     1       0.019  -2.619  -4.899  0.00  0.00    +0.039 A 
ATOM     22  C   UNL     1       0.010  -1.954  -3.690  0.00  0.00    +0.013 A 
ATOM     23  F   UNL     1       0.035  -4.652  -6.116  0.00  0.00    -0.205 F 
ENDBRANCH  13  17
ENDBRANCH   1  15
BRANCH   8  24
ATOM     24  C   UNL     1       1.484  -6.308   4.331  0.00  0.00    +0.090 C 
BRANCH  24  25
ATOM     25  N   UNL     1       0.702  -7.518   4.066  0.00  0.00    -0.191 NA
ATOM     26  H   UNL     1      -0.262  -7.461   3.974  0.00  0.00    +0.148 HD
BRANCH  25  27
ATOM     27  S   UNL     1       1.463  -8.981   3.924  0.00  0.00    +0.060 S 
ATOM     28  O   UNL     1       0.447  -9.948   3.699  0.00  0.00    -0.153 OA
ATOM     29  O   UNL     1       2.546  -8.790   3.023  0.00  0.00    -0.153 OA
BRANCH  27  30
ATOM     30  C   UNL     1       2.174  -9.353   5.493  0.00  0.00    +0.123 A 
ATOM     31  C   UNL     1       1.725 -10.440   6.215  0.00  0.00    +0.030 A 
ATOM     32  C   UNL     1       2.282 -10.733   7.447  0.00  0.00    +0.002 A 
ATOM     33  C   UNL     1       3.292  -9.941   7.964  0.00  0.00    +0.001 A 
ATOM     34  C   UNL     1       3.750  -8.851   7.252  0.00  0.00    +0.021 A 
ATOM     35  C   UNL     1       3.197  -8.553   6.005  0.00  0.00    +0.078 A 
BRANCH  35  36
ATOM     36  C   UNL     1       3.672  -7.428   5.258  0.00  0.00    +0.101 C 
ATOM     37  N   UNL     1       4.050  -6.535   4.665  0.00  0.00    -0.191 NA
ENDBRANCH  35  36
ENDBRANCH  27  30
ENDBRANCH  25  27
ENDBRANCH  24  25
ENDBRANCH   8  24
TORSDOF 7
