REMARK  Name = ZINC21901024
REMARK  6 active torsions:
REMARK  status: ('A' for Active; 'I' for Inactive)
REMARK    1  A    between atoms: C_1  and  C_2
REMARK    2  A    between atoms: C_3  and  C_28
REMARK    3  A    between atoms: C_4  and  N_13
REMARK    4  A    between atoms: C_6  and  C_7
REMARK    5  A    between atoms: C_14  and  C_16
REMARK    6  A    between atoms: C_16  and  N_17
REMARK                            x       y       z     vdW  Elec       q    Type
REMARK                         _______ _______ _______ _____ _____    ______ ____
ROOT
ATOM      1  C   UNL     1      -4.425   2.986   1.396  0.00  0.00    +0.046 C 
ATOM      2  C   UNL     1      -3.866   4.259   1.978  0.00  0.00    -0.022 A 
ATOM      3  C   UNL     1      -2.920   5.014   1.285  0.00  0.00    +0.069 A 
ATOM      4  C   UNL     1      -2.449   6.176   1.894  0.00  0.00    +0.085 A 
ATOM      5  S   UNL     1      -3.320   6.209   3.392  0.00  0.00    -0.072 S 
ATOM      6  C   UNL     1      -4.267   4.711   3.197  0.00  0.00    +0.025 A 
ENDROOT
BRANCH   3   7
ATOM      7  C   UNL     1      -2.433   4.597  -0.034  0.00  0.00    +0.249 C 
ATOM      8  O   UNL     1      -3.006   4.973  -1.040  0.00  0.00    -0.270 OA
ATOM      9  N   UNL     1      -1.353   3.798  -0.133  0.00  0.00    -0.297 N 
ATOM     10  C   UNL     1      -0.854   3.372  -1.447  0.00  0.00    +0.108 C 
ATOM     11  C   UNL     1      -0.750   1.844  -1.464  0.00  0.00    +0.019 C 
ATOM     12  C   UNL     1       0.111   1.382  -0.285  0.00  0.00    +0.003 C 
ATOM     13  C   UNL     1      -0.550   1.807   1.028  0.00  0.00    +0.019 C 
ATOM     14  C   UNL     1      -0.652   3.335   1.073  0.00  0.00    +0.108 C 
ENDBRANCH   3   7
BRANCH   6  15
ATOM     15  C   UNL     1      -5.245   4.111   4.128  0.00  0.00    -0.011 A 
ATOM     16  C   UNL     1      -6.232   4.904   4.716  0.00  0.00    +0.009 A 
ATOM     17  C   UNL     1      -7.144   4.336   5.581  0.00  0.00    +0.001 A 
ATOM     18  C   UNL     1      -7.077   2.985   5.874  0.00  0.00    +0.000 A 
ATOM     19  C   UNL     1      -6.098   2.194   5.298  0.00  0.00    +0.001 A 
ATOM     20  C   UNL     1      -5.183   2.748   4.428  0.00  0.00    +0.009 A 
ENDBRANCH   6  15
BRANCH   4  21
ATOM     21  N   UNL     1      -1.515   7.081   1.418  0.00  0.00    -0.278 N 
ATOM     22  C   UNL     1      -1.183   8.158   2.158  0.00  0.00    +0.235 C 
ATOM     23  O   UNL     1      -1.701   8.333   3.240  0.00  0.00    -0.274 OA
ATOM     24  H   UNL     1      -1.045   6.922   0.436  0.00  0.00    +0.155 HD
BRANCH  22  25
ATOM     25  C   UNL     1      -0.167   9.144   1.640  0.00  0.00    +0.209 C 
BRANCH  25  26
ATOM     26  N   UNL     1       0.018  10.215   2.622  0.00  0.00    -0.257 N 
ATOM     27  C   UNL     1      -0.772  11.373   2.569  0.00  0.00    +0.079 A 
ATOM     28  C   UNL     1      -1.933  11.403   1.815  0.00  0.00    +0.027 A 
ATOM     29  C   UNL     1      -2.697  12.556   1.776  0.00  0.00    +0.002 A 
ATOM     30  C   UNL     1      -2.305  13.675   2.486  0.00  0.00    +0.004 A 
ATOM     31  C   UNL     1      -1.155  13.646   3.248  0.00  0.00    +0.047 A 
ATOM     32  C   UNL     1      -0.382  12.499   3.289  0.00  0.00    +0.143 A 
ATOM     33  O   UNL     1       0.762  12.460   4.023  0.00  0.00    -0.481 OA
ATOM     34  C   UNL     1       1.106  11.203   4.611  0.00  0.00    +0.325 C 
ATOM     35  C   UNL     1       0.955  10.106   3.588  0.00  0.00    +0.258 C 
ATOM     36  O   UNL     1       1.673   9.130   3.632  0.00  0.00    -0.271 OA
ENDBRANCH  25  26
ENDBRANCH  22  25
ENDBRANCH   4  21
TORSDOF 5
