REMARK  Name = ZINC36544594
REMARK  11 active torsions:
REMARK  status: ('A' for Active; 'I' for Inactive)
REMARK    1  A    between atoms: C_1  and  C_2
REMARK    2  A    between atoms: C_2  and  C_3
REMARK    3  A    between atoms: C_2  and  C_4
REMARK    4  A    between atoms: C_2  and  N_5
REMARK    5  A    between atoms: C_6  and  C_8
REMARK    6  A    between atoms: C_8  and  C_10
REMARK    7  A    between atoms: C_8  and  N_19
REMARK    8  A    between atoms: C_13  and  O_18
REMARK    9  A    between atoms: C_14  and  O_16
REMARK   10  A    between atoms: O_16  and  C_17
REMARK   11  A    between atoms: N_19  and  C_22
REMARK                            x       y       z     vdW  Elec       q    Type
REMARK                         _______ _______ _______ _____ _____    ______ ____
ROOT
ATOM      1  C   UNL     1       2.683  -0.606  -2.658  0.00  0.00    +0.197 C 
ENDROOT
BRANCH   1   2
ATOM      2  C   UNL     1       1.638  -0.105  -3.621  0.00  0.00    -0.014 A 
ATOM      3  C   UNL     1       0.780   0.910  -3.242  0.00  0.00    +0.010 A 
ATOM      4  C   UNL     1      -0.180   1.373  -4.122  0.00  0.00    +0.049 A 
ATOM      5  C   UNL     1      -0.284   0.820  -5.388  0.00  0.00    +0.158 A 
ATOM      6  C   UNL     1       0.580  -0.202  -5.771  0.00  0.00    +0.162 A 
ATOM      7  C   UNL     1       1.544  -0.658  -4.885  0.00  0.00    +0.055 A 
BRANCH   6   8
ATOM      8  O   UNL     1       0.483  -0.748  -7.012  0.00  0.00    -0.491 OA
ATOM      9  C   UNL     1       1.403  -1.792  -7.336  0.00  0.00    +0.277 C 
ENDBRANCH   6   8
BRANCH   5  10
ATOM     10  O   UNL     1      -1.228   1.274  -6.255  0.00  0.00    -0.503 OA
ATOM     11  H   UNL     1      -0.930   2.004  -6.814  0.00  0.00    +0.292 HD
ENDBRANCH   5  10
ENDBRANCH   1   2
BRANCH   1  13
ATOM     12  N   UNL     1       1.032  -1.304  -0.953  0.00  0.00    -0.309 N 
ATOM     13  C   UNL     1       2.128  -0.581  -1.257  0.00  0.00    +0.239 C 
ATOM     14  O   UNL     1       2.668   0.090  -0.403  0.00  0.00    -0.273 OA
ATOM     15  H   UNL     1       0.600  -1.840  -1.636  0.00  0.00    +0.149 HD
BRANCH  12  17
ATOM     16  C   UNL     1       0.104   0.155   0.777  0.00  0.00    +0.031 C 
ATOM     17  C   UNL     1       0.492  -1.279   0.409  0.00  0.00    +0.026 C 
ATOM     18  C   UNL     1       1.553  -1.787   1.387  0.00  0.00    +0.031 C 
ATOM     19  C   UNL     1      -0.744  -2.177   0.484  0.00  0.00    +0.031 C 
ENDBRANCH  12  17
ENDBRANCH   1  13
BRANCH   1  20
ATOM     20  N   UNL     1       3.866   0.254  -2.730  0.00  0.00    -0.256 N 
ATOM     21  C   UNL     1       3.742   1.586  -2.566  0.00  0.00    +0.333 C 
ATOM     22  O   UNL     1       4.707   2.307  -2.707  0.00  0.00    -0.279 OA
BRANCH  20  23
ATOM     23  C   UNL     1       5.126  -0.307  -2.970  0.00  0.00    +0.055 A 
ATOM     24  C   UNL     1       5.588  -0.450  -4.272  0.00  0.00    +0.025 A 
ATOM     25  C   UNL     1       6.831  -1.004  -4.505  0.00  0.00    +0.002 A 
ATOM     26  C   UNL     1       7.617  -1.416  -3.444  0.00  0.00    +0.002 A 
ATOM     27  C   UNL     1       7.161  -1.275  -2.147  0.00  0.00    +0.022 A 
ATOM     28  C   UNL     1       5.920  -0.717  -1.906  0.00  0.00    +0.062 A 
ATOM     29 CL   UNL     1       5.351  -0.534  -0.276  0.00  0.00    -0.082 Cl
ENDBRANCH  20  23
ENDBRANCH   1  20
TORSDOF 7
