REMARK  Name = ZINC15580484
REMARK  9 active torsions:
REMARK  status: ('A' for Active; 'I' for Inactive)
REMARK    1  A    between atoms: C_1  and  C_2
REMARK    2  A    between atoms: C_11  and  O_13
REMARK    3  A    between atoms: O_13  and  C_14
REMARK    4  A    between atoms: C_14  and  C_16
REMARK    5  A    between atoms: C_16  and  C_18
REMARK    6  A    between atoms: C_16  and  N_24
REMARK    7  A    between atoms: C_18  and  C_19
REMARK    8  A    between atoms: C_19  and  S_20
REMARK    9  A    between atoms: S_20  and  C_23
REMARK                            x       y       z     vdW  Elec       q    Type
REMARK                         _______ _______ _______ _____ _____    ______ ____
ROOT
ATOM      1  C   UNL     1      -4.881   3.691  -0.161  0.00  0.00    +0.195 C 
ENDROOT
BRANCH   1   2
ATOM      2  N   UNL     1      -5.918   2.661  -0.256  0.00  0.00    -0.220 N 
ATOM      3  C   UNL     1      -5.993   1.744  -1.238  0.00  0.00    +0.255 C 
ATOM      4  O   UNL     1      -5.222   1.639  -2.171  0.00  0.00    -0.270 OA
ATOM      5  C   UNL     1      -7.168   0.882  -0.989  0.00  0.00    +0.049 A 
ATOM      6  C   UNL     1      -7.729  -0.202  -1.644  0.00  0.00    +0.014 A 
ATOM      7  C   UNL     1      -8.871  -0.798  -1.133  0.00  0.00    +0.001 A 
ATOM      8  C   UNL     1      -9.454  -0.318   0.025  0.00  0.00    +0.001 A 
ATOM      9  C   UNL     1      -8.904   0.766   0.691  0.00  0.00    +0.014 A 
ATOM     10  C   UNL     1      -7.762   1.371   0.192  0.00  0.00    +0.049 A 
ATOM     11  C   UNL     1      -6.925   2.511   0.623  0.00  0.00    +0.255 C 
ATOM     12  O   UNL     1      -7.115   3.198   1.607  0.00  0.00    -0.270 OA
ENDBRANCH   1   2
BRANCH   1  13
ATOM     13  C   UNL     1      -3.529   3.034  -0.056  0.00  0.00    +0.334 C 
ATOM     14  O   UNL     1      -3.441   1.829  -0.060  0.00  0.00    -0.248 OA
BRANCH  13  15
ATOM     15  O   UNL     1      -2.422   3.788   0.042  0.00  0.00    -0.424 OA
BRANCH  15  26
ATOM     16  C   UNL     1       2.985   0.449  -1.345  0.00  0.00    +0.045 C 
ATOM     17  C   UNL     1       2.485   1.116  -0.089  0.00  0.00    -0.033 A 
ATOM     18  C   UNL     1       3.217   1.087   1.055  0.00  0.00    +0.096 A 
ATOM     19  C   UNL     1       2.727   1.718   2.217  0.00  0.00    +0.337 A 
ATOM     20  O   UNL     1       3.393   1.683   3.236  0.00  0.00    -0.245 OA
ATOM     21  O   UNL     1       1.546   2.355   2.229  0.00  0.00    -0.422 OA
ATOM     22  C   UNL     1       0.769   2.421   1.127  0.00  0.00    +0.143 A 
ATOM     23  C   UNL     1       1.197   1.813  -0.069  0.00  0.00    +0.021 A 
ATOM     24  C   UNL     1       0.396   1.878  -1.214  0.00  0.00    +0.015 A 
ATOM     25  C   UNL     1      -0.799   2.538  -1.169  0.00  0.00    +0.047 A 
ATOM     26  C   UNL     1      -1.229   3.139   0.013  0.00  0.00    +0.135 A 
ATOM     27  C   UNL     1      -0.449   3.083   1.156  0.00  0.00    +0.093 A 
ENDBRANCH  15  26
ENDBRANCH  13  15
ENDBRANCH   1  13
BRANCH   1  28
ATOM     28  C   UNL     1      -4.923   4.574  -1.410  0.00  0.00    +0.057 C 
BRANCH  28  29
ATOM     29  C   UNL     1      -6.248   5.337  -1.451  0.00  0.00    +0.168 C 
BRANCH  29  30
ATOM     30  S   UNL     1      -6.298   6.383  -2.932  0.00  0.00    -0.034 S 
ATOM     31  O   UNL     1      -5.290   7.378  -2.814  0.00  0.00    -0.175 OA
ATOM     32  O   UNL     1      -6.308   5.542  -4.077  0.00  0.00    -0.175 OA
ATOM     33  C   UNL     1      -7.918   7.189  -2.798  0.00  0.00    +0.194 C 
ENDBRANCH  29  30
ENDBRANCH  28  29
ENDBRANCH   1  28
TORSDOF 7
