REMARK  Name = ZINC21541689
REMARK  5 active torsions:
REMARK  status: ('A' for Active; 'I' for Inactive)
REMARK    1  A    between atoms: C_1  and  C_2
REMARK    2  A    between atoms: C_6  and  C_22
REMARK    3  A    between atoms: C_7  and  N_8
REMARK    4  A    between atoms: C_9  and  S_13
REMARK    5  A    between atoms: S_13  and  C_14
REMARK                            x       y       z     vdW  Elec       q    Type
REMARK                         _______ _______ _______ _____ _____    ______ ____
ROOT
ATOM      1  N   UNL     1       1.630  -0.298   0.277  0.00  0.00    -0.187 N 
ATOM      2  C   UNL     1       0.377   0.235   0.312  0.00  0.00    +0.215 A 
ATOM      3  N   UNL     1       0.517   1.533   0.475  0.00  0.00    -0.101 NA
ATOM      4  N   UNL     1       1.760   1.847   0.544  0.00  0.00    -0.022 NA
ATOM      5  N   UNL     1       2.499   0.796   0.433  0.00  0.00    -0.038 NA
ENDROOT
BRANCH   1  12
ATOM      6  C   UNL     1       0.669  -2.169   2.195  0.00  0.00    +0.046 C 
ATOM      7  C   UNL     1       1.531  -2.592   1.033  0.00  0.00    -0.025 A 
ATOM      8  C   UNL     1       1.872  -3.921   0.874  0.00  0.00    +0.005 A 
ATOM      9  C   UNL     1       2.666  -4.309  -0.189  0.00  0.00    +0.001 A 
ATOM     10  C   UNL     1       3.118  -3.370  -1.098  0.00  0.00    +0.005 A 
ATOM     11  C   UNL     1       2.776  -2.040  -0.946  0.00  0.00    -0.025 A 
ATOM     12  C   UNL     1       1.978  -1.647   0.120  0.00  0.00    +0.076 A 
ATOM     13  C   UNL     1       3.270  -1.017  -1.936  0.00  0.00    +0.046 C 
ENDBRANCH   1  12
BRANCH   2  14
ATOM     14  S   UNL     1      -1.142  -0.646   0.166  0.00  0.00    -0.073 S 
BRANCH  14  15
ATOM     15  C   UNL     1      -2.315   0.726   0.306  0.00  0.00    +0.120 C 
ATOM     16  C   UNL     1      -3.742   0.205   0.104  0.00  0.00    +0.022 C 
ATOM     17  C   UNL     1      -4.737   1.338   0.362  0.00  0.00    +0.002 C 
ATOM     18  C   UNL     1      -4.645   1.787   1.821  0.00  0.00    +0.008 C 
ATOM     19  C   UNL     1      -3.252   2.367   2.088  0.00  0.00    +0.075 C 
ATOM     20  C   UNL     1      -2.218   1.339   1.685  0.00  0.00    +0.147 C 
ATOM     21  O   UNL     1      -1.337   1.016   2.445  0.00  0.00    -0.296 OA
ENDBRANCH  14  15
ENDBRANCH   2  14
TORSDOF 3
