REMARK  Name = ZINC61594571
REMARK  7 active torsions:
REMARK  status: ('A' for Active; 'I' for Inactive)
REMARK    1  A    between atoms: C_1  and  C_2
REMARK    2  A    between atoms: C_2  and  C_4
REMARK    3  A    between atoms: C_2  and  N_23
REMARK    4  A    between atoms: C_4  and  C_6
REMARK    5  A    between atoms: C_4  and  S_12
REMARK    6  A    between atoms: S_12  and  C_13
REMARK    7  A    between atoms: N_19  and  C_20
REMARK                            x       y       z     vdW  Elec       q    Type
REMARK                         _______ _______ _______ _____ _____    ______ ____
ROOT
ATOM      1  C   UNL     1       0.845  -0.516   1.173  0.00  0.00    +0.076 C 
ENDROOT
BRANCH   1   2
ATOM      2  C   UNL     1       1.116  -1.994   1.058  0.00  0.00    +0.003 A 
ATOM      3  C   UNL     1       2.304  -2.639   0.953  0.00  0.00    +0.027 A 
ATOM      4  C   UNL     1       2.312  -4.018   0.858  0.00  0.00    +0.025 A 
ATOM      5  C   UNL     1       1.132  -4.685   0.873  0.00  0.00    +0.060 A 
ATOM      6  S   UNL     1      -0.044  -3.351   1.033  0.00  0.00    -0.099 S 
ATOM      7 BR   UNL     1       3.945  -4.960   0.710  0.00  0.00    -0.050 Br
ENDBRANCH   1   2
BRANCH   1   9
ATOM      8  C   UNL     1      -0.254   1.446   0.085  0.00  0.00    -0.013 C 
ATOM      9  C   UNL     1      -0.025  -0.064  -0.001  0.00  0.00    -0.060 C 
BRANCH   9  10
ATOM     10  N   UNL     1       0.652  -0.385  -1.265  0.00  0.00    +0.381 N 
ATOM     11  H   UNL     1       0.803  -1.381  -1.322  0.00  0.00    -0.090 HD
ATOM     12  H   UNL     1       0.078  -0.087  -2.039  0.00  0.00    -0.090 HD
ATOM     13  H   UNL     1       1.540   0.092  -1.301  0.00  0.00    -0.090 HD
ENDBRANCH   9  10
ENDBRANCH   1   9
BRANCH   1  14
ATOM     14  S   UNL     1      -0.020  -0.179   2.732  0.00  0.00    -0.079 S 
BRANCH  14  15
ATOM     15  C   UNL     1       1.181  -0.535   3.971  0.00  0.00    +0.193 A 
ATOM     16  N   UNL     1       2.370  -1.021   3.759  0.00  0.00    -0.145 NA
ATOM     17  N   UNL     1       3.010  -1.157   4.999  0.00  0.00    -0.226 N 
ATOM     18  H   UNL     1       3.907  -1.494   5.147  0.00  0.00    +0.194 HD
ATOM     19  C   UNL     1       2.150  -0.731   5.947  0.00  0.00    +0.345 A 
ATOM     20  O   UNL     1       2.358  -0.701   7.146  0.00  0.00    -0.245 OA
ATOM     21  N   UNL     1       1.020  -0.340   5.324  0.00  0.00    -0.268 N 
BRANCH  21  22
ATOM     22  C   UNL     1      -0.176   0.198   5.977  0.00  0.00    +0.094 C 
ATOM     23  C   UNL     1      -0.081   0.525   7.468  0.00  0.00    +0.027 C 
ATOM     24  C   UNL     1      -0.882  -0.692   7.002  0.00  0.00    +0.027 C 
ENDBRANCH  21  22
ENDBRANCH  14  15
ENDBRANCH   1  14
TORSDOF 6
