REMARK  Name = ZINC58854516
REMARK  9 active torsions:
REMARK  status: ('A' for Active; 'I' for Inactive)
REMARK    1  A    between atoms: C_1  and  C_2
REMARK    2  A    between atoms: C_2  and  C_4
REMARK    3  A    between atoms: C_2  and  S_19
REMARK    4  A    between atoms: N_6  and  N_7
REMARK    5  A    between atoms: C_8  and  C_9
REMARK    6  A    between atoms: C_11  and  O_17
REMARK    7  A    between atoms: C_12  and  O_16
REMARK    8  A    between atoms: O_17  and  C_18
REMARK    9  A    between atoms: S_19  and  C_20
REMARK                            x       y       z     vdW  Elec       q    Type
REMARK                         _______ _______ _______ _____ _____    ______ ____
ROOT
ATOM      1  C   UNL     1       1.229  -0.326  -1.304  0.00  0.00    +0.245 C 
ATOM      2  O   UNL     1       2.398  -0.562  -1.079  0.00  0.00    -0.273 OA
ATOM      3  N   UNL     1       0.767  -0.353  -2.570  0.00  0.00    -0.206 N 
ATOM      4  H   UNL     1      -0.167  -0.164  -2.749  0.00  0.00    +0.177 HD
ENDROOT
BRANCH   1   6
ATOM      5  C   UNL     1       0.095   1.513  -0.086  0.00  0.00    +0.029 C 
ATOM      6  C   UNL     1       0.294  -0.002  -0.167  0.00  0.00    +0.136 C 
BRANCH   6   7
ATOM      7  S   UNL     1       1.004  -0.603   1.390  0.00  0.00    -0.113 S 
BRANCH   7   8
ATOM      8  C   UNL     1       0.931  -2.357   1.244  0.00  0.00    +0.009 A 
ATOM      9  C   UNL     1       0.297  -2.939   0.152  0.00  0.00    +0.015 A 
ATOM     10  C   UNL     1       0.241  -4.314   0.041  0.00  0.00    +0.001 A 
ATOM     11  C   UNL     1       0.815  -5.112   1.014  0.00  0.00    +0.000 A 
ATOM     12  C   UNL     1       1.446  -4.537   2.102  0.00  0.00    +0.001 A 
ATOM     13  C   UNL     1       1.511  -3.162   2.217  0.00  0.00    +0.015 A 
ENDBRANCH   7   8
ENDBRANCH   6   7
ENDBRANCH   1   6
BRANCH   3  14
ATOM     14  N   UNL     1       1.637  -0.654  -3.626  0.00  0.00    -0.188 NA
ATOM     15  C   UNL     1       1.192  -0.680  -4.845  0.00  0.00    +0.138 C 
BRANCH  15  16
ATOM     16  C   UNL     1       2.106  -0.996  -5.957  0.00  0.00    -0.001 A 
ATOM     17  C   UNL     1       1.630  -1.019  -7.271  0.00  0.00    +0.059 A 
ATOM     18  C   UNL     1       2.492  -1.317  -8.310  0.00  0.00    +0.163 A 
ATOM     19  C   UNL     1       3.832  -1.593  -8.047  0.00  0.00    +0.173 A 
ATOM     20  C   UNL     1       4.305  -1.571  -6.742  0.00  0.00    +0.063 A 
ATOM     21  C   UNL     1       3.452  -1.269  -5.700  0.00  0.00    +0.028 A 
ATOM     22 BR   UNL     1       6.125  -1.948  -6.393  0.00  0.00    -0.046 Br
BRANCH  19  23
ATOM     23  O   UNL     1       4.677  -1.887  -9.070  0.00  0.00    -0.503 OA
ATOM     24  H   UNL     1       5.116  -1.114  -9.451  0.00  0.00    +0.292 HD
ENDBRANCH  19  23
BRANCH  18  25
ATOM     25  O   UNL     1       2.032  -1.339  -9.589  0.00  0.00    -0.491 OA
ATOM     26  C   UNL     1       0.647  -1.046  -9.786  0.00  0.00    +0.277 C 
ENDBRANCH  18  25
ENDBRANCH  15  16
ENDBRANCH   3  14
TORSDOF 7
