REMARK  Name = ZINC45961990
REMARK  8 active torsions:
REMARK  status: ('A' for Active; 'I' for Inactive)
REMARK    1  A    between atoms: C_1  and  C_2
REMARK    2  A    between atoms: C_2  and  C_3
REMARK    3  A    between atoms: C_3  and  N_4
REMARK    4  A    between atoms: N_4  and  C_5
REMARK    5  A    between atoms: C_15  and  N_16
REMARK    6  A    between atoms: N_16  and  S_17
REMARK    7  A    between atoms: S_17  and  C_20
REMARK    8  A    between atoms: C_25  and  C_26
REMARK                            x       y       z     vdW  Elec       q    Type
REMARK                         _______ _______ _______ _____ _____    ______ ____
ROOT
ATOM      1  C   UNL     1      -2.598  -2.709   0.118  0.00  0.00    +0.068 A 
ATOM      2  C   UNL     1      -2.601  -4.179   0.178  0.00  0.00    +0.040 A 
ATOM      3  C   UNL     1      -1.405  -4.900   0.218  0.00  0.00    +0.013 A 
ATOM      4  C   UNL     1      -1.440  -6.275   0.274  0.00  0.00    +0.001 A 
ATOM      5  C   UNL     1      -2.656  -6.944   0.290  0.00  0.00    +0.004 A 
ATOM      6  C   UNL     1      -3.844  -6.245   0.250  0.00  0.00    +0.047 A 
ATOM      7  C   UNL     1      -3.830  -4.857   0.194  0.00  0.00    +0.141 A 
ATOM      8  O   UNL     1      -4.986  -4.159   0.155  0.00  0.00    -0.421 OA
ATOM      9  C   UNL     1      -5.005  -2.818   0.100  0.00  0.00    +0.362 A 
ATOM     10  O   UNL     1      -6.078  -2.241   0.067  0.00  0.00    -0.243 OA
ATOM     11  C   UNL     1      -3.819  -2.061   0.086  0.00  0.00    +0.154 A 
ENDROOT
BRANCH   1  12
ATOM     12  N   UNL     1      -1.411  -1.998   0.101  0.00  0.00    -0.342 N 
ATOM     13  H   UNL     1      -0.564  -2.468   0.063  0.00  0.00    +0.146 HD
BRANCH  12  14
ATOM     14  C   UNL     1      -1.435  -0.533   0.139  0.00  0.00    +0.101 C 
BRANCH  14  16
ATOM     15  C   UNL     1      -0.033   1.525   0.340  0.00  0.00    +0.005 C 
ATOM     16  C   UNL     1      -0.008  -0.004   0.300  0.00  0.00    +0.015 C 
ENDBRANCH  14  16
ENDBRANCH  12  14
ENDBRANCH   1  12
BRANCH  11  17
ATOM     17  N   UNL     1      -3.876  -0.656   0.034  0.00  0.00    -0.208 N 
ATOM     18  H   UNL     1      -3.062  -0.143  -0.088  0.00  0.00    +0.174 HD
BRANCH  17  19
ATOM     19  S   UNL     1      -5.331   0.120   0.183  0.00  0.00    +0.073 S 
ATOM     20  O   UNL     1      -6.004  -0.486   1.278  0.00  0.00    -0.150 OA
ATOM     21  O   UNL     1      -5.054   1.513   0.135  0.00  0.00    -0.150 OA
BRANCH  19  22
ATOM     22  C   UNL     1      -6.272  -0.257  -1.258  0.00  0.00    +0.113 A 
ATOM     23  C   UNL     1      -7.492  -0.897  -1.138  0.00  0.00    +0.029 A 
ATOM     24  C   UNL     1      -8.231  -1.193  -2.268  0.00  0.00    +0.003 A 
ATOM     25  C   UNL     1      -7.751  -0.850  -3.518  0.00  0.00    +0.020 A 
ATOM     26  C   UNL     1      -6.530  -0.211  -3.638  0.00  0.00    +0.046 A 
ATOM     27  C   UNL     1      -5.793   0.091  -2.506  0.00  0.00    -0.006 A 
ATOM     28  C   UNL     1      -4.466   0.794  -2.636  0.00  0.00    +0.047 C 
ATOM     29 CL   UNL     1      -5.926   0.220  -5.208  0.00  0.00    -0.083 Cl
ENDBRANCH  19  22
ENDBRANCH  17  19
ENDBRANCH  11  17
TORSDOF 6
