REMARK  Name = ZINC39665784
REMARK  9 active torsions:
REMARK  status: ('A' for Active; 'I' for Inactive)
REMARK    1  A    between atoms: C_1  and  C_2
REMARK    2  A    between atoms: C_2  and  C_4
REMARK    3  A    between atoms: C_2  and  O_32
REMARK    4  A    between atoms: C_4  and  N_5
REMARK    5  A    between atoms: C_6  and  C_8
REMARK    6  A    between atoms: C_19  and  C_21
REMARK    7  A    between atoms: O_32  and  C_33
REMARK    8  A    between atoms: C_36  and  O_39
REMARK    9  A    between atoms: O_39  and  C_40
REMARK                            x       y       z     vdW  Elec       q    Type
REMARK                         _______ _______ _______ _____ _____    ______ ____
ROOT
ATOM      1  C   UNL     1       1.385  -4.282   1.472  0.00  0.00    +0.100 C 
ATOM      2  C   UNL     1      -0.039  -4.842   1.259  0.00  0.00    +0.121 C 
ATOM      3  N   UNL     1      -0.009  -6.188   1.878  0.00  0.00    -0.297 N 
ATOM      4  C   UNL     1       0.804  -6.011   3.105  0.00  0.00    +0.115 C 
ATOM      5  C   UNL     1       1.935  -5.052   2.684  0.00  0.00    -0.004 C 
ATOM      6  C   UNL     1       2.257  -4.086   3.821  0.00  0.00    -0.010 C 
ATOM      7  C   UNL     1       2.856  -4.867   4.994  0.00  0.00    -0.082 C 
ATOM      8  N   UNL     1       4.074  -5.559   4.553  0.00  0.00    +0.379 N 
ATOM      9  C   UNL     1       3.740  -6.552   3.524  0.00  0.00    -0.082 C 
ATOM     10  C   UNL     1       3.179  -5.842   2.289  0.00  0.00    -0.010 C 
ATOM     11  C   UNL     1      -0.589  -7.318   1.427  0.00  0.00    +0.260 C 
ATOM     12  O   UNL     1      -0.473  -8.350   2.052  0.00  0.00    -0.271 OA
ATOM     13  H   UNL     1       4.721  -4.886   4.171  0.00  0.00    -0.086 HD
ATOM     14  H   UNL     1       4.500  -6.023   5.341  0.00  0.00    -0.086 HD
ENDROOT
BRANCH  11  15
ATOM     15  C   UNL     1      -1.383  -7.298   0.146  0.00  0.00    +0.296 C 
ATOM     16  C   UNL     1      -2.629  -6.420   0.323  0.00  0.00    +0.283 C 
ATOM     17  O   UNL     1      -3.365  -6.434  -0.905  0.00  0.00    -0.484 OA
ATOM     18  C   UNL     1      -3.556  -7.648  -1.490  0.00  0.00    +0.162 A 
ATOM     19  C   UNL     1      -4.541  -7.792  -2.456  0.00  0.00    +0.049 A 
ATOM     20  C   UNL     1      -4.745  -9.018  -3.060  0.00  0.00    +0.004 A 
ATOM     21  C   UNL     1      -3.967 -10.104  -2.704  0.00  0.00    +0.004 A 
ATOM     22  C   UNL     1      -2.985  -9.968  -1.742  0.00  0.00    +0.049 A 
ATOM     23  C   UNL     1      -2.777  -8.741  -1.130  0.00  0.00    +0.163 A 
ATOM     24  O   UNL     1      -1.810  -8.625  -0.178  0.00  0.00    -0.473 OA
ENDBRANCH  11  15
BRANCH   1  26
ATOM     25  N   UNL     1       2.377  -2.016   1.455  0.00  0.00    -0.312 N 
ATOM     26  C   UNL     1       1.330  -2.806   1.768  0.00  0.00    +0.218 C 
ATOM     27  O   UNL     1       0.344  -2.328   2.288  0.00  0.00    -0.275 OA
ATOM     28  H   UNL     1       3.166  -2.399   1.039  0.00  0.00    +0.149 HD
BRANCH  25  29
ATOM     29  C   UNL     1       2.324  -0.581   1.743  0.00  0.00    +0.148 C 
BRANCH  29  31
ATOM     30  C   UNL     1       3.625   1.552   1.706  0.00  0.00    +0.053 C 
ATOM     31  C   UNL     1       3.629   0.078   1.293  0.00  0.00    +0.187 C 
BRANCH  31  32
ATOM     32  O   UNL     1       3.746  -0.018  -0.128  0.00  0.00    -0.488 OA
BRANCH  32  33
ATOM     33  C   UNL     1       5.001   0.036  -0.649  0.00  0.00    +0.121 A 
ATOM     34  C   UNL     1       5.197  -0.159  -2.008  0.00  0.00    +0.049 A 
ATOM     35  C   UNL     1       6.472  -0.104  -2.537  0.00  0.00    +0.049 A 
ATOM     36  C   UNL     1       7.556   0.147  -1.709  0.00  0.00    +0.120 A 
ATOM     37  C   UNL     1       7.360   0.344  -0.350  0.00  0.00    +0.049 A 
ATOM     38  C   UNL     1       6.085   0.293   0.178  0.00  0.00    +0.049 A 
BRANCH  36  39
ATOM     39  O   UNL     1       8.811   0.201  -2.230  0.00  0.00    -0.495 OA
ATOM     40  C   UNL     1       9.880   0.464  -1.320  0.00  0.00    +0.277 C 
ENDBRANCH  36  39
ENDBRANCH  32  33
ENDBRANCH  31  32
ENDBRANCH  29  31
ENDBRANCH  25  29
ENDBRANCH   1  26
TORSDOF 7
