REMARK  Name = ZINC08574860
REMARK  8 active torsions:
REMARK  status: ('A' for Active; 'I' for Inactive)
REMARK    1  A    between atoms: C_1  and  C_2
REMARK    2  A    between atoms: C_4  and  C_30
REMARK    3  A    between atoms: C_5  and  O_29
REMARK    4  A    between atoms: C_6  and  C_8
REMARK    5  A    between atoms: N_16  and  C_26
REMARK    6  A    between atoms: C_17  and  C_19
REMARK    7  A    between atoms: C_26  and  C_27
REMARK    8  A    between atoms: C_27  and  O_28
REMARK                            x       y       z     vdW  Elec       q    Type
REMARK                         _______ _______ _______ _____ _____    ______ ____
ROOT
ATOM      1  C   UNL     1      -0.294  -3.446   2.848  0.00  0.00    +0.102 A 
ATOM      2  C   UNL     1      -0.056  -2.726   4.024  0.00  0.00    +0.035 A 
ATOM      3  C   UNL     1       0.147  -3.672   5.010  0.00  0.00    +0.126 A 
ATOM      4  N   UNL     1       0.025  -4.888   4.400  0.00  0.00    -0.272 N 
ATOM      5  H   UNL     1       0.118  -5.746   4.843  0.00  0.00    +0.189 HD
ATOM      6  N   UNL     1      -0.235  -4.727   3.151  0.00  0.00    -0.173 NA
ATOM      7  C   UNL     1       0.405  -2.978   6.276  0.00  0.00    +0.266 C 
ATOM      8  O   UNL     1       0.623  -3.529   7.338  0.00  0.00    -0.268 OA
ATOM      9  N   UNL     1       0.366  -1.645   6.097  0.00  0.00    -0.283 N 
ATOM     10  C   UNL     1       0.076  -1.380   4.682  0.00  0.00    +0.141 C 
ENDROOT
BRANCH   1  16
ATOM     11  C   UNL     1      -1.138   0.522  -0.062  0.00  0.00    +0.044 C 
ATOM     12  C   UNL     1      -0.976  -0.967   0.104  0.00  0.00    -0.049 A 
ATOM     13  C   UNL     1      -1.086  -1.799  -0.996  0.00  0.00    +0.010 A 
ATOM     14  C   UNL     1      -0.940  -3.166  -0.854  0.00  0.00    -0.008 A 
ATOM     15  C   UNL     1      -0.682  -3.710   0.395  0.00  0.00    +0.129 A 
ATOM     16  C   UNL     1      -0.570  -2.872   1.507  0.00  0.00    +0.044 A 
ATOM     17  C   UNL     1      -0.714  -1.495   1.352  0.00  0.00    +0.017 A 
ATOM     18  C   UNL     1      -1.061  -4.066  -2.057  0.00  0.00    +0.047 C 
BRANCH  15  19
ATOM     19  O   UNL     1      -0.538  -5.054   0.536  0.00  0.00    -0.506 OA
ATOM     20  H   UNL     1       0.371  -5.365   0.431  0.00  0.00    +0.292 HD
ENDBRANCH  15  19
ENDBRANCH   1  16
BRANCH  10  21
ATOM     21  C   UNL     1       1.208  -0.605   4.058  0.00  0.00    -0.022 A 
ATOM     22  C   UNL     1       2.480  -1.145   4.029  0.00  0.00    +0.008 A 
ATOM     23  C   UNL     1       3.519  -0.436   3.456  0.00  0.00    +0.038 A 
ATOM     24  C   UNL     1       3.285   0.815   2.911  0.00  0.00    +0.123 A 
ATOM     25  C   UNL     1       2.010   1.355   2.941  0.00  0.00    +0.038 A 
ATOM     26  C   UNL     1       0.972   0.642   3.509  0.00  0.00    +0.008 A 
ATOM     27  F   UNL     1       4.300   1.510   2.351  0.00  0.00    -0.205 F 
ENDBRANCH  10  21
BRANCH   9  28
ATOM     28  C   UNL     1       0.576  -0.633   7.135  0.00  0.00    +0.137 C 
BRANCH  28  29
ATOM     29  C   UNL     1       2.076  -0.396   7.320  0.00  0.00    +0.175 C 
BRANCH  29  30
ATOM     30  O   UNL     1       2.607   0.232   6.151  0.00  0.00    -0.393 OA
ATOM     31  H   UNL     1       3.556   0.412   6.198  0.00  0.00    +0.209 HD
ENDBRANCH  29  30
ENDBRANCH  28  29
ENDBRANCH   9  28
TORSDOF 6
