REMARK  Name = ZINC55390917
REMARK  6 active torsions:
REMARK  status: ('A' for Active; 'I' for Inactive)
REMARK    1  A    between atoms: C_1  and  C_2
REMARK    2  A    between atoms: C_4  and  C_8
REMARK    3  A    between atoms: C_5  and  C_7
REMARK    4  A    between atoms: N_10  and  C_11
REMARK    5  A    between atoms: C_11  and  C_12
REMARK    6  A    between atoms: N_14  and  C_15
REMARK                            x       y       z     vdW  Elec       q    Type
REMARK                         _______ _______ _______ _____ _____    ______ ____
ROOT
ATOM      1  C   UNL     1      -4.967  -4.253   0.001  0.00  0.00    +0.231 C 
ATOM      2  O   UNL     1      -5.320  -3.092   0.009  0.00  0.00    -0.274 OA
ATOM      3  N   UNL     1      -5.887  -5.237  -0.001  0.00  0.00    -0.307 N 
ATOM      4  H   UNL     1      -5.605  -6.165  -0.007  0.00  0.00    +0.149 HD
ENDROOT
BRANCH   3   5
ATOM      5  C   UNL     1      -7.314  -4.905   0.008  0.00  0.00    +0.105 C 
ATOM      6  C   UNL     1      -8.079  -6.040  -0.650  0.00  0.00    +0.038 C 
ATOM      7  C   UNL     1      -9.572  -5.681  -0.693  0.00  0.00    +0.076 C 
ATOM      8  S   UNL     1     -10.199  -5.800   1.009  0.00  0.00    -0.125 S 
ATOM      9  C   UNL     1      -8.964  -4.968   1.956  0.00  0.00    +0.013 A 
ATOM     10  C   UNL     1      -7.735  -4.635   1.422  0.00  0.00    -0.012 A 
ATOM     11  C   UNL     1      -6.804  -3.994   2.236  0.00  0.00    +0.026 A 
ATOM     12  C   UNL     1      -7.099  -3.689   3.549  0.00  0.00    +0.041 A 
ATOM     13  C   UNL     1      -8.335  -4.020   4.076  0.00  0.00    +0.021 A 
ATOM     14  C   UNL     1      -9.261  -4.652   3.282  0.00  0.00    +0.016 A 
ATOM     15 CL   UNL     1      -5.919  -2.890   4.540  0.00  0.00    -0.084 Cl
ENDBRANCH   3   5
BRANCH   1  16
ATOM     16  C   UNL     1      -3.499  -4.593  -0.008  0.00  0.00    +0.200 C 
BRANCH  16  19
ATOM     17  C   UNL     1      -1.364  -3.418  -0.011  0.00  0.00    +0.248 C 
ATOM     18  O   UNL     1      -0.804  -4.497  -0.020  0.00  0.00    -0.270 OA
ATOM     19  N   UNL     1      -2.711  -3.358  -0.005  0.00  0.00    -0.303 N 
ATOM     20  H   UNL     1      -3.158  -2.498   0.002  0.00  0.00    +0.150 HD
BRANCH  17  24
ATOM     21  C   UNL     1      -0.018   1.503   0.010  0.00  0.00    +0.086 C 
ATOM     22  C   UNL     1       0.002  -0.004   0.002  0.00  0.00    +0.103 A 
ATOM     23  C   UNL     1      -1.081  -0.797   0.003  0.00  0.00    +0.057 A 
ATOM     24  C   UNL     1      -0.571  -2.176  -0.008  0.00  0.00    +0.077 A 
ATOM     25  C   UNL     1       0.788  -2.066  -0.014  0.00  0.00    +0.114 A 
ATOM     26  O   UNL     1       1.106  -0.767  -0.013  0.00  0.00    -0.464 OA
ATOM     27  C   UNL     1       1.766  -3.212  -0.026  0.00  0.00    +0.087 C 
ENDBRANCH  17  24
ENDBRANCH  16  19
ENDBRANCH   1  16
TORSDOF 4
