REMARK  Name = ZINC16631300
REMARK  5 active torsions:
REMARK  status: ('A' for Active; 'I' for Inactive)
REMARK    1  A    between atoms: C_4  and  C_7
REMARK    2  A    between atoms: C_7  and  C_8
REMARK    3  A    between atoms: C_8  and  C_27
REMARK    4  A    between atoms: N_11  and  C_15
REMARK    5  A    between atoms: C_15  and  N_16
REMARK                            x       y       z     vdW  Elec       q    Type
REMARK                         _______ _______ _______ _____ _____    ______ ____
ROOT
ATOM      1  C   UNL     1       3.608   4.280  -3.176  0.00  0.00    +0.142 C 
ATOM      2  C   UNL     1       3.165   4.084  -1.740  0.00  0.00    +0.253 C 
ATOM      3  O   UNL     1       2.473   4.828  -1.079  0.00  0.00    -0.272 OA
ATOM      4  N   UNL     1       3.701   2.910  -1.350  0.00  0.00    -0.203 N 
ATOM      5  C   UNL     1       4.417   2.346  -2.329  0.00  0.00    +0.311 C 
ATOM      6  O   UNL     1       5.000   1.285  -2.215  0.00  0.00    -0.252 OA
ATOM      7  N   UNL     1       4.418   3.082  -3.455  0.00  0.00    -0.281 N 
ATOM      8  H   UNL     1       4.867   2.867  -4.288  0.00  0.00    +0.152 HD
ENDROOT
BRANCH   1   9
ATOM      9  C   UNL     1       4.443   5.527  -3.308  0.00  0.00    -0.015 A 
ATOM     10  C   UNL     1       3.840   6.735  -3.605  0.00  0.00    +0.006 A 
ATOM     11  C   UNL     1       4.606   7.880  -3.721  0.00  0.00    +0.000 A 
ATOM     12  C   UNL     1       5.977   7.815  -3.550  0.00  0.00    +0.000 A 
ATOM     13  C   UNL     1       6.580   6.606  -3.257  0.00  0.00    +0.000 A 
ATOM     14  C   UNL     1       5.814   5.462  -3.136  0.00  0.00    +0.006 A 
ENDBRANCH   1   9
BRANCH   1  15
ATOM     15  C   UNL     1       2.397   4.341  -4.109  0.00  0.00    +0.075 C 
BRANCH  15  19
ATOM     16  C   UNL     1       0.168   0.710  -3.789  0.00  0.00    +0.000 A 
ATOM     17  C   UNL     1      -0.125   1.777  -2.960  0.00  0.00    +0.000 A 
ATOM     18  C   UNL     1       0.596   2.952  -3.064  0.00  0.00    +0.004 A 
ATOM     19  C   UNL     1       1.611   3.060  -3.996  0.00  0.00    -0.045 A 
ATOM     20  C   UNL     1       1.901   1.996  -4.829  0.00  0.00    +0.004 A 
ATOM     21  C   UNL     1       1.183   0.819  -4.722  0.00  0.00    +0.000 A 
ENDBRANCH  15  19
ENDBRANCH   1  15
BRANCH   4  22
ATOM     22  C   UNL     1       3.526   2.327  -0.018  0.00  0.00    +0.268 C 
BRANCH  22  23
ATOM     23  N   UNL     1       2.337   1.471  -0.011  0.00  0.00    -0.192 N 
ATOM     24  C   UNL     1       2.473   0.124  -0.020  0.00  0.00    +0.279 A 
ATOM     25  O   UNL     1       3.571  -0.401  -0.034  0.00  0.00    -0.265 OA
ATOM     26  C   UNL     1       1.242  -0.680  -0.013  0.00  0.00    +0.068 A 
ATOM     27  C   UNL     1       1.277  -2.073  -0.021  0.00  0.00    +0.015 A 
ATOM     28  C   UNL     1       0.097  -2.783  -0.015  0.00  0.00    +0.001 A 
ATOM     29  C   UNL     1      -1.125  -2.122   0.001  0.00  0.00    +0.002 A 
ATOM     30  C   UNL     1      -1.181  -0.747   0.009  0.00  0.00    +0.030 A 
ATOM     31  C   UNL     1       0.002  -0.004   0.002  0.00  0.00    +0.100 A 
ATOM     32  N   UNL     1      -0.016   1.352   0.009  0.00  0.00    -0.131 NA
ATOM     33  N   UNL     1       1.063   2.046   0.003  0.00  0.00    -0.061 NA
ENDBRANCH  22  23
ENDBRANCH   4  22
TORSDOF 5
