REMARK  Name = ZINC16547073
REMARK  12 active torsions:
REMARK  status: ('A' for Active; 'I' for Inactive)
REMARK    1  A    between atoms: C_1  and  C_2
REMARK    2  A    between atoms: C_4  and  C_16
REMARK    3  A    between atoms: C_5  and  C_15
REMARK    4  A    between atoms: N_6  and  C_7
REMARK    5  A    between atoms: C_16  and  C_18
REMARK    6  A    between atoms: C_18  and  O_19
REMARK    7  A    between atoms: O_19  and  C_20
REMARK    8  A    between atoms: C_20  and  C_22
REMARK    9  A    between atoms: C_22  and  C_24
REMARK   10  A    between atoms: C_25  and  C_36
REMARK   11  A    between atoms: N_27  and  C_30
REMARK   12  A    between atoms: C_28  and  C_29
REMARK                            x       y       z     vdW  Elec       q    Type
REMARK                         _______ _______ _______ _____ _____    ______ ____
ROOT
ATOM      1  O   UNL     1      -3.478  -2.045   0.270  0.00  0.00    -0.451 OA
ENDROOT
BRANCH   1   2
ATOM      2  C   UNL     1      -4.731  -1.686   0.603  0.00  0.00    +0.380 C 
ATOM      3  O   UNL     1      -4.945  -0.581   1.054  0.00  0.00    -0.241 OA
BRANCH   2   4
ATOM      4  C   UNL     1      -5.857  -2.648   0.417  0.00  0.00    +0.273 C 
ATOM      5  O   UNL     1      -5.658  -3.719  -0.120  0.00  0.00    -0.280 OA
BRANCH   4   6
ATOM      6  C   UNL     1      -7.205  -2.299   0.884  0.00  0.00    +0.073 A 
ATOM      7  C   UNL     1      -8.232  -1.696   0.117  0.00  0.00    +0.072 A 
ATOM      8  N   UNL     1      -9.275  -1.548   0.885  0.00  0.00    -0.171 NA
ATOM      9  N   UNL     1      -8.977  -2.040   2.160  0.00  0.00    -0.236 N 
ATOM     10  C   UNL     1      -7.716  -2.504   2.156  0.00  0.00    +0.053 A 
ATOM     11  C   UNL     1      -6.990  -3.127   3.320  0.00  0.00    +0.066 C 
ATOM     12  C   UNL     1      -8.136  -1.294  -1.332  0.00  0.00    +0.068 C 
BRANCH   9  13
ATOM     13  C   UNL     1      -9.850  -2.054   3.256  0.00  0.00    +0.066 A 
ATOM     14  C   UNL     1     -11.187  -2.383   3.077  0.00  0.00    +0.028 A 
ATOM     15  C   UNL     1     -12.044  -2.401   4.160  0.00  0.00    +0.002 A 
ATOM     16  C   UNL     1     -11.574  -2.079   5.420  0.00  0.00    +0.000 A 
ATOM     17  C   UNL     1     -10.244  -1.746   5.601  0.00  0.00    +0.002 A 
ATOM     18  C   UNL     1      -9.381  -1.732   4.523  0.00  0.00    +0.028 A 
ENDBRANCH   9  13
ENDBRANCH   4   6
ENDBRANCH   2   4
ENDBRANCH   1   2
BRANCH   1  19
ATOM     19  C   UNL     1      -2.432  -1.058   0.477  0.00  0.00    +0.312 C 
BRANCH  19  20
ATOM     20  C   UNL     1      -1.106  -1.634   0.051  0.00  0.00    +0.202 C 
ATOM     21  O   UNL     1      -1.048  -2.765  -0.385  0.00  0.00    -0.288 OA
BRANCH  20  25
ATOM     22  C   UNL     1       2.111   2.203   0.992  0.00  0.00    +0.063 C 
ATOM     23  C   UNL     1       1.520   0.878   0.585  0.00  0.00    +0.017 A 
ATOM     24  C   UNL     1       0.220   0.547   0.665  0.00  0.00    +0.034 A 
ATOM     25  C   UNL     1       0.112  -0.829   0.163  0.00  0.00    +0.042 A 
ATOM     26  C   UNL     1       1.395  -1.208  -0.182  0.00  0.00    +0.027 A 
ATOM     27  N   UNL     1       2.220  -0.178   0.076  0.00  0.00    -0.343 N 
ATOM     28  C   UNL     1       1.800  -2.544  -0.751  0.00  0.00    +0.064 C 
BRANCH  27  29
ATOM     29  C   UNL     1       3.667  -0.187  -0.156  0.00  0.00    +0.110 C 
ATOM     30  C   UNL     1       4.020   0.812  -1.271  0.00  0.00    +0.049 C 
ATOM     31  C   UNL     1       5.550   1.046  -1.304  0.00  0.00    +0.168 C 
ATOM     32  S   UNL     1       6.043   0.741   0.441  0.00  0.00    -0.029 S 
ATOM     33  O   UNL     1       6.919  -0.378   0.485  0.00  0.00    -0.174 OA
ATOM     34  O   UNL     1       6.447   1.969   1.030  0.00  0.00    -0.174 OA
ATOM     35  C   UNL     1       4.410   0.250   1.139  0.00  0.00    +0.191 C 
ENDBRANCH  27  29
ENDBRANCH  20  25
ENDBRANCH  19  20
ENDBRANCH   1  19
TORSDOF 8
