REMARK  Name = ZINC36438454
REMARK  7 active torsions:
REMARK  status: ('A' for Active; 'I' for Inactive)
REMARK    1  A    between atoms: C_1  and  O_2
REMARK    2  A    between atoms: O_2  and  C_3
REMARK    3  A    between atoms: C_6  and  C_9
REMARK    4  A    between atoms: N_13  and  C_14
REMARK    5  A    between atoms: C_14  and  C_15
REMARK    6  A    between atoms: N_17  and  C_18
REMARK    7  A    between atoms: N_17  and  C_23
REMARK                            x       y       z     vdW  Elec       q    Type
REMARK                         _______ _______ _______ _____ _____    ______ ____
ROOT
ATOM      1  C   UNL     1       1.436  -3.616   6.135  0.00  0.00    +0.020 C 
ENDROOT
BRANCH   1   6
ATOM      2  C   UNL     1       2.587  -2.551   4.310  0.00  0.00    -0.037 C 
ATOM      3  C   UNL     1       3.992  -3.028   3.886  0.00  0.00    -0.013 C 
ATOM      4  C   UNL     1       4.135  -4.388   4.620  0.00  0.00    -0.020 C 
ATOM      5  C   UNL     1       2.687  -4.934   4.553  0.00  0.00    -0.077 C 
ATOM      6  N   UNL     1       1.827  -3.744   4.724  0.00  0.00    +0.390 N 
ATOM      7  H   UNL     1       1.001  -3.836   4.152  0.00  0.00    -0.080 HD
BRANCH   2  11
ATOM      8  C   UNL     1       0.638  -0.656   1.013  0.00  0.00    +0.120 A 
ATOM      9  C   UNL     1       1.201   0.112   2.022  0.00  0.00    +0.046 A 
ATOM     10  C   UNL     1       1.831  -0.503   3.087  0.00  0.00    +0.005 A 
ATOM     11  C   UNL     1       1.900  -1.882   3.147  0.00  0.00    -0.061 A 
ATOM     12  C   UNL     1       1.340  -2.650   2.143  0.00  0.00    +0.005 A 
ATOM     13  C   UNL     1       0.704  -2.040   1.079  0.00  0.00    +0.046 A 
BRANCH   8  15
ATOM     14  C   UNL     1      -0.011   1.375  -0.038  0.00  0.00    +0.277 C 
ATOM     15  O   UNL     1       0.018  -0.053  -0.036  0.00  0.00    -0.495 OA
ENDBRANCH   8  15
ENDBRANCH   2  11
ENDBRANCH   1   6
BRANCH   1  16
ATOM     16  C   UNL     1       0.556  -4.777   6.519  0.00  0.00    +0.200 C 
ATOM     17  O   UNL     1       0.198  -5.572   5.676  0.00  0.00    -0.278 OA
ATOM     18  N   UNL     1       0.166  -4.932   7.800  0.00  0.00    -0.295 N 
BRANCH  18  19
ATOM     19  C   UNL     1      -0.601  -6.116   8.194  0.00  0.00    +0.099 C 
ATOM     20  C   UNL     1      -1.921  -6.155   7.406  0.00  0.00    +0.046 C 
ATOM     21  C   UNL     1      -2.562  -7.559   7.602  0.00  0.00    +0.168 C 
ATOM     22  S   UNL     1      -1.067  -8.630   7.493  0.00  0.00    -0.029 S 
ATOM     23  O   UNL     1      -1.117  -9.601   8.529  0.00  0.00    -0.174 OA
ATOM     24  O   UNL     1      -0.898  -9.053   6.147  0.00  0.00    -0.174 OA
ATOM     25  C   UNL     1       0.228  -7.389   7.898  0.00  0.00    +0.188 C 
ENDBRANCH  18  19
BRANCH  18  26
ATOM     26  C   UNL     1       0.510  -3.917   8.799  0.00  0.00    +0.076 C 
ATOM     27  C   UNL     1       1.407  -4.534   9.892  0.00  0.00    +0.022 C 
ATOM     28  C   UNL     1       0.937  -3.849  11.200  0.00  0.00    +0.002 C 
ATOM     29  C   UNL     1      -0.596  -3.749  11.001  0.00  0.00    +0.002 C 
ATOM     30  C   UNL     1      -0.763  -3.418   9.504  0.00  0.00    +0.022 C 
ENDBRANCH  18  26
ENDBRANCH   1  16
TORSDOF 6
