REMARK  Name = ZINC09066418
REMARK  11 active torsions:
REMARK  status: ('A' for Active; 'I' for Inactive)
REMARK    1  A    between atoms: C_1  and  C_2
REMARK    2  A    between atoms: C_2  and  C_3
REMARK    3  A    between atoms: C_3  and  C_5
REMARK    4  A    between atoms: C_3  and  N_6
REMARK    5  A    between atoms: C_9  and  C_15
REMARK    6  A    between atoms: C_10  and  O_14
REMARK    7  A    between atoms: C_12  and  S_13
REMARK    8  A    between atoms: C_19  and  O_27
REMARK    9  A    between atoms: C_20  and  O_25
REMARK   10  A    between atoms: O_25  and  C_26
REMARK   11  A    between atoms: O_27  and  C_28
REMARK                            x       y       z     vdW  Elec       q    Type
REMARK                         _______ _______ _______ _____ _____    ______ ____
ROOT
ATOM      1  C   UNL     1       3.771  -1.263   0.144  0.00  0.00    +0.001 C 
ATOM      2  C   UNL     1       2.436  -0.579   0.282  0.00  0.00    -0.050 A 
ATOM      3  C   UNL     1       1.289  -1.359   0.242  0.00  0.00    +0.052 A 
ATOM      4  C   UNL     1       0.042  -0.777   0.375  0.00  0.00    +0.162 A 
ATOM      5  C   UNL     1      -0.062   0.600   0.550  0.00  0.00    +0.162 A 
ATOM      6  C   UNL     1       1.084   1.373   0.588  0.00  0.00    +0.053 A 
ATOM      7  C   UNL     1       2.333   0.785   0.452  0.00  0.00    -0.044 A 
ATOM      8  C   UNL     1       3.551   1.672   0.490  0.00  0.00    +0.016 C 
ATOM      9  C   UNL     1       4.801   0.831   0.748  0.00  0.00    -0.077 C 
ATOM     10  N   UNL     1       4.816  -0.292  -0.208  0.00  0.00    +0.387 N 
ATOM     11  H   UNL     1       4.644   0.065  -1.155  0.00  0.00    -0.085 HD
ATOM     12  H   UNL     1       5.734  -0.753  -0.177  0.00  0.00    -0.085 HD
ENDROOT
BRANCH   1  16
ATOM     13  N   UNL     1       3.388  -2.905  -3.210  0.00  0.00    -0.285 N 
ATOM     14  C   UNL     1       3.453  -1.940  -2.269  0.00  0.00    +0.260 A 
ATOM     15  O   UNL     1       3.318  -0.765  -2.573  0.00  0.00    -0.267 OA
ATOM     16  C   UNL     1       3.685  -2.308  -0.938  0.00  0.00    +0.069 A 
ATOM     17  C   UNL     1       3.827  -3.652  -0.634  0.00  0.00    +0.222 A 
ATOM     18  N   UNL     1       3.747  -4.565  -1.606  0.00  0.00    -0.189 NA
ATOM     19  C   UNL     1       3.534  -4.212  -2.858  0.00  0.00    +0.172 A 
BRANCH  13  20
ATOM     20  C   UNL     1       3.152  -2.546  -4.611  0.00  0.00    +0.089 C 
ATOM     21  C   UNL     1       1.826  -1.793  -4.728  0.00  0.00    +0.031 C 
BRANCH  20  23
ATOM     22  C   UNL     1       5.606  -2.434  -5.068  0.00  0.00    +0.006 C 
ATOM     23  C   UNL     1       4.291  -1.653  -5.106  0.00  0.00    +0.021 C 
ENDBRANCH  20  23
ENDBRANCH  13  20
BRANCH  19  24
ATOM     24  S   UNL     1       3.437  -5.457  -4.101  0.00  0.00    -0.105 S 
ATOM     25  H   UNL     1       3.638  -6.608  -3.312  0.00  0.00    +0.110 HD
ENDBRANCH  19  24
BRANCH  17  26
ATOM     26  O   UNL     1       4.047  -4.039   0.644  0.00  0.00    -0.492 OA
ATOM     27  H   UNL     1       4.132  -4.996   0.756  0.00  0.00    +0.294 HD
ENDBRANCH  17  26
ENDBRANCH   1  16
BRANCH   5  28
ATOM     28  O   UNL     1      -1.284   1.182   0.679  0.00  0.00    -0.491 OA
ATOM     29  C   UNL     1      -1.312   2.600   0.856  0.00  0.00    +0.277 C 
ENDBRANCH   5  28
BRANCH   4  30
ATOM     30  O   UNL     1      -1.079  -1.547   0.334  0.00  0.00    -0.491 OA
ATOM     31  C   UNL     1      -0.894  -2.952   0.151  0.00  0.00    +0.277 C 
ENDBRANCH   4  30
TORSDOF 7
