REMARK  Name = ZINC67588753
REMARK  12 active torsions:
REMARK  status: ('A' for Active; 'I' for Inactive)
REMARK    1  A    between atoms: C_1  and  C_2
REMARK    2  A    between atoms: C_11  and  C_12
REMARK    3  A    between atoms: C_12  and  N_13
REMARK    4  A    between atoms: N_13  and  C_14
REMARK    5  A    between atoms: N_13  and  C_15
REMARK    6  A    between atoms: C_15  and  C_16
REMARK    7  A    between atoms: C_16  and  O_28
REMARK    8  A    between atoms: N_20  and  C_23
REMARK    9  A    between atoms: C_23  and  C_24
REMARK   10  A    between atoms: C_24  and  C_25
REMARK   11  A    between atoms: C_24  and  C_26
REMARK   12  A    between atoms: C_24  and  C_27
REMARK                            x       y       z     vdW  Elec       q    Type
REMARK                         _______ _______ _______ _____ _____    ______ ____
ROOT
ATOM      1  N   UNL     1      -1.247  -0.614   5.547  0.00  0.00    +0.384 N 
ATOM      2  C   UNL     1      -2.125  -1.712   5.971  0.00  0.00    -0.096 C 
ATOM      3  H   UNL     1      -1.107   0.022   6.318  0.00  0.00    -0.082 HD
ENDROOT
BRANCH   1   4
ATOM      4  C   UNL     1       0.049  -1.159   5.121  0.00  0.00    -0.025 C 
BRANCH   4  15
ATOM      5  C   UNL     1       1.433   0.445   7.390  0.00  0.00    +0.046 C 
ATOM      6  C   UNL     1       1.353  -1.056   7.285  0.00  0.00    -0.024 A 
ATOM      7  C   UNL     1       1.904  -2.026   8.234  0.00  0.00    +0.003 A 
ATOM      8  C   UNL     1       2.617  -1.917   9.430  0.00  0.00    +0.010 A 
ATOM      9  C   UNL     1       3.000  -3.046  10.097  0.00  0.00    +0.001 A 
ATOM     10  C   UNL     1       2.686  -4.302   9.596  0.00  0.00    +0.002 A 
ATOM     11  C   UNL     1       1.984  -4.433   8.418  0.00  0.00    +0.026 A 
ATOM     12  C   UNL     1       1.584  -3.297   7.722  0.00  0.00    +0.047 A 
ATOM     13  N   UNL     1       0.889  -3.098   6.550  0.00  0.00    -0.359 N 
ATOM     14  H   UNL     1       0.543  -3.804   5.981  0.00  0.00    +0.166 HD
ATOM     15  C   UNL     1       0.757  -1.758   6.309  0.00  0.00    +0.003 A 
ENDBRANCH   4  15
ENDBRANCH   1   4
BRANCH   1  16
ATOM     16  C   UNL     1      -1.868   0.105   4.426  0.00  0.00    -0.034 C 
BRANCH  16  17
ATOM     17  C   UNL     1      -3.132   0.816   4.914  0.00  0.00    +0.127 C 
ATOM     18  C   UNL     1      -2.792   1.678   6.133  0.00  0.00    +0.044 C 
ATOM     19  C   UNL     1      -3.990   2.586   6.434  0.00  0.00    +0.022 C 
ATOM     20  C   UNL     1      -4.139   3.596   5.296  0.00  0.00    +0.108 C 
ATOM     21  N   UNL     1      -4.140   2.915   4.007  0.00  0.00    -0.299 N 
ATOM     22  C   UNL     1      -3.675   1.681   3.813  0.00  0.00    +0.245 C 
ATOM     23  O   UNL     1      -3.690   1.232   2.686  0.00  0.00    -0.273 OA
BRANCH  17  24
ATOM     24  O   UNL     1      -4.112  -0.156   5.282  0.00  0.00    -0.381 OA
ATOM     25  H   UNL     1      -4.942   0.223   5.602  0.00  0.00    +0.211 HD
ENDBRANCH  17  24
BRANCH  21  26
ATOM     26  C   UNL     1      -4.688   3.632   2.853  0.00  0.00    +0.114 C 
BRANCH  26  27
ATOM     27  C   UNL     1      -6.165   3.271   2.683  0.00  0.00    -0.022 C 
ATOM     28  C   UNL     1      -6.950   3.744   3.907  0.00  0.00    +0.012 C 
ATOM     29  C   UNL     1      -6.716   3.953   1.429  0.00  0.00    +0.012 C 
ATOM     30  C   UNL     1      -6.307   1.754   2.542  0.00  0.00    +0.012 C 
ENDBRANCH  26  27
ENDBRANCH  21  26
ENDBRANCH  16  17
ENDBRANCH   1  16
TORSDOF 7
