REMARK  Name = ZINC24602385
REMARK  13 active torsions:
REMARK  status: ('A' for Active; 'I' for Inactive)
REMARK    1  A    between atoms: C_1  and  C_2
REMARK    2  A    between atoms: C_2  and  C_32
REMARK    3  A    between atoms: C_4  and  N_10
REMARK    4  A    between atoms: C_6  and  C_8
REMARK    5  A    between atoms: C_6  and  C_9
REMARK    6  A    between atoms: N_10  and  C_11
REMARK    7  A    between atoms: C_11  and  C_12
REMARK    8  A    between atoms: C_12  and  C_14
REMARK    9  A    between atoms: C_12  and  O_31
REMARK   10  A    between atoms: C_14  and  O_15
REMARK   11  A    between atoms: O_15  and  C_16
REMARK   12  A    between atoms: C_16  and  C_17
REMARK   13  A    between atoms: C_16  and  C_24
REMARK                            x       y       z     vdW  Elec       q    Type
REMARK                         _______ _______ _______ _____ _____    ______ ____
ROOT
ATOM      1  C   UNL     1      -0.013   1.086   0.008  0.00  0.00    +0.154 C 
ENDROOT
BRANCH   1   2
ATOM      2  O   UNL     1       1.328   1.580  -0.002  0.00  0.00    -0.388 OA
ATOM      3  H   UNL     1       2.017   1.319   0.815  0.00  0.00    +0.210 HD
ENDBRANCH   1   2
BRANCH   1   4
ATOM      4  C   UNL     1      -0.753   1.593  -1.232  0.00  0.00    +0.114 C 
BRANCH   4   5
ATOM      5  N   UNL     1      -0.137   1.022  -2.437  0.00  0.00    -0.311 NA
ATOM      6  H   UNL     1      -0.199  -0.075  -2.379  0.00  0.00    +0.122 HD
BRANCH   5  10
ATOM      7  C   UNL     1      -0.696   3.407  -6.100  0.00  0.00    -0.010 C 
ATOM      8  C   UNL     1      -0.552   1.880  -6.115  0.00  0.00    -0.072 C 
ATOM      9  C   UNL     1       0.141   1.421  -4.835  0.00  0.00    +0.006 C 
ATOM     10  C   UNL     1      -0.825   1.489  -3.652  0.00  0.00    +0.051 C 
ATOM     11  C   UNL     1      -2.012   0.571  -3.942  0.00  0.00    +0.006 C 
ATOM     12  C   UNL     1      -2.732   1.018  -5.212  0.00  0.00    -0.072 C 
ATOM     13  N   UNL     1      -1.832   1.236  -6.326  0.00  0.00    +0.386 N 
ATOM     14  C   UNL     1      -3.561   2.274  -4.917  0.00  0.00    -0.010 C 
ATOM     15  C   UNL     1      -3.722  -0.101  -5.604  0.00  0.00    -0.010 C 
ATOM     16  C   UNL     1       0.371   1.519  -7.300  0.00  0.00    -0.010 C 
ATOM     17  H   UNL     1      -2.429   1.830  -7.034  0.00  0.00    -0.084 HD
ATOM     18  H   UNL     1      -1.672   0.228  -6.736  0.00  0.00    -0.084 HD
ENDBRANCH   5  10
ENDBRANCH   4   5
ENDBRANCH   1   4
BRANCH   1  19
ATOM     19  C   UNL     1      -0.729   1.579   1.267  0.00  0.00    +0.193 C 
BRANCH  19  20
ATOM     20  O   UNL     1      -0.108   1.012   2.422  0.00  0.00    -0.365 OA
BRANCH  20  21
ATOM     21  C   UNL     1      -0.704   1.410   3.658  0.00  0.00    +0.178 C 
BRANCH  21  22
ATOM     22  C   UNL     1      -0.542   0.308   4.672  0.00  0.00    -0.014 A 
ATOM     23  C   UNL     1       0.641  -0.405   4.735  0.00  0.00    +0.009 A 
ATOM     24  C   UNL     1       0.792  -1.413   5.668  0.00  0.00    +0.039 A 
ATOM     25  C   UNL     1      -0.245  -1.716   6.534  0.00  0.00    +0.123 A 
ATOM     26  C   UNL     1      -1.431  -1.004   6.467  0.00  0.00    +0.039 A 
ATOM     27  C   UNL     1      -1.579   0.007   5.536  0.00  0.00    +0.009 A 
ATOM     28  F   UNL     1      -0.100  -2.704   7.444  0.00  0.00    -0.205 F 
ENDBRANCH  21  22
BRANCH  21  29
ATOM     29  C   UNL     1      -0.028   2.660   4.161  0.00  0.00    -0.014 A 
ATOM     30  C   UNL     1       1.327   2.843   3.956  0.00  0.00    +0.009 A 
ATOM     31  C   UNL     1       1.947   3.990   4.413  0.00  0.00    +0.039 A 
ATOM     32  C   UNL     1       1.213   4.952   5.086  0.00  0.00    +0.123 A 
ATOM     33  C   UNL     1      -0.143   4.765   5.295  0.00  0.00    +0.039 A 
ATOM     34  C   UNL     1      -0.762   3.619   4.833  0.00  0.00    +0.009 A 
ATOM     35  F   UNL     1       1.819   6.072   5.537  0.00  0.00    -0.205 F 
ENDBRANCH  21  29
ENDBRANCH  20  21
ENDBRANCH  19  20
ENDBRANCH   1  19
TORSDOF 9
