REMARK  Name = ZINC05491345
REMARK  4 active torsions:
REMARK  status: ('A' for Active; 'I' for Inactive)
REMARK    1  A    between atoms: C_5  and  C_7
REMARK    2  A    between atoms: C_10  and  C_21
REMARK    3  A    between atoms: C_16  and  N_20
REMARK    4  A    between atoms: C_17  and  C_18
REMARK                            x       y       z     vdW  Elec       q    Type
REMARK                         _______ _______ _______ _____ _____    ______ ____
ROOT
ATOM      1  C   UNL     1       1.228  -2.186  -0.022  0.00  0.00    +0.104 C 
ATOM      2  C   UNL     1       0.525  -2.711   1.203  0.00  0.00    +0.054 A 
ATOM      3  C   UNL     1       0.945  -2.703   2.536  0.00  0.00    +0.100 A 
ATOM      4  N   UNL     1       0.001  -3.270   3.263  0.00  0.00    -0.171 NA
ATOM      5  N   UNL     1      -1.045  -3.653   2.409  0.00  0.00    -0.246 N 
ATOM      6  H   UNL     1      -1.867  -4.092   2.675  0.00  0.00    +0.192 HD
ATOM      7  C   UNL     1      -0.704  -3.303   1.151  0.00  0.00    +0.223 A 
ATOM      8  O   UNL     1      -1.389  -3.468  -0.009  0.00  0.00    -0.423 OA
ATOM      9  C   UNL     1      -0.717  -3.283  -1.163  0.00  0.00    +0.200 C 
ATOM     10  C   UNL     1       0.500  -2.698  -1.240  0.00  0.00    +0.098 C 
ENDROOT
BRANCH   3  11
ATOM     11  C   UNL     1       2.227  -2.155   3.044  0.00  0.00    +0.004 A 
ATOM     12  C   UNL     1       3.383  -2.249   2.271  0.00  0.00    +0.011 A 
ATOM     13  C   UNL     1       4.573  -1.738   2.747  0.00  0.00    +0.022 A 
ATOM     14  C   UNL     1       4.620  -1.132   3.991  0.00  0.00    +0.059 A 
ATOM     15  C   UNL     1       3.475  -1.035   4.763  0.00  0.00    +0.060 A 
ATOM     16  C   UNL     1       2.278  -1.539   4.292  0.00  0.00    +0.031 A 
ATOM     17 CL   UNL     1       3.542  -0.273   6.322  0.00  0.00    -0.082 Cl
ATOM     18 CL   UNL     1       6.121  -0.491   4.584  0.00  0.00    -0.082 Cl
ENDBRANCH   3  11
BRANCH   1  23
ATOM     19  C   UNL     1      -0.017   1.378   0.010  0.00  0.00    +0.000 A 
ATOM     20  C   UNL     1       1.171   2.087   0.002  0.00  0.00    +0.003 A 
ATOM     21  C   UNL     1       2.377   1.414  -0.013  0.00  0.00    +0.038 A 
ATOM     22  C   UNL     1       2.397   0.029  -0.021  0.00  0.00    +0.127 A 
ATOM     23  C   UNL     1       1.208  -0.679  -0.013  0.00  0.00    +0.001 A 
ATOM     24  C   UNL     1       0.002  -0.004   0.002  0.00  0.00    +0.007 A 
ATOM     25  F   UNL     1       3.577  -0.630  -0.036  0.00  0.00    -0.205 F 
ENDBRANCH   1  23
BRANCH   9  26
ATOM     26  N   UNL     1      -1.302  -3.713  -2.328  0.00  0.00    -0.328 N 
ATOM     27  H   UNL     1      -2.174  -4.136  -2.305  0.00  0.00    +0.145 HD
ATOM     28  H   UNL     1      -0.843  -3.593  -3.174  0.00  0.00    +0.145 HD
ENDBRANCH   9  26
BRANCH  10  29
ATOM     29  C   UNL     1       1.120  -2.559  -2.523  0.00  0.00    +0.101 C 
ATOM     30  N   UNL     1       1.612  -2.449  -3.541  0.00  0.00    -0.191 NA
ENDBRANCH  10  29
TORSDOF 4
