REMARK  Name = ZINC64428715
REMARK  8 active torsions:
REMARK  status: ('A' for Active; 'I' for Inactive)
REMARK    1  A    between atoms: C_7  and  C_10
REMARK    2  A    between atoms: C_10  and  C_11
REMARK    3  A    between atoms: C_11  and  C_13
REMARK    4  A    between atoms: C_11  and  N_31
REMARK    5  A    between atoms: C_17  and  S_20
REMARK    6  A    between atoms: S_20  and  C_21
REMARK    7  A    between atoms: C_21  and  C_22
REMARK    8  A    between atoms: C_22  and  C_24
REMARK                            x       y       z     vdW  Elec       q    Type
REMARK                         _______ _______ _______ _____ _____    ______ ____
ROOT
ATOM      1  C   UNL     1       0.457  -3.653  -1.462  0.00  0.00    -0.017 C 
ENDROOT
BRANCH   1   2
ATOM      2  C   UNL     1      -0.398  -4.923  -1.452  0.00  0.00    +0.246 C 
ATOM      3  N   UNL     1      -1.719  -4.643  -0.876  0.00  0.00    -0.159 NA
ATOM      4  N   UNL     1      -2.603  -5.168  -1.566  0.00  0.00    -0.146 NA
ATOM      5  C   UNL     1      -2.002  -5.875  -2.704  0.00  0.00    +0.319 C 
ATOM      6  O   UNL     1      -0.656  -5.362  -2.802  0.00  0.00    -0.320 OA
BRANCH   5   7
ATOM      7  S   UNL     1      -2.927  -5.522  -4.224  0.00  0.00    -0.097 S 
BRANCH   7   8
ATOM      8  C   UNL     1      -2.836  -3.717  -4.383  0.00  0.00    +0.153 C 
BRANCH   8   9
ATOM      9  C   UNL     1      -3.575  -3.284  -5.623  0.00  0.00    +0.173 C 
ATOM     10  O   UNL     1      -4.110  -4.112  -6.330  0.00  0.00    -0.291 OA
BRANCH   9  11
ATOM     11  C   UNL     1      -3.648  -1.858  -5.976  0.00  0.00    +0.018 A 
ATOM     12  C   UNL     1      -3.027  -0.901  -5.166  0.00  0.00    +0.013 A 
ATOM     13  C   UNL     1      -3.099   0.433  -5.503  0.00  0.00    +0.020 A 
ATOM     14  C   UNL     1      -3.784   0.828  -6.641  0.00  0.00    +0.041 A 
ATOM     15  C   UNL     1      -4.401  -0.115  -7.448  0.00  0.00    +0.020 A 
ATOM     16  C   UNL     1      -4.333  -1.453  -7.126  0.00  0.00    +0.013 A 
ATOM     17 CL   UNL     1      -3.870   2.511  -7.057  0.00  0.00    -0.084 Cl
ENDBRANCH   9  11
ENDBRANCH   8   9
ENDBRANCH   7   8
ENDBRANCH   5   7
ENDBRANCH   1   2
BRANCH   1  18
ATOM     18  N   UNL     1      -0.240  -2.600  -2.212  0.00  0.00    +0.383 N 
ATOM     19  H   UNL     1       0.323  -1.763  -2.218  0.00  0.00    -0.089 HD
ATOM     20  H   UNL     1      -0.394  -2.909  -3.160  0.00  0.00    -0.089 HD
ATOM     21  H   UNL     1      -1.127  -2.405  -1.773  0.00  0.00    -0.089 HD
ENDBRANCH   1  18
BRANCH   1  22
ATOM     22  C   UNL     1       0.691  -3.186  -0.024  0.00  0.00    +0.021 C 
BRANCH  22  29
ATOM     23  C   UNL     1      -0.016   1.348   0.009  0.00  0.00    +0.001 A 
ATOM     24  C   UNL     1       1.166   2.101   0.002  0.00  0.00    +0.002 A 
ATOM     25  C   UNL     1       2.391   1.535  -0.013  0.00  0.00    +0.026 A 
ATOM     26  C   UNL     1       2.529   0.120  -0.022  0.00  0.00    +0.043 A 
ATOM     27  N   UNL     1       3.587  -0.654  -0.037  0.00  0.00    -0.380 N 
ATOM     28  C   UNL     1       3.143  -2.053  -0.041  0.00  0.00    +0.144 C 
ATOM     29  C   UNL     1       1.631  -2.008  -0.025  0.00  0.00    -0.043 C 
ATOM     30  C   UNL     1       1.295  -0.698  -0.014  0.00  0.00    -0.001 A 
ATOM     31  C   UNL     1       0.002  -0.004   0.002  0.00  0.00    +0.010 A 
ATOM     32  H   UNL     1       4.509  -0.353  -0.045  0.00  0.00    +0.160 HD
ENDBRANCH  22  29
ENDBRANCH   1  22
TORSDOF 8
