REMARK  Name = ZINC09337445
REMARK  8 active torsions:
REMARK  status: ('A' for Active; 'I' for Inactive)
REMARK    1  A    between atoms: C_3  and  C_6
REMARK    2  A    between atoms: C_6  and  C_8
REMARK    3  A    between atoms: C_6  and  N_56
REMARK    4  A    between atoms: C_8  and  N_9
REMARK    5  A    between atoms: C_10  and  C_12
REMARK    6  A    between atoms: C_16  and  N_18
REMARK    7  A    between atoms: N_18  and  S_19
REMARK    8  A    between atoms: S_19  and  C_22
REMARK                            x       y       z     vdW  Elec       q    Type
REMARK                         _______ _______ _______ _____ _____    ______ ____
ROOT
ATOM      1  C   UNL     1       0.453   2.985  -0.371  0.00  0.00    +0.039 A 
ATOM      2  C   UNL     1       1.413   1.972  -0.404  0.00  0.00    +0.014 A 
ATOM      3  C   UNL     1       1.036   0.671  -0.664  0.00  0.00    +0.022 A 
ATOM      4  C   UNL     1      -0.294   0.364  -0.893  0.00  0.00    +0.063 A 
ATOM      5  C   UNL     1      -1.259   1.367  -0.863  0.00  0.00    +0.067 A 
ATOM      6  C   UNL     1      -0.888   2.676  -0.602  0.00  0.00    +0.039 A 
ATOM      7 CL   UNL     1      -0.760  -1.276  -1.220  0.00  0.00    -0.082 Cl
ENDROOT
BRANCH   1   9
ATOM      8  N   UNL     1       2.151   4.675   0.131  0.00  0.00    -0.312 N 
ATOM      9  C   UNL     1       0.855   4.379  -0.092  0.00  0.00    +0.244 C 
ATOM     10  O   UNL     1       0.017   5.260  -0.065  0.00  0.00    -0.270 OA
ATOM     11  H   UNL     1       2.819   3.973   0.108  0.00  0.00    +0.149 HD
BRANCH   8  12
ATOM     12  C   UNL     1       2.550   6.057   0.407  0.00  0.00    +0.097 C 
BRANCH  12  13
ATOM     13  C   UNL     1       4.064   6.118   0.622  0.00  0.00    +0.016 C 
BRANCH  13  18
ATOM     14  C   UNL     1       4.258   6.135  -1.805  0.00  0.00    -0.078 C 
ATOM     15  C   UNL     1       5.395   5.821  -2.810  0.00  0.00    -0.020 C 
ATOM     16  C   UNL     1       6.670   5.984  -1.951  0.00  0.00    -0.020 C 
ATOM     17  C   UNL     1       6.199   5.809  -0.495  0.00  0.00    -0.078 C 
ATOM     18  N   UNL     1       4.763   5.533  -0.562  0.00  0.00    +0.387 N 
ATOM     19  H   UNL     1       4.605   4.519  -0.578  0.00  0.00    -0.081 HD
ENDBRANCH  13  18
BRANCH  13  22
ATOM     20  C   UNL     1       5.194   9.479   1.627  0.00  0.00    +0.041 A 
ATOM     21  C   UNL     1       4.884   8.133   1.932  0.00  0.00    +0.043 A 
ATOM     22  C   UNL     1       4.491   7.554   0.783  0.00  0.00    +0.093 A 
ATOM     23  O   UNL     1       4.537   8.475  -0.194  0.00  0.00    -0.469 OA
ATOM     24  C   UNL     1       4.963   9.643   0.312  0.00  0.00    +0.195 A 
ENDBRANCH  13  22
ENDBRANCH  12  13
ENDBRANCH   8  12
ENDBRANCH   1   9
BRANCH   5  25
ATOM     25  N   UNL     1      -2.601   1.052  -1.095  0.00  0.00    -0.215 N 
ATOM     26  H   UNL     1      -2.962   0.209  -0.781  0.00  0.00    +0.174 HD
BRANCH  25  27
ATOM     27  S   UNL     1      -3.573   2.121  -1.904  0.00  0.00    +0.072 S 
ATOM     28  O   UNL     1      -4.821   1.468  -2.096  0.00  0.00    -0.150 OA
ATOM     29  O   UNL     1      -3.461   3.365  -1.228  0.00  0.00    -0.150 OA
BRANCH  27  30
ATOM     30  C   UNL     1      -2.874   2.352  -3.505  0.00  0.00    +0.109 A 
ATOM     31  C   UNL     1      -1.950   3.359  -3.716  0.00  0.00    +0.031 A 
ATOM     32  C   UNL     1      -1.397   3.538  -4.970  0.00  0.00    +0.040 A 
ATOM     33  C   UNL     1      -1.777   2.716  -6.017  0.00  0.00    +0.124 A 
ATOM     34  C   UNL     1      -2.706   1.712  -5.806  0.00  0.00    +0.040 A 
ATOM     35  C   UNL     1      -3.254   1.531  -4.550  0.00  0.00    +0.031 A 
ATOM     36  F   UNL     1      -1.241   2.894  -7.244  0.00  0.00    -0.205 F 
ENDBRANCH  27  30
ENDBRANCH  25  27
ENDBRANCH   5  25
TORSDOF 8
