REMARK  Name = ZINC08833828
REMARK  12 active torsions:
REMARK  status: ('A' for Active; 'I' for Inactive)
REMARK    1  A    between atoms: C_1  and  C_2
REMARK    2  A    between atoms: C_2  and  C_3
REMARK    3  A    between atoms: C_3  and  C_4
REMARK    4  A    between atoms: C_4  and  C_5
REMARK    5  A    between atoms: C_5  and  C_6
REMARK    6  A    between atoms: C_6  and  O_7
REMARK    7  A    between atoms: O_7  and  C_8
REMARK    8  A    between atoms: C_11  and  C_16
REMARK    9  A    between atoms: C_13  and  O_14
REMARK   10  A    between atoms: O_14  and  C_15
REMARK   11  A    between atoms: C_34  and  C_36
REMARK   12  A    between atoms: C_34  and  C_37
REMARK                            x       y       z     vdW  Elec       q    Type
REMARK                         _______ _______ _______ _____ _____    ______ ____
ROOT
ATOM      1  C   UNL     1       2.447   4.220   0.001  0.00  0.00    +0.092 C 
ATOM      2  C   UNL     1       2.529   5.058   1.243  0.00  0.00    +0.067 A 
ATOM      3  C   UNL     1       2.284   6.396   1.203  0.00  0.00    +0.113 A 
ATOM      4  N   UNL     1       2.358   7.134   2.360  0.00  0.00    -0.295 N 
ATOM      5  H   UNL     1       2.177   8.117   2.335  0.00  0.00    +0.172 HD
ATOM      6  C   UNL     1       2.674   6.541   3.526  0.00  0.00    +0.328 A 
ATOM      7  O   UNL     1       2.734   7.208   4.540  0.00  0.00    -0.247 OA
ATOM      8  N   UNL     1       2.924   5.220   3.585  0.00  0.00    -0.275 N 
ATOM      9  H   UNL     1       3.158   4.799   4.461  0.00  0.00    +0.173 HD
ATOM     10  C   UNL     1       2.861   4.460   2.474  0.00  0.00    +0.260 A 
ATOM     11  O   UNL     1       3.089   3.264   2.535  0.00  0.00    -0.267 OA
ATOM     12  N   UNL     1       1.966   7.003   0.015  0.00  0.00    -0.303 N 
ATOM     13  C   UNL     1       2.266   6.402  -1.179  0.00  0.00    +0.017 C 
ATOM     14  C   UNL     1       2.504   5.075  -1.239  0.00  0.00    +0.024 C 
ATOM     15  C   UNL     1       2.810   4.449  -2.461  0.00  0.00    +0.162 C 
ATOM     16  O   UNL     1       3.036   3.255  -2.479  0.00  0.00    -0.292 OA
ATOM     17  C   UNL     1       2.864   5.229  -3.745  0.00  0.00    +0.086 C 
ATOM     18  C   UNL     1       1.920   6.431  -3.638  0.00  0.00    -0.023 C 
ATOM     19  C   UNL     1       2.328   7.261  -2.418  0.00  0.00    +0.058 C 
ATOM     20  C   UNL     1       0.481   5.941  -3.468  0.00  0.00    +0.011 C 
ATOM     21  C   UNL     1       2.025   7.289  -4.901  0.00  0.00    +0.011 C 
ATOM     22  H   UNL     1       1.522   7.865   0.019  0.00  0.00    +0.153 HD
ENDROOT
BRANCH   1  26
ATOM     23  C   UNL     1      -1.230   2.037   0.019  0.00  0.00    +0.162 A 
ATOM     24  C   UNL     1      -1.243   3.422   0.032  0.00  0.00    +0.050 A 
ATOM     25  C   UNL     1      -0.053   4.125   0.025  0.00  0.00    +0.008 A 
ATOM     26  C   UNL     1       1.153   3.449   0.010  0.00  0.00    -0.032 A 
ATOM     27  C   UNL     1       1.173   2.066   0.002  0.00  0.00    +0.054 A 
ATOM     28  C   UNL     1      -0.016   1.356   0.009  0.00  0.00    +0.162 A 
BRANCH  28  29
ATOM     29  O   UNL     1       0.002  -0.004   0.002  0.00  0.00    -0.491 OA
ATOM     30  C   UNL     1       1.284  -0.635  -0.014  0.00  0.00    +0.277 C 
ENDBRANCH  28  29
BRANCH  23  31
ATOM     31  O   UNL     1      -2.400   1.344   0.021  0.00  0.00    -0.488 OA
BRANCH  31  32
ATOM     32  C   UNL     1      -3.607   2.109   0.031  0.00  0.00    +0.229 C 
BRANCH  32  33
ATOM     33  C   UNL     1      -4.810   1.163   0.031  0.00  0.00    +0.041 C 
BRANCH  33  34
ATOM     34  C   UNL     1      -6.102   1.982   0.042  0.00  0.00    +0.003 C 
BRANCH  34  35
ATOM     35  C   UNL     1      -7.305   1.037   0.042  0.00  0.00    -0.000 C 
BRANCH  35  37
ATOM     36  C   UNL     1      -9.801   0.911   0.053  0.00  0.00    +0.004 C 
ATOM     37  C   UNL     1      -8.598   1.856   0.053  0.00  0.00    -0.003 C 
ENDBRANCH  35  37
ENDBRANCH  34  35
ENDBRANCH  33  34
ENDBRANCH  32  33
ENDBRANCH  31  32
ENDBRANCH  23  31
ENDBRANCH   1  26
TORSDOF 8
