REMARK  Name = ZINC13113293
REMARK  12 active torsions:
REMARK  status: ('A' for Active; 'I' for Inactive)
REMARK    1  A    between atoms: C_1  and  C_2
REMARK    2  A    between atoms: C_4  and  C_28
REMARK    3  A    between atoms: C_5  and  C_27
REMARK    4  A    between atoms: N_6  and  C_7
REMARK    5  A    between atoms: C_9  and  S_18
REMARK    6  A    between atoms: C_12  and  N_13
REMARK    7  A    between atoms: S_18  and  N_21
REMARK    8  A    between atoms: C_28  and  N_68
REMARK    9  A    between atoms: C_29  and  C_30
REMARK   10  A    between atoms: C_29  and  N_68
REMARK   11  A    between atoms: C_30  and  O_31
REMARK   12  A    between atoms: O_31  and  C_32
REMARK                            x       y       z     vdW  Elec       q    Type
REMARK                         _______ _______ _______ _____ _____    ______ ____
ROOT
ATOM      1  C   UNL     1       1.506   3.197  -0.018  0.00  0.00    +0.069 A 
ATOM      2  C   UNL     1       1.613   3.889   1.178  0.00  0.00    +0.056 A 
ATOM      3  C   UNL     1       2.185   5.147   1.201  0.00  0.00    +0.108 A 
ATOM      4  C   UNL     1       2.642   5.725   0.030  0.00  0.00    +0.030 A 
ATOM      5  C   UNL     1       2.535   5.045  -1.168  0.00  0.00    +0.027 A 
ATOM      6  C   UNL     1       1.967   3.779  -1.199  0.00  0.00    +0.054 A 
ENDROOT
BRANCH   1  12
ATOM      7  C   UNL     1      -1.427   2.641  -0.725  0.00  0.00    +0.064 C 
ATOM      8  C   UNL     1      -0.369   1.635  -0.350  0.00  0.00    +0.021 A 
ATOM      9  C   UNL     1      -0.542   0.300  -0.266  0.00  0.00    +0.024 A 
ATOM     10  C   UNL     1       0.695  -0.264   0.107  0.00  0.00    -0.043 A 
ATOM     11  C   UNL     1       1.578   0.748   0.237  0.00  0.00    +0.022 A 
ATOM     12  N   UNL     1       0.931   1.917  -0.043  0.00  0.00    -0.316 N 
ATOM     13  C   UNL     1       3.028   0.611   0.623  0.00  0.00    +0.064 C 
BRANCH  10  14
ATOM     14  C   UNL     1       0.980  -1.728   0.321  0.00  0.00    -0.045 C 
BRANCH  14  15
ATOM     15  N   UNL     1       0.960  -2.018   1.767  0.00  0.00    +0.383 N 
ATOM     16  H   UNL     1       0.036  -1.783   2.147  0.00  0.00    -0.085 HD
ATOM     17  H   UNL     1       1.677  -1.452   2.236  0.00  0.00    -0.085 HD
BRANCH  15  18
ATOM     18  C   UNL     1       1.236  -3.447   2.006  0.00  0.00    -0.054 C 
BRANCH  18  19
ATOM     19  C   UNL     1       1.210  -3.717   3.512  0.00  0.00    +0.140 C 
BRANCH  19  20
ATOM     20  O   UNL     1      -0.110  -3.494   4.013  0.00  0.00    -0.385 OA
ATOM     21  C   UNL     1      -0.244  -3.720   5.418  0.00  0.00    +0.193 C 
ENDBRANCH  19  20
ENDBRANCH  18  19
ENDBRANCH  15  18
ENDBRANCH  14  15
ENDBRANCH  10  14
ENDBRANCH   1  12
BRANCH   6  22
ATOM     22  N   UNL     1       1.858   3.089  -2.410  0.00  0.00    -0.328 N 
ATOM     23  C   UNL     1       2.384   3.903  -3.536  0.00  0.00    +0.105 C 
ATOM     24  C   UNL     1       2.674   2.846  -4.631  0.00  0.00    +0.020 C 
ATOM     25  C   UNL     1       3.206   1.643  -3.820  0.00  0.00    +0.020 C 
ATOM     26  C   UNL     1       2.671   1.853  -2.391  0.00  0.00    +0.105 C 
ENDBRANCH   6  22
BRANCH   3  27
ATOM     27  S   UNL     1       2.326   6.021   2.725  0.00  0.00    +0.061 S 
ATOM     28  O   UNL     1       2.323   5.042   3.755  0.00  0.00    -0.153 OA
ATOM     29  O   UNL     1       3.386   6.952   2.562  0.00  0.00    -0.153 OA
BRANCH  27  30
ATOM     30  N   UNL     1       0.940   6.908   2.910  0.00  0.00    -0.172 NA
ATOM     31  C   UNL     1       0.847   8.284   2.396  0.00  0.00    +0.137 C 
ATOM     32  C   UNL     1      -0.438   8.397   1.560  0.00  0.00    +0.177 C 
ATOM     33  O   UNL     1      -1.545   7.934   2.337  0.00  0.00    -0.377 OA
ATOM     34  C   UNL     1      -1.462   6.556   2.710  0.00  0.00    +0.177 C 
ATOM     35  C   UNL     1      -0.232   6.347   3.600  0.00  0.00    +0.137 C 
ENDBRANCH  27  30
ENDBRANCH   3  27
TORSDOF 9
