REMARK  Name = ZINC02340222
REMARK  11 active torsions:
REMARK  status: ('A' for Active; 'I' for Inactive)
REMARK    1  A    between atoms: C_1  and  C_2
REMARK    2  A    between atoms: C_2  and  C_3
REMARK    3  A    between atoms: C_3  and  C_4
REMARK    4  A    between atoms: C_4  and  C_5
REMARK    5  A    between atoms: C_5  and  C_6
REMARK    6  A    between atoms: C_18  and  C_40
REMARK    7  A    between atoms: C_18  and  C_41
REMARK    8  A    between atoms: C_24  and  C_26
REMARK    9  A    between atoms: C_30  and  O_32
REMARK   10  A    between atoms: O_32  and  C_33
REMARK   11  A    between atoms: C_33  and  C_34
REMARK                            x       y       z     vdW  Elec       q    Type
REMARK                         _______ _______ _______ _____ _____    ______ ____
ROOT
ATOM      1  C   UNL     1      -1.094   2.282  -0.026  0.00  0.00    +0.220 C 
ATOM      2  O   UNL     1      -2.171   1.735  -0.135  0.00  0.00    -0.275 OA
ATOM      3  N   UNL     1       0.036   1.548  -0.001  0.00  0.00    -0.261 N 
ATOM      4  C   UNL     1       1.287   2.175   0.002  0.00  0.00    +0.058 A 
ATOM      5  C   UNL     1       1.713   2.920   1.086  0.00  0.00    +0.025 A 
ATOM      6  C   UNL     1       2.964   3.510   1.069  0.00  0.00    +0.002 A 
ATOM      7  C   UNL     1       3.793   3.360  -0.028  0.00  0.00    +0.002 A 
ATOM      8  C   UNL     1       3.373   2.623  -1.122  0.00  0.00    +0.025 A 
ATOM      9  C   UNL     1       2.123   2.037  -1.116  0.00  0.00    +0.053 A 
ATOM     10  N   UNL     1       1.648   1.299  -2.205  0.00  0.00    -0.316 N 
ATOM     11  C   UNL     1       1.364  -0.061  -2.030  0.00  0.00    +0.017 C 
ATOM     12  C   UNL     1       2.270  -0.926  -2.425  0.00  0.00    -0.001 C 
ATOM     13  C   UNL     1       2.122  -2.413  -2.304  0.00  0.00    -0.008 C 
ATOM     14  C   UNL     1       0.638  -2.788  -2.408  0.00  0.00    +0.085 C 
ATOM     15  C   UNL     1      -0.110  -1.953  -1.393  0.00  0.00    +0.145 C 
ATOM     16  O   UNL     1      -0.832  -2.479  -0.580  0.00  0.00    -0.297 OA
ATOM     17  C   UNL     1       0.059  -0.458  -1.410  0.00  0.00    +0.124 C 
ATOM     18  C   UNL     1      -0.033   0.083   0.017  0.00  0.00    +0.127 C 
ATOM     19  C   UNL     1       2.901  -3.096  -3.429  0.00  0.00    +0.016 C 
ATOM     20  C   UNL     1       2.670  -2.872  -0.951  0.00  0.00    +0.016 C 
ATOM     21  H   UNL     1       1.518   1.722  -3.068  0.00  0.00    +0.152 HD
ENDROOT
BRANCH  18  22
ATOM     22  C   UNL     1      -1.340  -0.350   0.632  0.00  0.00    -0.022 A 
ATOM     23  C   UNL     1      -1.456  -0.454   2.006  0.00  0.00    +0.006 A 
ATOM     24  C   UNL     1      -2.653  -0.850   2.573  0.00  0.00    +0.004 A 
ATOM     25  C   UNL     1      -3.737  -1.143   1.767  0.00  0.00    +0.045 A 
ATOM     26  C   UNL     1      -3.623  -1.039   0.389  0.00  0.00    +0.121 A 
ATOM     27  C   UNL     1      -2.422  -0.636  -0.177  0.00  0.00    +0.051 A 
BRANCH  26  28
ATOM     28  O   UNL     1      -4.687  -1.326  -0.406  0.00  0.00    -0.487 OA
BRANCH  28  29
ATOM     29  C   UNL     1      -5.893  -1.730   0.246  0.00  0.00    +0.264 C 
BRANCH  29  30
ATOM     30  C   UNL     1      -6.955  -2.004  -0.787  0.00  0.00    -0.010 A 
ATOM     31  C   UNL     1      -7.797  -0.988  -1.200  0.00  0.00    +0.007 A 
ATOM     32  C   UNL     1      -8.768  -1.239  -2.151  0.00  0.00    +0.000 A 
ATOM     33  C   UNL     1      -8.904  -2.508  -2.682  0.00  0.00    +0.000 A 
ATOM     34  C   UNL     1      -8.066  -3.525  -2.266  0.00  0.00    +0.000 A 
ATOM     35  C   UNL     1      -7.091  -3.273  -1.319  0.00  0.00    +0.007 A 
ENDBRANCH  29  30
ENDBRANCH  28  29
ENDBRANCH  26  28
ENDBRANCH  18  22
BRANCH   1  36
ATOM     36  C   UNL     1      -1.019   3.784   0.082  0.00  0.00    +0.096 C 
BRANCH  36  37
ATOM     37  C   UNL     1      -2.432   4.370   0.028  0.00  0.00    +0.009 C 
BRANCH  37  38
ATOM     38  C   UNL     1      -2.356   5.894   0.137  0.00  0.00    +0.000 C 
BRANCH  38  40
ATOM     39  C   UNL     1      -3.692   8.004   0.193  0.00  0.00    +0.004 C 
ATOM     40  C   UNL     1      -3.768   6.480   0.084  0.00  0.00    -0.003 C 
ENDBRANCH  38  40
ENDBRANCH  37  38
ENDBRANCH  36  37
ENDBRANCH   1  36
TORSDOF 8
