REMARK  Name = ZINC13024271
REMARK  7 active torsions:
REMARK  status: ('A' for Active; 'I' for Inactive)
REMARK    1  A    between atoms: C_10  and  O_12
REMARK    2  A    between atoms: O_12  and  C_13
REMARK    3  A    between atoms: C_13  and  C_14
REMARK    4  A    between atoms: C_14  and  C_16
REMARK    5  A    between atoms: C_14  and  O_34
REMARK    6  A    between atoms: C_16  and  N_17
REMARK    7  A    between atoms: N_26  and  C_27
REMARK                            x       y       z     vdW  Elec       q    Type
REMARK                         _______ _______ _______ _____ _____    ______ ____
ROOT
ATOM      1  N   UNL     1      -2.821  -2.537  -0.111  0.00  0.00    -0.296 N 
ATOM      2  C   UNL     1      -3.384  -2.928   1.061  0.00  0.00    +0.204 A 
ATOM      3  N   UNL     1      -4.605  -3.367   1.150  0.00  0.00    -0.217 NA
ATOM      4  C   UNL     1      -5.399  -3.478   0.074  0.00  0.00    +0.170 A 
ATOM      5  C   UNL     1      -4.902  -3.102  -1.185  0.00  0.00    +0.103 A 
ATOM      6  C   UNL     1      -3.529  -2.604  -1.263  0.00  0.00    +0.265 A 
ATOM      7  O   UNL     1      -3.040  -2.263  -2.325  0.00  0.00    -0.267 OA
ATOM      8  C   UNL     1      -5.931  -3.317  -2.121  0.00  0.00    +0.150 A 
ATOM      9  N   UNL     1      -6.972  -3.785  -1.488  0.00  0.00    -0.172 NA
ATOM     10  N   UNL     1      -6.678  -3.898  -0.123  0.00  0.00    -0.214 N 
ENDROOT
BRANCH  10  11
ATOM     11  C   UNL     1      -7.551  -4.364   0.869  0.00  0.00    +0.068 A 
ATOM     12  C   UNL     1      -7.059  -5.105   1.935  0.00  0.00    +0.030 A 
ATOM     13  C   UNL     1      -7.921  -5.560   2.914  0.00  0.00    +0.040 A 
ATOM     14  C   UNL     1      -9.276  -5.286   2.827  0.00  0.00    +0.124 A 
ATOM     15  C   UNL     1      -9.769  -4.552   1.761  0.00  0.00    +0.040 A 
ATOM     16  C   UNL     1      -8.910  -4.091   0.783  0.00  0.00    +0.030 A 
ATOM     17  F   UNL     1     -10.118  -5.737   3.782  0.00  0.00    -0.205 F 
ENDBRANCH  10  11
BRANCH   1  18
ATOM     18  C   UNL     1      -1.441  -2.047  -0.130  0.00  0.00    +0.160 C 
BRANCH  18  19
ATOM     19  C   UNL     1      -1.435  -0.531   0.077  0.00  0.00    +0.160 C 
BRANCH  19  20
ATOM     20  O   UNL     1      -1.927  -0.227   1.384  0.00  0.00    -0.388 OA
ATOM     21  H   UNL     1      -1.405  -0.614   2.100  0.00  0.00    +0.210 HD
ENDBRANCH  19  20
BRANCH  19  22
ATOM     22  C   UNL     1      -0.007  -0.002  -0.067  0.00  0.00    +0.193 C 
BRANCH  22  23
ATOM     23  O   UNL     1      -0.017   1.425   0.010  0.00  0.00    -0.369 OA
BRANCH  23  33
ATOM     24  C   UNL     1       0.956   5.860  -1.861  0.00  0.00    +0.000 A 
ATOM     25  C   UNL     1       0.277   4.769  -2.370  0.00  0.00    +0.000 A 
ATOM     26  C   UNL     1       0.397   3.540  -1.756  0.00  0.00    +0.006 A 
ATOM     27  C   UNL     1       1.194   3.389  -0.628  0.00  0.00    -0.016 A 
ATOM     28  C   UNL     1       1.867   4.476  -0.119  0.00  0.00    -0.042 A 
ATOM     29  C   UNL     1       1.747   5.712  -0.740  0.00  0.00    +0.004 A 
ATOM     30  C   UNL     1       2.743   4.388   1.104  0.00  0.00    +0.035 C 
ATOM     31  C   UNL     1       3.109   2.934   1.398  0.00  0.00    +0.007 C 
ATOM     32  C   UNL     1       1.819   2.105   1.417  0.00  0.00    +0.037 C 
ATOM     33  C   UNL     1       1.283   2.018  -0.011  0.00  0.00    +0.149 C 
ENDBRANCH  23  33
ENDBRANCH  22  23
ENDBRANCH  19  22
ENDBRANCH  18  19
ENDBRANCH   1  18
TORSDOF 7
