REMARK  Name = ZINC20236901
REMARK  7 active torsions:
REMARK  status: ('A' for Active; 'I' for Inactive)
REMARK    1  A    between atoms: C_1  and  C_2
REMARK    2  A    between atoms: C_9  and  C_10
REMARK    3  A    between atoms: C_12  and  O_28
REMARK    4  A    between atoms: C_13  and  O_17
REMARK    5  A    between atoms: O_17  and  C_18
REMARK    6  A    between atoms: C_18  and  C_19
REMARK    7  A    between atoms: O_28  and  C_29
REMARK                            x       y       z     vdW  Elec       q    Type
REMARK                         _______ _______ _______ _____ _____    ______ ____
ROOT
ATOM      1  C   UNL     1       0.532  -6.680   1.275  0.00  0.00    -0.019 A 
ATOM      2  C   UNL     1       1.134  -7.767   1.925  0.00  0.00    +0.057 A 
ATOM      3  C   UNL     1       0.354  -8.801   2.399  0.00  0.00    +0.163 A 
ATOM      4  C   UNL     1      -1.031  -8.765   2.232  0.00  0.00    +0.176 A 
ATOM      5  C   UNL     1      -1.630  -7.689   1.587  0.00  0.00    +0.064 A 
ATOM      6  C   UNL     1      -0.860  -6.649   1.115  0.00  0.00    +0.027 A 
ATOM      7 BR   UNL     1      -3.507  -7.650   1.364  0.00  0.00    -0.046 Br
ENDROOT
BRANCH   1  16
ATOM      8  C   UNL     1      -0.282   0.183  -3.321  0.00  0.00    +0.089 C 
ATOM      9  C   UNL     1      -0.047  -1.178  -2.718  0.00  0.00    +0.134 C 
ATOM     10  C   UNL     1      -0.798  -2.277  -2.953  0.00  0.00    +0.091 C 
ATOM     11  C   UNL     1      -0.260  -3.345  -2.221  0.00  0.00    +0.168 C 
ATOM     12  N   UNL     1      -0.692  -4.600  -2.111  0.00  0.00    -0.156 NA
ATOM     13  C   UNL     1      -0.063  -5.454  -1.291  0.00  0.00    +0.273 C 
ATOM     14  O   UNL     1      -0.369  -6.636  -1.275  0.00  0.00    -0.268 OA
ATOM     15  C   UNL     1       1.011  -4.944  -0.403  0.00  0.00    +0.084 C 
ATOM     16  C   UNL     1       1.355  -5.578   0.770  0.00  0.00    +0.025 C 
ATOM     17  C   UNL     1       1.696  -3.697  -0.863  0.00  0.00    +0.176 C 
ATOM     18  N   UNL     1       2.947  -3.422  -0.605  0.00  0.00    -0.280 NA
ATOM     19  N   UNL     1       0.861  -2.862  -1.594  0.00  0.00    -0.142 N 
ATOM     20  O   UNL     1       0.944  -1.491  -1.867  0.00  0.00    -0.375 OA
ATOM     21  H   UNL     1       3.484  -4.043  -0.088  0.00  0.00    +0.188 HD
ENDBRANCH   1  16
BRANCH   3  22
ATOM     22  O   UNL     1       0.935  -9.857   3.030  0.00  0.00    -0.491 OA
ATOM     23  C   UNL     1       2.357  -9.828   3.166  0.00  0.00    +0.277 C 
ENDBRANCH   3  22
BRANCH   4  24
ATOM     24  O   UNL     1      -1.796  -9.784   2.699  0.00  0.00    -0.483 OA
BRANCH  24  25
ATOM     25  C   UNL     1      -2.281  -9.670   4.039  0.00  0.00    +0.265 C 
BRANCH  25  26
ATOM     26  C   UNL     1      -3.104 -10.886   4.380  0.00  0.00    -0.007 A 
ATOM     27  C   UNL     1      -4.463 -10.891   4.128  0.00  0.00    +0.011 A 
ATOM     28  C   UNL     1      -5.222 -12.004   4.439  0.00  0.00    +0.050 A 
ATOM     29  C   UNL     1      -4.622 -13.117   5.005  0.00  0.00    +0.166 A 
ATOM     30  C   UNL     1      -3.253 -13.111   5.260  0.00  0.00    +0.167 A 
ATOM     31  C   UNL     1      -2.497 -11.995   4.940  0.00  0.00    +0.056 A 
ATOM     32  O   UNL     1      -2.907 -14.310   5.813  0.00  0.00    -0.453 OA
ATOM     33  C   UNL     1      -4.141 -14.892   6.271  0.00  0.00    +0.466 C 
ATOM     34  O   UNL     1      -5.134 -14.319   5.400  0.00  0.00    -0.453 OA
ENDBRANCH  25  26
ENDBRANCH  24  25
ENDBRANCH   4  24
TORSDOF 5
