REMARK  Name = ZINC01119715
REMARK  9 active torsions:
REMARK  status: ('A' for Active; 'I' for Inactive)
REMARK    1  A    between atoms: C_1  and  O_2
REMARK    2  A    between atoms: O_2  and  C_3
REMARK    3  A    between atoms: C_3  and  C_5
REMARK    4  A    between atoms: C_6  and  N_33
REMARK    5  A    between atoms: C_10  and  C_12
REMARK    6  A    between atoms: C_17  and  O_18
REMARK    7  A    between atoms: O_18  and  C_19
REMARK    8  A    between atoms: C_19  and  C_20
REMARK    9  A    between atoms: C_25  and  C_26
REMARK                            x       y       z     vdW  Elec       q    Type
REMARK                         _______ _______ _______ _____ _____    ______ ____
ROOT
ATOM      1  C   UNL     1      -1.402   3.000  -1.215  0.00  0.00    +0.105 C 
ATOM      2  C   UNL     1      -1.259   4.345  -1.093  0.00  0.00    +0.195 C 
ATOM      3  O   UNL     1      -0.967   4.912   0.086  0.00  0.00    -0.446 OA
ATOM      4  C   UNL     1      -1.234   4.254   1.230  0.00  0.00    +0.115 C 
ATOM      5  C   UNL     1      -1.369   2.915   1.253  0.00  0.00    +0.045 C 
ATOM      6  C   UNL     1      -1.238   2.108  -0.016  0.00  0.00    +0.101 C 
ATOM      7  C   UNL     1      -1.634   2.226   2.453  0.00  0.00    +0.163 C 
ATOM      8  O   UNL     1      -1.762   1.019   2.431  0.00  0.00    -0.292 OA
ATOM      9  C   UNL     1      -1.760   2.959   3.761  0.00  0.00    +0.080 C 
ATOM     10  C   UNL     1      -0.918   4.238   3.696  0.00  0.00    +0.016 C 
ATOM     11  C   UNL     1      -1.385   5.065   2.496  0.00  0.00    +0.075 C 
ENDROOT
BRANCH   6  12
ATOM     12  C   UNL     1       0.121   1.459  -0.057  0.00  0.00    +0.007 A 
ATOM     13  C   UNL     1       1.261   2.241  -0.057  0.00  0.00    +0.008 A 
ATOM     14  C   UNL     1       2.508   1.647  -0.101  0.00  0.00    +0.001 A 
ATOM     15  C   UNL     1       2.619   0.269  -0.145  0.00  0.00    +0.004 A 
ATOM     16  C   UNL     1       1.483  -0.517  -0.145  0.00  0.00    +0.046 A 
ATOM     17  C   UNL     1       0.230   0.077  -0.102  0.00  0.00    +0.125 A 
BRANCH  17  18
ATOM     18  O   UNL     1      -0.889  -0.694  -0.102  0.00  0.00    -0.487 OA
BRANCH  18  19
ATOM     19  C   UNL     1      -0.701  -2.110  -0.149  0.00  0.00    +0.265 C 
BRANCH  19  20
ATOM     20  C   UNL     1      -2.043  -2.795  -0.141  0.00  0.00    +0.007 A 
ATOM     21  C   UNL     1      -3.201  -2.047  -0.089  0.00  0.00    +0.008 A 
ATOM     22  C   UNL     1      -4.434  -2.674  -0.086  0.00  0.00    +0.000 A 
ATOM     23  C   UNL     1      -4.515  -4.055  -0.127  0.00  0.00    +0.001 A 
ATOM     24  C   UNL     1      -3.366  -4.815  -0.175  0.00  0.00    +0.019 A 
ATOM     25  C   UNL     1      -2.118  -4.189  -0.182  0.00  0.00    +0.058 A 
BRANCH  25  26
ATOM     26  C   UNL     1      -0.920  -4.972  -0.231  0.00  0.00    +0.100 C 
ATOM     27  N   UNL     1       0.030  -5.593  -0.270  0.00  0.00    -0.191 NA
ENDBRANCH  25  26
ENDBRANCH  19  20
ENDBRANCH  18  19
ENDBRANCH  17  18
ENDBRANCH   6  12
BRANCH   2  28
ATOM     28  N   UNL     1      -1.417   5.139  -2.198  0.00  0.00    -0.329 N 
ATOM     29  H   UNL     1      -1.717   4.751  -3.035  0.00  0.00    +0.145 HD
ATOM     30  H   UNL     1      -1.228   6.089  -2.143  0.00  0.00    +0.145 HD
ENDBRANCH   2  28
BRANCH   1  31
ATOM     31  C   UNL     1      -1.704   2.440  -2.466  0.00  0.00    +0.341 C 
ATOM     32  O   UNL     1      -2.842   2.088  -2.717  0.00  0.00    -0.245 OA
BRANCH  31  34
ATOM     33  C   UNL     1      -1.110   1.714  -4.643  0.00  0.00    +0.280 C 
ATOM     34  O   UNL     1      -0.731   2.291  -3.391  0.00  0.00    -0.465 OA
ENDBRANCH  31  34
ENDBRANCH   1  31
TORSDOF 8
