REMARK  Name = ZINC09971070
REMARK  8 active torsions:
REMARK  status: ('A' for Active; 'I' for Inactive)
REMARK    1  A    between atoms: C_1  and  C_2
REMARK    2  A    between atoms: C_5  and  S_9
REMARK    3  A    between atoms: C_7  and  C_8
REMARK    4  A    between atoms: S_9  and  C_12
REMARK    5  A    between atoms: N_24  and  C_25
REMARK    6  A    between atoms: C_25  and  C_27
REMARK    7  A    between atoms: C_25  and  C_28
REMARK    8  A    between atoms: C_28  and  C_29
REMARK                            x       y       z     vdW  Elec       q    Type
REMARK                         _______ _______ _______ _____ _____    ______ ____
ROOT
ATOM      1  C   UNL     1       4.693   1.348  -0.037  0.00  0.00    +0.249 A 
ATOM      2  C   UNL     1       3.564   2.151  -0.021  0.00  0.00    +0.204 A 
ATOM      3  N   UNL     1       3.405   3.486  -0.013  0.00  0.00    -0.209 NA
ATOM      4  C   UNL     1       2.193   4.015   0.002  0.00  0.00    +0.137 A 
ATOM      5  C   UNL     1       1.070   3.181   0.009  0.00  0.00    +0.077 A 
ATOM      6  C   UNL     1       1.188   1.788   0.000  0.00  0.00    +0.087 A 
ATOM      7  N   UNL     1       2.498   1.298  -0.015  0.00  0.00    -0.192 N 
ATOM      8  N   UNL     1       3.019   0.000  -0.027  0.00  0.00    -0.057 NA
ATOM      9  N   UNL     1       4.305   0.078  -0.040  0.00  0.00    -0.108 NA
ATOM     10  C   UNL     1      -0.013   1.076   0.008  0.00  0.00    +0.036 A 
ATOM     11  C   UNL     1      -1.194   1.734   0.017  0.00  0.00    +0.048 A 
ATOM     12  S   UNL     1      -0.684   3.445   0.028  0.00  0.00    -0.092 S 
ATOM     13  N   UNL     1       2.037   5.389   0.012  0.00  0.00    -0.325 N 
ATOM     14  H   UNL     1       1.147   5.776   0.023  0.00  0.00    +0.148 HD
ENDROOT
BRANCH   1  15
ATOM     15  S   UNL     1       6.361   1.915  -0.051  0.00  0.00    +0.047 S 
ATOM     16  O   UNL     1       7.141   0.869  -0.615  0.00  0.00    -0.163 OA
ATOM     17  O   UNL     1       6.340   3.227  -0.595  0.00  0.00    -0.163 OA
BRANCH  15  22
ATOM     18  C   UNL     1       8.110   2.460   5.698  0.00  0.00    +0.044 C 
ATOM     19  C   UNL     1       7.673   2.324   4.262  0.00  0.00    -0.047 A 
ATOM     20  C   UNL     1       7.857   1.127   3.594  0.00  0.00    +0.005 A 
ATOM     21  C   UNL     1       7.457   1.003   2.277  0.00  0.00    +0.028 A 
ATOM     22  C   UNL     1       6.872   2.074   1.628  0.00  0.00    +0.096 A 
ATOM     23  C   UNL     1       6.692   3.271   2.295  0.00  0.00    +0.031 A 
ATOM     24  C   UNL     1       7.089   3.395   3.613  0.00  0.00    -0.046 A 
ATOM     25  C   UNL     1       6.888   4.699   4.341  0.00  0.00    +0.044 C 
ENDBRANCH  15  22
ENDBRANCH   1  15
BRANCH  13  26
ATOM     26  C   UNL     1       3.214   6.261   0.005  0.00  0.00    +0.073 C 
ATOM     27  C   UNL     1       3.713   6.455   1.438  0.00  0.00    +0.028 C 
BRANCH  26  28
ATOM     28  C   UNL     1       2.841   7.619  -0.593  0.00  0.00    +0.057 C 
BRANCH  28  29
ATOM     29  C   UNL     1       2.466   7.443  -2.042  0.00  0.00    -0.046 A 
ATOM     30  C   UNL     1       3.434   7.543  -3.024  0.00  0.00    +0.004 A 
ATOM     31  C   UNL     1       3.091   7.377  -4.353  0.00  0.00    +0.000 A 
ATOM     32  C   UNL     1       1.778   7.122  -4.701  0.00  0.00    +0.000 A 
ATOM     33  C   UNL     1       0.809   7.027  -3.720  0.00  0.00    +0.000 A 
ATOM     34  C   UNL     1       1.153   7.188  -2.391  0.00  0.00    +0.004 A 
ENDBRANCH  28  29
ENDBRANCH  26  28
ENDBRANCH  13  26
TORSDOF 5
