REMARK  Name = ZINC08801686
REMARK  9 active torsions:
REMARK  status: ('A' for Active; 'I' for Inactive)
REMARK    1  A    between atoms: C_1  and  N_2
REMARK    2  A    between atoms: C_9  and  C_11
REMARK    3  A    between atoms: C_11  and  C_13
REMARK    4  A    between atoms: C_11  and  N_61
REMARK    5  A    between atoms: C_13  and  N_14
REMARK    6  A    between atoms: N_14  and  S_15
REMARK    7  A    between atoms: S_15  and  C_18
REMARK    8  A    between atoms: C_21  and  O_25
REMARK    9  A    between atoms: O_25  and  C_26
REMARK                            x       y       z     vdW  Elec       q    Type
REMARK                         _______ _______ _______ _____ _____    ______ ____
ROOT
ATOM      1  C   UNL     1       1.058   3.893  -0.288  0.00  0.00    -0.022 C 
ENDROOT
BRANCH   1  10
ATOM      2  C   UNL     1       6.955   6.420   0.502  0.00  0.00    +0.129 C 
ATOM      3  N   UNL     1       5.946   6.758  -0.511  0.00  0.00    -0.332 N 
ATOM      4  C   UNL     1       6.420   6.409  -1.868  0.00  0.00    +0.109 C 
ATOM      5  C   UNL     1       5.107   6.058  -2.605  0.00  0.00    +0.056 C 
ATOM      6  C   UNL     1       4.192   5.628  -1.476  0.00  0.00    -0.025 A 
ATOM      7  C   UNL     1       4.752   6.064  -0.281  0.00  0.00    +0.033 A 
ATOM      8  C   UNL     1       4.098   5.780   0.917  0.00  0.00    +0.023 A 
ATOM      9  C   UNL     1       2.907   5.085   0.909  0.00  0.00    +0.004 A 
ATOM     10  C   UNL     1       2.359   4.654  -0.285  0.00  0.00    -0.059 A 
ATOM     11  C   UNL     1       3.003   4.929  -1.478  0.00  0.00    +0.007 A 
ENDBRANCH   1  10
BRANCH   1  17
ATOM     12  C   UNL     1      -1.090   3.692   0.811  0.00  0.00    -0.078 C 
ATOM     13  C   UNL     1      -1.950   4.243   1.950  0.00  0.00    -0.019 C 
ATOM     14  C   UNL     1      -2.280   5.712   1.669  0.00  0.00    -0.004 C 
ATOM     15  C   UNL     1      -0.977   6.500   1.513  0.00  0.00    -0.019 C 
ATOM     16  C   UNL     1      -0.145   5.882   0.387  0.00  0.00    -0.078 C 
ATOM     17  N   UNL     1       0.160   4.477   0.730  0.00  0.00    +0.385 N 
ATOM     18  H   UNL     1       0.629   4.451   1.643  0.00  0.00    -0.081 HD
ENDBRANCH   1  17
BRANCH   1  19
ATOM     19  C   UNL     1       1.324   2.428   0.067  0.00  0.00    +0.095 C 
BRANCH  19  20
ATOM     20  N   UNL     1       2.200   1.832  -0.946  0.00  0.00    -0.191 NA
ATOM     21  H   UNL     1       2.346   2.288  -1.789  0.00  0.00    +0.148 HD
BRANCH  20  22
ATOM     22  S   UNL     1       2.945   0.384  -0.647  0.00  0.00    +0.058 S 
ATOM     23  O   UNL     1       3.693   0.064  -1.812  0.00  0.00    -0.153 OA
ATOM     24  O   UNL     1       3.545   0.493   0.637  0.00  0.00    -0.153 OA
BRANCH  22  25
ATOM     25  C   UNL     1       1.680  -0.834  -0.509  0.00  0.00    +0.107 A 
ATOM     26  C   UNL     1       1.117  -1.109   0.724  0.00  0.00    +0.032 A 
ATOM     27  C   UNL     1       0.121  -2.061   0.834  0.00  0.00    +0.049 A 
ATOM     28  C   UNL     1      -0.307  -2.748  -0.292  0.00  0.00    +0.138 A 
ATOM     29  C   UNL     1       0.263  -2.475  -1.528  0.00  0.00    +0.084 A 
ATOM     30  C   UNL     1       1.255  -1.518  -1.633  0.00  0.00    +0.052 A 
ATOM     31 CL   UNL     1      -0.270  -3.333  -2.940  0.00  0.00    -0.080 Cl
BRANCH  28  32
ATOM     32  O   UNL     1      -1.283  -3.688  -0.185  0.00  0.00    -0.494 OA
ATOM     33  C   UNL     1      -1.823  -3.917   1.118  0.00  0.00    +0.277 C 
ENDBRANCH  28  32
ENDBRANCH  22  25
ENDBRANCH  20  22
ENDBRANCH  19  20
ENDBRANCH   1  19
TORSDOF 7
