REMARK  Name = ZINC40943103
REMARK  13 active torsions:
REMARK  status: ('A' for Active; 'I' for Inactive)
REMARK    1  A    between atoms: C_1  and  C_2
REMARK    2  A    between atoms: C_2  and  C_3
REMARK    3  A    between atoms: C_2  and  C_4
REMARK    4  A    between atoms: C_7  and  O_11
REMARK    5  A    between atoms: O_11  and  C_12
REMARK    6  A    between atoms: C_12  and  C_13
REMARK    7  A    between atoms: N_15  and  C_16
REMARK    8  A    between atoms: C_17  and  C_29
REMARK    9  A    between atoms: C_23  and  C_25
REMARK   10  A    between atoms: C_25  and  O_27
REMARK   11  A    between atoms: O_27  and  C_28
REMARK   12  A    between atoms: C_29  and  O_31
REMARK   13  A    between atoms: O_31  and  C_32
REMARK                            x       y       z     vdW  Elec       q    Type
REMARK                         _______ _______ _______ _____ _____    ______ ____
ROOT
ATOM      1  C   UNL     1       4.651  -2.056   5.985  0.00  0.00    +0.255 C 
ATOM      2  O   UNL     1       3.954  -2.756   6.688  0.00  0.00    -0.272 OA
ATOM      3  N   UNL     1       5.928  -1.807   6.338  0.00  0.00    -0.277 N 
ATOM      4  H   UNL     1       6.485  -1.246   5.776  0.00  0.00    +0.155 HD
ENDROOT
BRANCH   3   5
ATOM      5  C   UNL     1       6.444  -2.351   7.503  0.00  0.00    +0.086 A 
ATOM      6  C   UNL     1       7.718  -2.200   8.022  0.00  0.00    +0.092 A 
ATOM      7  C   UNL     1       8.014  -2.885   9.279  0.00  0.00    -0.008 A 
ATOM      8  C   UNL     1       6.982  -3.590   9.776  0.00  0.00    -0.004 A 
ATOM      9  S   UNL     1       5.665  -3.338   8.614  0.00  0.00    -0.077 S 
ATOM     10  C   UNL     1       7.342  -4.277  11.066  0.00  0.00    +0.044 C 
ATOM     11  C   UNL     1       8.886  -4.258  11.101  0.00  0.00    +0.024 C 
ATOM     12  C   UNL     1       9.206  -3.030  10.223  0.00  0.00    +0.130 C 
BRANCH  12  13
ATOM     13  C   UNL     1       9.346  -1.799  11.080  0.00  0.00    +0.314 C 
ATOM     14  O   UNL     1       8.568  -0.883  10.953  0.00  0.00    -0.250 OA
BRANCH  13  15
ATOM     15  O   UNL     1      10.335  -1.719  11.983  0.00  0.00    -0.468 OA
ATOM     16  C   UNL     1      10.408  -0.522  12.761  0.00  0.00    +0.280 C 
ENDBRANCH  13  15
ENDBRANCH  12  13
BRANCH   6  17
ATOM     17  C   UNL     1       8.727  -1.389   7.339  0.00  0.00    +0.342 C 
ATOM     18  O   UNL     1       8.828  -0.203   7.593  0.00  0.00    -0.245 OA
BRANCH  17  19
ATOM     19  O   UNL     1       9.546  -1.955   6.429  0.00  0.00    -0.464 OA
ATOM     20  C   UNL     1      10.507  -1.104   5.802  0.00  0.00    +0.280 C 
ENDBRANCH  17  19
ENDBRANCH   6  17
ENDBRANCH   3   5
BRANCH   1  21
ATOM     21  C   UNL     1       4.090  -1.464   4.718  0.00  0.00    +0.325 C 
BRANCH  21  22
ATOM     22  O   UNL     1       2.728  -1.870   4.564  0.00  0.00    -0.482 OA
BRANCH  22  26
ATOM     23  C   UNL     1       0.731  -0.503   1.223  0.00  0.00    -0.044 A 
ATOM     24  C   UNL     1       2.050  -0.147   1.433  0.00  0.00    +0.007 A 
ATOM     25  C   UNL     1       2.721  -0.604   2.551  0.00  0.00    +0.047 A 
ATOM     26  C   UNL     1       2.070  -1.420   3.464  0.00  0.00    +0.135 A 
ATOM     27  C   UNL     1       0.746  -1.776   3.252  0.00  0.00    +0.060 A 
ATOM     28  C   UNL     1       0.077  -1.312   2.134  0.00  0.00    +0.022 A 
ATOM     29 BR   UNL     1      -0.146  -2.889   4.494  0.00  0.00    -0.047 Br
BRANCH  23  31
ATOM     30  C   UNL     1      -0.019   1.526   0.010  0.00  0.00    +0.012 C 
ATOM     31  C   UNL     1       0.002  -0.004   0.002  0.00  0.00    +0.013 C 
ATOM     32  C   UNL     1       0.718  -0.497  -1.257  0.00  0.00    +0.012 C 
ENDBRANCH  23  31
ENDBRANCH  22  26
ENDBRANCH  21  22
ENDBRANCH   1  21
TORSDOF 9
