REMARK  Name = ZINC59352839
REMARK  9 active torsions:
REMARK  status: ('A' for Active; 'I' for Inactive)
REMARK    1  A    between atoms: C_1  and  C_2
REMARK    2  A    between atoms: C_2  and  O_3
REMARK    3  A    between atoms: O_3  and  C_4
REMARK    4  A    between atoms: C_4  and  C_6
REMARK    5  A    between atoms: C_6  and  S_7
REMARK    6  A    between atoms: S_7  and  C_8
REMARK    7  A    between atoms: N_11  and  C_21
REMARK    8  A    between atoms: N_13  and  C_14
REMARK    9  A    between atoms: C_17  and  C_20
REMARK                            x       y       z     vdW  Elec       q    Type
REMARK                         _______ _______ _______ _____ _____    ______ ____
ROOT
ATOM      1  C   UNL     1       2.393  -4.706   3.824  0.00  0.00    +0.137 C 
ATOM      2  N   UNL     1       2.850  -3.804   4.635  0.00  0.00    -0.355 N 
ATOM      3  C   UNL     1       3.548  -4.131   5.874  0.00  0.00    +0.204 C 
ATOM      4  N   UNL     1       3.233  -5.499   6.304  0.00  0.00    -0.266 NA
ATOM      5  C   UNL     1       3.440  -6.444   5.191  0.00  0.00    +0.201 C 
ATOM      6  N   UNL     1       2.526  -6.050   4.106  0.00  0.00    -0.268 N 
ATOM      7  H   UNL     1       2.723  -2.869   4.408  0.00  0.00    +0.163 HD
ENDROOT
BRANCH   6   8
ATOM      8  C   UNL     1       1.815  -7.011   3.379  0.00  0.00    +0.037 A 
ATOM      9  C   UNL     1       2.491  -7.896   2.550  0.00  0.00    +0.024 A 
ATOM     10  C   UNL     1       1.786  -8.844   1.834  0.00  0.00    +0.005 A 
ATOM     11  C   UNL     1       0.409  -8.911   1.941  0.00  0.00    -0.050 A 
ATOM     12  C   UNL     1      -0.267  -8.031   2.766  0.00  0.00    +0.005 A 
ATOM     13  C   UNL     1       0.432  -7.084   3.489  0.00  0.00    +0.024 A 
ATOM     14  C   UNL     1      -0.357  -9.946   1.158  0.00  0.00    +0.044 C 
ENDBRANCH   6   8
BRANCH   4  15
ATOM     15  C   UNL     1       4.035  -5.881   7.474  0.00  0.00    +0.060 C 
ATOM     16  C   UNL     1       3.568  -7.250   8.010  0.00  0.00    +0.019 C 
ATOM     17  C   UNL     1       3.686  -7.116   9.549  0.00  0.00    +0.002 C 
ATOM     18  C   UNL     1       3.232  -5.657   9.800  0.00  0.00    +0.002 C 
ATOM     19  C   UNL     1       3.821  -4.867   8.613  0.00  0.00    +0.019 C 
ENDBRANCH   4  15
BRANCH   1  20
ATOM     20  S   UNL     1       1.583  -4.208   2.340  0.00  0.00    -0.081 S 
BRANCH  20  21
ATOM     21  C   UNL     1       1.645  -2.395   2.394  0.00  0.00    +0.197 C 
BRANCH  21  22
ATOM     22  C   UNL     1       0.977  -1.833   1.166  0.00  0.00    +0.317 C 
ATOM     23  O   UNL     1       0.507  -2.579   0.339  0.00  0.00    -0.250 OA
BRANCH  22  24
ATOM     24  O   UNL     1       0.903  -0.504   0.991  0.00  0.00    -0.464 OA
BRANCH  24  26
ATOM     25  C   UNL     1       0.269   1.488  -0.221  0.00  0.00    +0.048 C 
ATOM     26  C   UNL     1       0.256  -0.042  -0.197  0.00  0.00    +0.229 C 
ENDBRANCH  24  26
ENDBRANCH  22  24
ENDBRANCH  21  22
ENDBRANCH  20  21
ENDBRANCH   1  20
TORSDOF 7
