REMARK  Name = ZINC03772359
REMARK  11 active torsions:
REMARK  status: ('A' for Active; 'I' for Inactive)
REMARK    1  A    between atoms: C_1  and  C_2
REMARK    2  A    between atoms: C_2  and  C_3
REMARK    3  A    between atoms: C_2  and  C_4
REMARK    4  A    between atoms: C_2  and  N_5
REMARK    5  A    between atoms: C_6  and  C_8
REMARK    6  A    between atoms: C_8  and  N_13
REMARK    7  A    between atoms: N_13  and  C_14
REMARK    8  A    between atoms: C_14  and  C_15
REMARK    9  A    between atoms: C_15  and  C_16
REMARK   10  A    between atoms: C_26  and  C_28
REMARK   11  A    between atoms: C_28  and  N_29
REMARK                            x       y       z     vdW  Elec       q    Type
REMARK                         _______ _______ _______ _____ _____    ______ ____
ROOT
ATOM      1  N   UNL     1       0.157   0.193  -0.381  0.00  0.00    -0.286 N 
ATOM      2  C   UNL     1       1.280  -0.501  -0.651  0.00  0.00    +0.234 C 
ATOM      3  O   UNL     1       1.213  -1.681  -0.922  0.00  0.00    -0.274 OA
ENDROOT
BRANCH   1   4
ATOM      4  C   UNL     1       0.224   1.642  -0.170  0.00  0.00    +0.113 C 
ATOM      5  C   UNL     1      -1.189   2.207   0.055  0.00  0.00    +0.035 C 
ATOM      6  C   UNL     1      -1.442   3.224  -1.077  0.00  0.00    +0.003 C 
ATOM      7  C   UNL     1      -0.484   2.778  -2.209  0.00  0.00    +0.003 C 
ATOM      8  C   UNL     1       0.780   2.334  -1.431  0.00  0.00    +0.035 C 
BRANCH   4  10
ATOM      9  N   UNL     1       1.108   1.124   2.082  0.00  0.00    -0.309 N 
ATOM     10  C   UNL     1       1.100   1.950   1.017  0.00  0.00    +0.237 C 
ATOM     11  O   UNL     1       1.798   2.942   1.014  0.00  0.00    -0.273 OA
ATOM     12  H   UNL     1       0.607   0.294   2.055  0.00  0.00    +0.149 HD
BRANCH   9  14
ATOM     13  C   UNL     1       1.353   2.804   3.842  0.00  0.00    +0.031 C 
ATOM     14  C   UNL     1       1.874   1.480   3.279  0.00  0.00    +0.026 C 
ATOM     15  C   UNL     1       1.715   0.381   4.331  0.00  0.00    +0.031 C 
ATOM     16  C   UNL     1       3.352   1.627   2.914  0.00  0.00    +0.031 C 
ENDBRANCH   9  14
ENDBRANCH   4  10
ENDBRANCH   1   4
BRANCH   1  17
ATOM     17  C   UNL     1      -1.130  -0.500  -0.297  0.00  0.00    +0.113 C 
BRANCH  17  18
ATOM     18  C   UNL     1      -1.854  -0.397  -1.641  0.00  0.00    +0.056 C 
BRANCH  18  19
ATOM     19  C   UNL     1      -3.213  -1.039  -1.530  0.00  0.00    -0.021 A 
ATOM     20  C   UNL     1      -3.530  -2.299  -1.867  0.00  0.00    +0.087 A 
ATOM     21  N   UNL     1      -4.857  -2.527  -1.626  0.00  0.00    -0.360 N 
ATOM     22  H   UNL     1      -5.318  -3.365  -1.789  0.00  0.00    +0.165 HD
ATOM     23  C   UNL     1      -5.444  -1.387  -1.124  0.00  0.00    +0.047 A 
ATOM     24  C   UNL     1      -4.439  -0.405  -1.042  0.00  0.00    +0.003 A 
ATOM     25  C   UNL     1      -4.748   0.868  -0.560  0.00  0.00    +0.010 A 
ATOM     26  C   UNL     1      -6.026   1.155  -0.171  0.00  0.00    +0.001 A 
ATOM     27  C   UNL     1      -7.020   0.190  -0.250  0.00  0.00    +0.002 A 
ATOM     28  C   UNL     1      -6.738  -1.073  -0.722  0.00  0.00    +0.026 A 
ENDBRANCH  18  19
ENDBRANCH  17  18
ENDBRANCH   1  17
BRANCH   2  29
ATOM     29  C   UNL     1       2.619   0.190  -0.618  0.00  0.00    +0.212 C 
BRANCH  29  30
ATOM     30  N   UNL     1       3.662  -0.747  -1.045  0.00  0.00    -0.225 N 
ATOM     31  C   UNL     1       4.348  -1.552  -0.214  0.00  0.00    +0.254 C 
ATOM     32  O   UNL     1       4.204  -1.617   0.991  0.00  0.00    -0.270 OA
ATOM     33  C   UNL     1       5.306  -2.346  -1.011  0.00  0.00    +0.049 A 
ATOM     34  C   UNL     1       6.250  -3.314  -0.708  0.00  0.00    +0.014 A 
ATOM     35  C   UNL     1       7.012  -3.873  -1.722  0.00  0.00    +0.001 A 
ATOM     36  C   UNL     1       6.837  -3.472  -3.033  0.00  0.00    +0.001 A 
ATOM     37  C   UNL     1       5.897  -2.504  -3.351  0.00  0.00    +0.014 A 
ATOM     38  C   UNL     1       5.128  -1.936  -2.348  0.00  0.00    +0.049 A 
ATOM     39  C   UNL     1       4.064  -0.911  -2.318  0.00  0.00    +0.254 C 
ATOM     40  O   UNL     1       3.626  -0.316  -3.282  0.00  0.00    -0.270 OA
ENDBRANCH  29  30
ENDBRANCH   2  29
TORSDOF 8
