REMARK  Name = ZINC67625245
REMARK  8 active torsions:
REMARK  status: ('A' for Active; 'I' for Inactive)
REMARK    1  A    between atoms: C_1  and  C_2
REMARK    2  A    between atoms: C_2  and  C_4
REMARK    3  A    between atoms: C_2  and  N_11
REMARK    4  A    between atoms: C_8  and  O_10
REMARK    5  A    between atoms: N_11  and  C_12
REMARK    6  A    between atoms: N_15  and  C_16
REMARK    7  A    between atoms: N_21  and  C_23
REMARK    8  A    between atoms: C_23  and  C_24
REMARK                            x       y       z     vdW  Elec       q    Type
REMARK                         _______ _______ _______ _____ _____    ______ ____
ROOT
ATOM      1  N   UNL     1       0.837  -0.414   1.182  0.00  0.00    -0.282 N 
ATOM      2  C   UNL     1       0.424  -0.100   2.552  0.00  0.00    +0.134 C 
ATOM      3  C   UNL     1       2.040  -0.976   0.953  0.00  0.00    +0.303 C 
ATOM      4  O   UNL     1       2.383  -1.237  -0.184  0.00  0.00    -0.253 OA
ATOM      5  N   UNL     1       2.864  -1.248   1.985  0.00  0.00    -0.298 N 
ATOM      6  H   UNL     1       2.591  -1.040   2.892  0.00  0.00    +0.150 HD
ENDROOT
BRANCH   5   7
ATOM      7  C   UNL     1       4.172  -1.859   1.736  0.00  0.00    +0.058 C 
ATOM      8  C   UNL     1       5.192  -0.765   1.404  0.00  0.00    +0.018 C 
ATOM      9  C   UNL     1       6.571  -1.405   1.223  0.00  0.00    -0.017 C 
ATOM     10  C   UNL     1       6.940  -2.177   2.492  0.00  0.00    -0.078 C 
ATOM     11  N   UNL     1       5.942  -3.224   2.740  0.00  0.00    +0.384 N 
ATOM     12  C   UNL     1       4.630  -2.614   2.986  0.00  0.00    -0.056 C 
ATOM     13  H   UNL     1       5.884  -3.830   1.935  0.00  0.00    -0.081 HD
BRANCH  11  14
ATOM     14  C   UNL     1       6.342  -4.011   3.914  0.00  0.00    -0.043 C 
BRANCH  14  15
ATOM     15  C   UNL     1       7.624  -4.744   3.615  0.00  0.00    -0.064 A 
ATOM     16  C   UNL     1       7.583  -6.010   3.062  0.00  0.00    +0.002 A 
ATOM     17  C   UNL     1       8.759  -6.683   2.787  0.00  0.00    +0.000 A 
ATOM     18  C   UNL     1       9.976  -6.089   3.065  0.00  0.00    +0.000 A 
ATOM     19  C   UNL     1      10.017  -4.823   3.617  0.00  0.00    +0.000 A 
ATOM     20  C   UNL     1       8.841  -4.149   3.888  0.00  0.00    +0.002 A 
ENDBRANCH  14  15
ENDBRANCH  11  14
ENDBRANCH   5   7
BRANCH   1  22
ATOM     21  C   UNL     1      -0.473   1.353   0.114  0.00  0.00    +0.033 C 
ATOM     22  C   UNL     1      -0.059  -0.119   0.061  0.00  0.00    +0.104 C 
BRANCH  22  23
ATOM     23  C   UNL     1      -1.285  -0.990   0.154  0.00  0.00    -0.024 A 
ATOM     24  C   UNL     1      -1.639  -1.800  -0.908  0.00  0.00    +0.006 A 
ATOM     25  C   UNL     1      -2.764  -2.600  -0.826  0.00  0.00    +0.004 A 
ATOM     26  C   UNL     1      -3.537  -2.591   0.320  0.00  0.00    +0.045 A 
ATOM     27  C   UNL     1      -3.184  -1.779   1.387  0.00  0.00    +0.117 A 
ATOM     28  C   UNL     1      -2.051  -0.981   1.304  0.00  0.00    +0.050 A 
BRANCH  27  29
ATOM     29  O   UNL     1      -3.943  -1.768   2.514  0.00  0.00    -0.507 OA
ATOM     30  H   UNL     1      -3.673  -2.419   3.176  0.00  0.00    +0.292 HD
ENDBRANCH  27  29
ENDBRANCH  22  23
ENDBRANCH   1  22
TORSDOF 6
