REMARK  Name = ZINC23130337
REMARK  5 active torsions:
REMARK  status: ('A' for Active; 'I' for Inactive)
REMARK    1  A    between atoms: C_6  and  C_7
REMARK    2  A    between atoms: C_8  and  C_13
REMARK    3  A    between atoms: C_13  and  N_14
REMARK    4  A    between atoms: C_18  and  C_21
REMARK    5  A    between atoms: C_22  and  C_27
REMARK                            x       y       z     vdW  Elec       q    Type
REMARK                         _______ _______ _______ _____ _____    ______ ____
ROOT
ATOM      1  N   UNL     1      -3.290   5.545  -0.524  0.00  0.00    -0.297 NA
ATOM      2  C   UNL     1      -3.495   6.545   0.532  0.00  0.00    +0.085 C 
ATOM      3  C   UNL     1      -4.534   6.030   1.530  0.00  0.00    +0.016 C 
ATOM      4  C   UNL     1      -5.849   5.758   0.796  0.00  0.00    +0.012 C 
ATOM      5  C   UNL     1      -5.599   4.750  -0.329  0.00  0.00    +0.052 C 
ATOM      6  C   UNL     1      -4.529   5.303  -1.274  0.00  0.00    +0.094 C 
ENDROOT
BRANCH   5   7
ATOM      7  C   UNL     1      -6.877   4.522  -1.095  0.00  0.00    +0.048 A 
ATOM      8  C   UNL     1      -7.523   3.331  -1.247  0.00  0.00    +0.026 A 
ATOM      9  C   UNL     1      -8.669   3.566  -2.030  0.00  0.00    +0.143 A 
ATOM     10  N   UNL     1      -8.703   4.838  -2.329  0.00  0.00    -0.181 NA
ATOM     11  N   UNL     1      -7.592   5.461  -1.748  0.00  0.00    -0.281 N 
ATOM     12  H   UNL     1      -7.253   6.507  -1.751  0.00  0.00    +0.189 HD
BRANCH   8  13
ATOM     13  C   UNL     1      -7.095   2.023  -0.690  0.00  0.00    +0.023 A 
ATOM     14  C   UNL     1      -6.722   0.987  -1.543  0.00  0.00    +0.049 A 
ATOM     15  C   UNL     1      -6.324  -0.228  -1.019  0.00  0.00    +0.124 A 
ATOM     16  C   UNL     1      -6.296  -0.417   0.353  0.00  0.00    +0.041 A 
ATOM     17  C   UNL     1      -6.664   0.607   1.205  0.00  0.00    +0.042 A 
ATOM     18  C   UNL     1      -7.058   1.829   0.691  0.00  0.00    +0.131 A 
ATOM     19  F   UNL     1      -7.413   2.831   1.525  0.00  0.00    -0.205 F 
ATOM     20  F   UNL     1      -5.962  -1.233  -1.846  0.00  0.00    -0.205 F 
ENDBRANCH   8  13
ENDBRANCH   5   7
BRANCH   1  21
ATOM     21  C   UNL     1      -2.200   5.945  -1.423  0.00  0.00    +0.123 C 
BRANCH  21  23
ATOM     22  C   UNL     1      -0.074   5.600   0.032  0.00  0.00    +0.097 A 
ATOM     23  C   UNL     1      -1.024   6.419  -0.608  0.00  0.00    +0.012 A 
ATOM     24  C   UNL     1      -0.694   7.706  -0.362  0.00  0.00    +0.110 A 
ATOM     25  N   UNL     1       0.419   7.712   0.403  0.00  0.00    -0.284 N 
ATOM     26  H   UNL     1       0.864   8.667   0.719  0.00  0.00    +0.188 HD
ATOM     27  N   UNL     1       0.790   6.383   0.643  0.00  0.00    -0.174 NA
BRANCH  22  33
ATOM     28  C   UNL     1       1.161   3.433   0.009  0.00  0.00    +0.013 A 
ATOM     29  C   UNL     1       1.175   2.054   0.002  0.00  0.00    +0.039 A 
ATOM     30  C   UNL     1      -0.016   1.347   0.009  0.00  0.00    +0.123 A 
ATOM     31  C   UNL     1      -1.226   2.021   0.019  0.00  0.00    +0.039 A 
ATOM     32  C   UNL     1      -1.250   3.401   0.031  0.00  0.00    +0.013 A 
ATOM     33  C   UNL     1      -0.054   4.116   0.024  0.00  0.00    +0.003 A 
ATOM     34  F   UNL     1       0.002  -0.004   0.002  0.00  0.00    -0.205 F 
ENDBRANCH  22  33
ENDBRANCH  21  23
ENDBRANCH   1  21
TORSDOF 5
