REMARK  Name = ZINC05264082
REMARK  10 active torsions:
REMARK  status: ('A' for Active; 'I' for Inactive)
REMARK    1  A    between atoms: C_1  and  C_2
REMARK    2  A    between atoms: C_2  and  C_3
REMARK    3  A    between atoms: C_3  and  C_25
REMARK    4  A    between atoms: N_6  and  C_10
REMARK    5  A    between atoms: C_10  and  C_11
REMARK    6  A    between atoms: N_13  and  C_14
REMARK    7  A    between atoms: C_19  and  C_24
REMARK    8  A    between atoms: C_21  and  C_23
REMARK    9  A    between atoms: C_28  and  O_31
REMARK   10  A    between atoms: O_31  and  C_32
REMARK                            x       y       z     vdW  Elec       q    Type
REMARK                         _______ _______ _______ _____ _____    ______ ____
ROOT
ATOM      1  C   UNL     1      -1.204   1.830   0.017  0.00  0.00    +0.138 C 
ATOM      2  C   UNL     1      -0.628   3.232   0.024  0.00  0.00    +0.251 C 
ATOM      3  O   UNL     1      -1.244   4.276   0.034  0.00  0.00    -0.272 OA
ATOM      4  N   UNL     1       0.710   3.076   0.011  0.00  0.00    -0.215 N 
ATOM      5  C   UNL     1       1.057   1.784   0.002  0.00  0.00    +0.310 C 
ATOM      6  O   UNL     1       2.207   1.393  -0.011  0.00  0.00    -0.252 OA
ATOM      7  N   UNL     1      -0.011   0.966   0.007  0.00  0.00    -0.281 N 
ATOM      8  H   UNL     1       0.002  -0.004   0.002  0.00  0.00    +0.152 HD
ENDROOT
BRANCH   1   9
ATOM      9  C   UNL     1      -2.034   1.601  -1.220  0.00  0.00    -0.015 A 
ATOM     10  C   UNL     1      -3.404   1.787  -1.176  0.00  0.00    +0.010 A 
ATOM     11  C   UNL     1      -4.166   1.583  -2.310  0.00  0.00    +0.046 A 
ATOM     12  C   UNL     1      -3.558   1.182  -3.490  0.00  0.00    +0.120 A 
ATOM     13  C   UNL     1      -2.184   0.991  -3.530  0.00  0.00    +0.046 A 
ATOM     14  C   UNL     1      -1.426   1.201  -2.395  0.00  0.00    +0.010 A 
BRANCH  12  15
ATOM     15  O   UNL     1      -4.306   0.976  -4.606  0.00  0.00    -0.495 OA
ATOM     16  C   UNL     1      -5.714   1.192  -4.491  0.00  0.00    +0.277 C 
ENDBRANCH  12  15
ENDBRANCH   1   9
BRANCH   1  18
ATOM     17  C   UNL     1      -1.184   1.878   2.515  0.00  0.00    +0.007 C 
ATOM     18  C   UNL     1      -2.036   1.585   1.278  0.00  0.00    +0.037 C 
ENDBRANCH   1  18
BRANCH   4  19
ATOM     19  C   UNL     1       1.668   4.185   0.007  0.00  0.00    +0.213 C 
BRANCH  19  20
ATOM     20  C   UNL     1       1.982   4.572  -1.415  0.00  0.00    +0.231 C 
ATOM     21  O   UNL     1       1.459   3.979  -2.335  0.00  0.00    -0.274 OA
ATOM     22  N   UNL     1       2.846   5.576  -1.665  0.00  0.00    -0.311 N 
ATOM     23  H   UNL     1       3.265   6.050  -0.930  0.00  0.00    +0.149 HD
BRANCH  22  24
ATOM     24  C   UNL     1       3.152   5.952  -3.048  0.00  0.00    +0.076 C 
ATOM     25  C   UNL     1       2.093   6.932  -3.556  0.00  0.00    +0.022 C 
ATOM     26  C   UNL     1       2.413   7.324  -5.000  0.00  0.00    +0.002 C 
ATOM     27  C   UNL     1       3.791   7.988  -5.055  0.00  0.00    +0.003 C 
ATOM     28  C   UNL     1       4.850   7.007  -4.547  0.00  0.00    -0.009 C 
ATOM     29  C   UNL     1       4.530   6.615  -3.103  0.00  0.00    +0.009 C 
ATOM     30  C   UNL     1       5.589   5.634  -2.595  0.00  0.00    +0.009 C 
ATOM     31  C   UNL     1       4.851   5.756  -5.427  0.00  0.00    +0.008 C 
ENDBRANCH  22  24
ENDBRANCH  19  20
ENDBRANCH   4  19
TORSDOF 6
