REMARK  Name = ZINC09370602
REMARK  12 active torsions:
REMARK  status: ('A' for Active; 'I' for Inactive)
REMARK    1  A    between atoms: C_1  and  C_2
REMARK    2  A    between atoms: C_5  and  S_8
REMARK    3  A    between atoms: S_8  and  C_9
REMARK    4  A    between atoms: C_9  and  C_10
REMARK    5  A    between atoms: C_17  and  N_36
REMARK    6  A    between atoms: C_18  and  C_34
REMARK    7  A    between atoms: C_19  and  C_21
REMARK    8  A    between atoms: C_24  and  O_29
REMARK    9  A    between atoms: C_25  and  O_27
REMARK   10  A    between atoms: O_27  and  C_28
REMARK   11  A    between atoms: O_29  and  C_30
REMARK   12  A    between atoms: C_30  and  C_31
REMARK                            x       y       z     vdW  Elec       q    Type
REMARK                         _______ _______ _______ _____ _____    ______ ____
ROOT
ATOM      1  C   UNL     1       0.097  -6.482   1.870  0.00  0.00    +0.054 A 
ATOM      2  C   UNL     1      -0.976  -7.285   1.942  0.00  0.00    +0.050 A 
ATOM      3  C   UNL     1      -0.520  -8.616   2.060  0.00  0.00    +0.245 A 
ATOM      4  N   UNL     1       0.782  -8.598   2.060  0.00  0.00    -0.135 NA
ATOM      5  N   UNL     1       1.200  -7.263   1.936  0.00  0.00    -0.277 N 
ATOM      6  H   UNL     1       2.119  -6.955   1.905  0.00  0.00    +0.189 HD
ATOM      7  O   UNL     1      -1.378  -9.667   2.150  0.00  0.00    -0.421 OA
ATOM      8  C   UNL     1      -2.673  -9.438   1.852  0.00  0.00    +0.201 C 
ATOM      9  C   UNL     1      -3.224  -8.213   1.726  0.00  0.00    +0.098 C 
ATOM     10  C   UNL     1      -2.442  -6.937   1.911  0.00  0.00    +0.101 C 
ENDROOT
BRANCH  10  11
ATOM     11  C   UNL     1      -2.837  -6.282   3.209  0.00  0.00    -0.031 A 
ATOM     12  C   UNL     1      -2.678  -6.964   4.402  0.00  0.00    +0.008 A 
ATOM     13  C   UNL     1      -3.039  -6.368   5.596  0.00  0.00    +0.050 A 
ATOM     14  C   UNL     1      -3.560  -5.084   5.599  0.00  0.00    +0.163 A 
ATOM     15  C   UNL     1      -3.719  -4.397   4.399  0.00  0.00    +0.162 A 
ATOM     16  C   UNL     1      -3.351  -4.999   3.207  0.00  0.00    +0.054 A 
BRANCH  15  17
ATOM     17  O   UNL     1      -4.230  -3.137   4.398  0.00  0.00    -0.491 OA
ATOM     18  C   UNL     1      -4.365  -2.493   3.129  0.00  0.00    +0.277 C 
ENDBRANCH  15  17
BRANCH  14  19
ATOM     19  O   UNL     1      -3.915  -4.496   6.773  0.00  0.00    -0.479 OA
BRANCH  19  20
ATOM     20  C   UNL     1      -3.724  -5.261   7.965  0.00  0.00    +0.324 C 
BRANCH  20  21
ATOM     21  C   UNL     1      -4.171  -4.453   9.157  0.00  0.00    +0.248 C 
ATOM     22  O   UNL     1      -4.610  -3.333   9.000  0.00  0.00    -0.272 OA
ATOM     23  N   UNL     1      -4.083  -4.975  10.396  0.00  0.00    -0.327 N 
ATOM     24  H   UNL     1      -3.732  -5.870  10.521  0.00  0.00    +0.145 HD
ATOM     25  H   UNL     1      -4.371  -4.455  11.163  0.00  0.00    +0.145 HD
ENDBRANCH  20  21
ENDBRANCH  19  20
ENDBRANCH  14  19
ENDBRANCH  10  11
BRANCH   8  26
ATOM     26  N   UNL     1      -3.487 -10.527   1.664  0.00  0.00    -0.328 N 
ATOM     27  H   UNL     1      -3.125 -11.423   1.747  0.00  0.00    +0.145 HD
ATOM     28  H   UNL     1      -4.424 -10.400   1.448  0.00  0.00    +0.145 HD
ENDBRANCH   8  26
BRANCH   9  29
ATOM     29  C   UNL     1      -4.615  -8.120   1.401  0.00  0.00    +0.101 C 
ATOM     30  N   UNL     1      -5.719  -8.047   1.143  0.00  0.00    -0.191 NA
ENDBRANCH   9  29
BRANCH   1  31
ATOM     31  C   UNL     1       0.077  -4.981   1.735  0.00  0.00    +0.129 C 
BRANCH  31  32
ATOM     32  S   UNL     1       0.062  -4.533  -0.023  0.00  0.00    -0.119 S 
BRANCH  32  37
ATOM     33  C   UNL     1      -0.018   1.503   0.010  0.00  0.00    +0.044 C 
ATOM     34  C   UNL     1       0.002  -0.004   0.002  0.00  0.00    -0.050 A 
ATOM     35  C   UNL     1       0.006  -0.687  -1.200  0.00  0.00    +0.004 A 
ATOM     36  C   UNL     1       0.024  -2.068  -1.212  0.00  0.00    +0.015 A 
ATOM     37  C   UNL     1       0.039  -2.771  -0.013  0.00  0.00    +0.008 A 
ATOM     38  C   UNL     1       0.036  -2.081   1.193  0.00  0.00    +0.015 A 
ATOM     39  C   UNL     1       0.023  -0.700   1.197  0.00  0.00    +0.004 A 
ENDBRANCH  32  37
ENDBRANCH  31  32
ENDBRANCH   1  31
TORSDOF 10
