REMARK  Name = ZINC34835151
REMARK  16 active torsions:
REMARK  status: ('A' for Active; 'I' for Inactive)
REMARK    1  A    between atoms: C_1  and  C_2
REMARK    2  A    between atoms: C_2  and  N_3
REMARK    3  A    between atoms: N_6  and  C_9
REMARK    4  A    between atoms: C_10  and  C_21
REMARK    5  A    between atoms: C_11  and  C_20
REMARK    6  A    between atoms: N_13  and  C_14
REMARK    7  A    between atoms: C_21  and  N_22
REMARK    8  A    between atoms: N_22  and  C_23
REMARK    9  A    between atoms: C_23  and  C_24
REMARK   10  A    between atoms: C_24  and  C_25
REMARK   11  A    between atoms: C_25  and  O_26
REMARK   12  A    between atoms: O_26  and  C_27
REMARK   13  A    between atoms: C_28  and  C_30
REMARK   14  A    between atoms: C_30  and  C_31
REMARK   15  A    between atoms: C_30  and  C_32
REMARK   16  A    between atoms: C_30  and  C_33
REMARK                            x       y       z     vdW  Elec       q    Type
REMARK                         _______ _______ _______ _____ _____    ______ ____
ROOT
ATOM      1  C   UNL     1      -3.934  -2.746  -1.683  0.00  0.00    +0.130 A 
ATOM      2  C   UNL     1      -4.191  -4.076  -1.824  0.00  0.00    +0.032 A 
ATOM      3  C   UNL     1      -4.816  -4.262  -3.061  0.00  0.00    +0.067 A 
ATOM      4  N   UNL     1      -4.933  -3.098  -3.646  0.00  0.00    -0.170 NA
ATOM      5  N   UNL     1      -4.393  -2.120  -2.801  0.00  0.00    -0.218 N 
ATOM      6  C   UNL     1      -5.275  -5.582  -3.625  0.00  0.00    +0.068 C 
ENDROOT
BRANCH   1  10
ATOM      7  N   UNL     1      -2.096  -1.836   1.902  0.00  0.00    +0.382 N 
ATOM      8  C   UNL     1      -1.373  -2.519   0.822  0.00  0.00    -0.060 C 
ATOM      9  C   UNL     1      -1.859  -1.990  -0.531  0.00  0.00    +0.088 C 
ATOM     10  N   UNL     1      -3.321  -2.137  -0.592  0.00  0.00    -0.318 N 
ATOM     11  C   UNL     1      -4.117  -1.623   0.534  0.00  0.00    +0.088 C 
ATOM     12  C   UNL     1      -3.524  -2.170   1.837  0.00  0.00    -0.060 C 
ATOM     13  H   UNL     1      -1.980  -0.839   1.802  0.00  0.00    -0.082 HD
BRANCH   7  15
ATOM     14  C   UNL     1      -0.098  -1.805   3.319  0.00  0.00    -0.017 C 
ATOM     15  C   UNL     1      -1.554  -2.263   3.199  0.00  0.00    -0.082 C 
ENDBRANCH   7  15
ENDBRANCH   1  10
BRANCH   5  16
ATOM     16  C   UNL     1      -4.332  -0.745  -3.062  0.00  0.00    +0.067 A 
ATOM     17  C   UNL     1      -4.643   0.167  -2.062  0.00  0.00    +0.028 A 
ATOM     18  C   UNL     1      -4.582   1.522  -2.322  0.00  0.00    +0.002 A 
ATOM     19  C   UNL     1      -4.211   1.971  -3.576  0.00  0.00    +0.000 A 
ATOM     20  C   UNL     1      -3.902   1.065  -4.574  0.00  0.00    +0.002 A 
ATOM     21  C   UNL     1      -3.955  -0.291  -4.319  0.00  0.00    +0.028 A 
ENDBRANCH   5  16
BRANCH   2  22
ATOM     22  C   UNL     1      -3.861  -5.154  -0.825  0.00  0.00    +0.148 C 
BRANCH  22  23
ATOM     23  N   UNL     1      -2.899  -6.089  -1.416  0.00  0.00    -0.296 N 
ATOM     24  C   UNL     1      -3.133  -7.415  -1.370  0.00  0.00    +0.223 C 
ATOM     25  O   UNL     1      -2.304  -8.192  -1.795  0.00  0.00    -0.275 OA
BRANCH  24  26
ATOM     26  C   UNL     1      -4.425  -7.933  -0.792  0.00  0.00    +0.055 C 
ATOM     27  C   UNL     1      -4.434  -9.462  -0.852  0.00  0.00    +0.022 C 
ATOM     28  C   UNL     1      -4.549  -7.480   0.664  0.00  0.00    +0.022 C 
BRANCH  26  29
ATOM     29  C   UNL     1      -5.602  -7.383  -1.599  0.00  0.00    +0.124 C 
ATOM     30 CL   UNL     1      -7.150  -7.868  -0.811  0.00  0.00    -0.124 Cl
ENDBRANCH  26  29
ENDBRANCH  24  26
BRANCH  23  31
ATOM     31  C   UNL     1      -1.683  -5.581  -2.057  0.00  0.00    +0.110 C 
BRANCH  31  32
ATOM     32  C   UNL     1      -0.563  -5.484  -1.019  0.00  0.00    +0.047 C 
BRANCH  32  33
ATOM     33  C   UNL     1       0.707  -4.953  -1.688  0.00  0.00    +0.161 C 
BRANCH  33  34
ATOM     34  O   UNL     1       1.753  -4.862  -0.719  0.00  0.00    -0.383 OA
ATOM     35  C   UNL     1       2.990  -4.375  -1.243  0.00  0.00    +0.193 C 
ENDBRANCH  33  34
ENDBRANCH  32  33
ENDBRANCH  31  32
ENDBRANCH  23  31
ENDBRANCH  22  23
ENDBRANCH   2  22
TORSDOF 11
