REMARK  Name = ZINC12333844
REMARK  10 active torsions:
REMARK  status: ('A' for Active; 'I' for Inactive)
REMARK    1  A    between atoms: C_1  and  C_2
REMARK    2  A    between atoms: C_2  and  N_3
REMARK    3  A    between atoms: N_3  and  C_4
REMARK    4  A    between atoms: C_4  and  C_5
REMARK    5  A    between atoms: C_6  and  C_8
REMARK    6  A    between atoms: C_14  and  C_15
REMARK    7  A    between atoms: C_14  and  N_77
REMARK    8  A    between atoms: C_18  and  C_23
REMARK    9  A    between atoms: N_25  and  C_26
REMARK   10  A    between atoms: C_26  and  C_27
REMARK                            x       y       z     vdW  Elec       q    Type
REMARK                         _______ _______ _______ _____ _____    ______ ____
ROOT
ATOM      1  C   UNL     1      -1.785  -5.641  -2.043  0.00  0.00    +0.003 A 
ATOM      2  C   UNL     1      -2.660  -6.552  -1.546  0.00  0.00    +0.020 A 
ATOM      3  C   UNL     1      -2.227  -7.842  -1.238  0.00  0.00    +0.020 A 
ATOM      4  C   UNL     1      -0.891  -8.174  -1.449  0.00  0.00    +0.101 A 
ATOM      5  C   UNL     1      -0.015  -7.187  -1.970  0.00  0.00    +0.261 A 
ATOM      6  O   UNL     1       1.159  -7.452  -2.164  0.00  0.00    -0.267 OA
ATOM      7  N   UNL     1      -0.485  -5.958  -2.255  0.00  0.00    -0.327 N 
ATOM      8  H   UNL     1       0.117  -5.288  -2.615  0.00  0.00    +0.169 HD
ENDROOT
BRANCH   4   9
ATOM      9  C   UNL     1      -0.397  -9.524  -1.137  0.00  0.00    +0.249 C 
ATOM     10  O   UNL     1      -1.177 -10.394  -0.800  0.00  0.00    -0.270 OA
ATOM     11  N   UNL     1       0.921  -9.796  -1.224  0.00  0.00    -0.311 N 
ATOM     12  H   UNL     1       1.549  -9.089  -1.441  0.00  0.00    +0.149 HD
BRANCH  11  13
ATOM     13  C   UNL     1       1.404 -11.159  -0.991  0.00  0.00    +0.108 C 
BRANCH  13  14
ATOM     14  C   UNL     1       2.925 -11.195  -1.150  0.00  0.00    +0.012 C 
ATOM     15  C   UNL     1       3.294 -10.877  -2.601  0.00  0.00    -0.006 C 
ATOM     16  C   UNL     1       4.815 -10.913  -2.760  0.00  0.00    +0.007 C 
ATOM     17  C   UNL     1       5.333 -12.306  -2.395  0.00  0.00    -0.010 C 
ATOM     18  C   UNL     1       4.699 -13.345  -3.322  0.00  0.00    +0.007 C 
ATOM     19  C   UNL     1       3.178 -13.309  -3.163  0.00  0.00    -0.010 C 
ATOM     20  C   UNL     1       2.660 -11.916  -3.528  0.00  0.00    +0.007 C 
ATOM     21  C   UNL     1       2.809 -13.627  -1.713  0.00  0.00    +0.007 C 
ATOM     22  C   UNL     1       3.443 -12.588  -0.786  0.00  0.00    -0.006 C 
ATOM     23  C   UNL     1       4.965 -12.624  -0.945  0.00  0.00    +0.007 C 
ENDBRANCH  13  14
ENDBRANCH  11  13
ENDBRANCH   4   9
BRANCH   1  24
ATOM     24  C   UNL     1      -2.270  -4.252  -2.370  0.00  0.00    -0.025 C 
BRANCH  24  30
ATOM     25  C   UNL     1      -1.056  -0.933  -1.071  0.00  0.00    +0.059 C 
ATOM     26  C   UNL     1      -1.451  -1.099   0.399  0.00  0.00    +0.009 C 
ATOM     27  C   UNL     1      -1.219  -2.552   0.821  0.00  0.00    -0.018 C 
ATOM     28  C   UNL     1      -2.029  -3.478  -0.089  0.00  0.00    -0.078 C 
ATOM     29  C   UNL     1      -1.870  -1.906  -1.927  0.00  0.00    -0.066 C 
ATOM     30  N   UNL     1      -1.583  -3.288  -1.486  0.00  0.00    +0.384 N 
ATOM     31  H   UNL     1      -0.571  -3.451  -1.538  0.00  0.00    -0.081 HD
BRANCH  25  33
ATOM     32  N   UNL     1      -0.421   1.446  -1.302  0.00  0.00    -0.302 N 
ATOM     33  C   UNL     1      -1.337   0.481  -1.511  0.00  0.00    +0.217 C 
ATOM     34  O   UNL     1      -2.388   0.749  -2.054  0.00  0.00    -0.275 OA
BRANCH  32  36
ATOM     35  C   UNL     1       0.031   2.935  -3.189  0.00  0.00    +0.024 C 
ATOM     36  C   UNL     1      -0.647   2.796  -1.824  0.00  0.00    +0.104 C 
ENDBRANCH  32  36
BRANCH  32  37
ATOM     37  C   UNL     1       0.801   1.147  -0.552  0.00  0.00    +0.104 C 
ATOM     38  C   UNL     1       0.642   1.621   0.894  0.00  0.00    +0.024 C 
ENDBRANCH  32  37
ENDBRANCH  25  33
ENDBRANCH  24  30
ENDBRANCH   1  24
TORSDOF 8
