REMARK  Name = ZINC09441506
REMARK  5 active torsions:
REMARK  status: ('A' for Active; 'I' for Inactive)
REMARK    1  A    between atoms: C_3  and  C_6
REMARK    2  A    between atoms: C_7  and  C_26
REMARK    3  A    between atoms: C_12  and  C_14
REMARK    4  A    between atoms: C_14  and  S_15
REMARK    5  A    between atoms: S_15  and  C_16
REMARK                            x       y       z     vdW  Elec       q    Type
REMARK                         _______ _______ _______ _____ _____    ______ ____
ROOT
ATOM      1  C   UNL     1       0.002  -0.004   0.002  0.00  0.00    +0.126 A 
ATOM      2  C   UNL     1       1.239  -0.654  -0.013  0.00  0.00    +0.086 A 
ATOM      3  S   UNL     1       2.348   0.749  -0.016  0.00  0.00    -0.048 S 
ATOM      4  C   UNL     1       1.098   2.026   0.003  0.00  0.00    +0.166 A 
ATOM      5  N   UNL     1      -0.016   1.319   0.009  0.00  0.00    -0.221 NA
ATOM      6  N   UNL     1       1.258   3.405   0.008  0.00  0.00    -0.264 N 
ATOM      7  C   UNL     1       2.495   3.939  -0.001  0.00  0.00    +0.229 C 
ATOM      8  O   UNL     1       3.469   3.216  -0.014  0.00  0.00    -0.275 OA
ATOM      9  H   UNL     1       0.480   3.983   0.019  0.00  0.00    +0.157 HD
ENDROOT
BRANCH   1  12
ATOM     10  C   UNL     1      -3.340  -1.445   0.392  0.00  0.00    +0.042 A 
ATOM     11  C   UNL     1      -2.402  -0.427   0.655  0.00  0.00    +0.051 A 
ATOM     12  C   UNL     1      -1.254  -0.775   0.009  0.00  0.00    +0.154 A 
ATOM     13  O   UNL     1      -1.469  -1.943  -0.626  0.00  0.00    -0.461 OA
ATOM     14  C   UNL     1      -2.728  -2.354  -0.392  0.00  0.00    +0.196 A 
ENDBRANCH   1  12
BRANCH   2  15
ATOM     15  C   UNL     1       1.543  -2.090  -0.025  0.00  0.00    +0.144 A 
ATOM     16  C   UNL     1       2.790  -2.645  -0.045  0.00  0.00    +0.050 A 
ATOM     17  C   UNL     1       2.611  -4.042  -0.046  0.00  0.00    +0.042 A 
ATOM     18  C   UNL     1       1.283  -4.271  -0.035  0.00  0.00    +0.196 A 
ATOM     19  O   UNL     1       0.640  -3.091  -0.023  0.00  0.00    -0.462 OA
ENDBRANCH   2  15
BRANCH   7  20
ATOM     20  C   UNL     1       2.669   5.436   0.006  0.00  0.00    +0.172 C 
BRANCH  20  21
ATOM     21  S   UNL     1       4.433   5.839  -0.009  0.00  0.00    -0.096 S 
BRANCH  21  22
ATOM     22  C   UNL     1       4.346   7.599   0.001  0.00  0.00    +0.111 A 
ATOM     23  C   UNL     1       5.519   8.380  -0.006  0.00  0.00    +0.070 A 
ATOM     24  C   UNL     1       6.901   8.096  -0.020  0.00  0.00    +0.147 A 
ATOM     25  N   UNL     1       7.554   9.223  -0.021  0.00  0.00    -0.180 NA
ATOM     26  N   UNL     1       6.650  10.292  -0.006  0.00  0.00    -0.260 N 
ATOM     27  H   UNL     1       6.890  11.263  -0.003  0.00  0.00    +0.191 HD
ATOM     28  C   UNL     1       5.386   9.782   0.003  0.00  0.00    +0.160 A 
ATOM     29  N   UNL     1       4.163  10.312   0.018  0.00  0.00    -0.216 NA
ATOM     30  C   UNL     1       3.098   9.541   0.025  0.00  0.00    +0.224 A 
ATOM     31  N   UNL     1       3.172   8.222   0.010  0.00  0.00    -0.228 NA
ENDBRANCH  21  22
ENDBRANCH  20  21
ENDBRANCH   7  20
TORSDOF 5
