REMARK  Name = ZINC65453140
REMARK  7 active torsions:
REMARK  status: ('A' for Active; 'I' for Inactive)
REMARK    1  A    between atoms: C_1  and  C_2
REMARK    2  A    between atoms: C_8  and  C_10
REMARK    3  A    between atoms: C_10  and  N_11
REMARK    4  A    between atoms: C_14  and  C_27
REMARK    5  A    between atoms: C_16  and  C_18
REMARK    6  A    between atoms: N_24  and  C_25
REMARK    7  A    between atoms: N_24  and  C_26
REMARK                            x       y       z     vdW  Elec       q    Type
REMARK                         _______ _______ _______ _____ _____    ______ ____
ROOT
ATOM      1  N   UNL     1       3.629  -1.617  -0.025  0.00  0.00    -0.274 NA
ATOM      2  C   UNL     1       3.773  -0.996   1.317  0.00  0.00    +0.170 C 
ATOM      3  N   UNL     1       5.163  -0.470   1.317  0.00  0.00    -0.295 NA
ATOM      4  C   UNL     1       5.950  -1.505   0.606  0.00  0.00    +0.107 C 
ATOM      5  C   UNL     1       4.940  -2.261  -0.278  0.00  0.00    +0.111 C 
ATOM      6  H   UNL     1       5.214   0.416   0.838  0.00  0.00    +0.124 HD
ENDROOT
BRANCH   5   7
ATOM      7  C   UNL     1       5.315  -2.124  -1.731  0.00  0.00    -0.012 A 
ATOM      8  C   UNL     1       5.042  -0.949  -2.419  0.00  0.00    +0.010 A 
ATOM      9  C   UNL     1       5.402  -0.864  -3.751  0.00  0.00    +0.042 A 
ATOM     10  C   UNL     1       6.022  -1.954  -4.355  0.00  0.00    +0.098 A 
ATOM     11  N   UNL     1       6.265  -3.058  -3.665  0.00  0.00    -0.349 N 
ATOM     12  C   UNL     1       5.938  -3.164  -2.391  0.00  0.00    +0.089 A 
ATOM     13  N   UNL     1       6.389  -1.883  -5.694  0.00  0.00    -0.323 N 
ATOM     14  C   UNL     1       6.005  -0.721  -6.498  0.00  0.00    +0.130 C 
ATOM     15  C   UNL     1       7.160  -2.971  -6.300  0.00  0.00    +0.130 C 
ATOM     16  H   UNL     1       6.698  -3.805  -4.107  0.00  0.00    +0.167 HD
ENDBRANCH   5   7
BRANCH   4  17
ATOM     17  C   UNL     1       7.010  -0.858  -0.248  0.00  0.00    -0.029 A 
ATOM     18  C   UNL     1       6.731   0.316  -0.924  0.00  0.00    +0.005 A 
ATOM     19  C   UNL     1       7.703   0.910  -1.707  0.00  0.00    +0.000 A 
ATOM     20  C   UNL     1       8.953   0.330  -1.815  0.00  0.00    +0.000 A 
ATOM     21  C   UNL     1       9.232  -0.843  -1.139  0.00  0.00    +0.000 A 
ATOM     22  C   UNL     1       8.262  -1.434  -0.352  0.00  0.00    +0.005 A 
ENDBRANCH   4  17
BRANCH   1  23
ATOM     23  C   UNL     1       2.545  -2.610  -0.031  0.00  0.00    +0.160 C 
BRANCH  23  31
ATOM     24  C   UNL     1       0.041   1.585   0.027  0.00  0.00    +0.066 C 
ATOM     25  C   UNL     1       0.035   0.078   0.011  0.00  0.00    +0.045 A 
ATOM     26  C   UNL     1      -1.147  -0.599   0.008  0.00  0.00    +0.093 A 
ATOM     27  C   UNL     1      -1.118  -2.009  -0.008  0.00  0.00    +0.252 A 
ATOM     28  O   UNL     1      -2.153  -2.654  -0.011  0.00  0.00    -0.268 OA
ATOM     29  N   UNL     1       0.081  -2.630  -0.020  0.00  0.00    -0.310 N 
ATOM     30  H   UNL     1       0.127  -3.598  -0.032  0.00  0.00    +0.170 HD
ATOM     31  C   UNL     1       1.215  -1.901  -0.017  0.00  0.00    +0.124 A 
ATOM     32  N   UNL     1       1.188  -0.595  -0.007  0.00  0.00    -0.238 NA
ENDBRANCH  23  31
ENDBRANCH   1  23
TORSDOF 4
