REMARK  Name = ZINC36206465
REMARK  19 active torsions:
REMARK  status: ('A' for Active; 'I' for Inactive)
REMARK    1  A    between atoms: C_1  and  C_2
REMARK    2  A    between atoms: C_5  and  C_9
REMARK    3  A    between atoms: C_6  and  C_8
REMARK    4  A    between atoms: C_18  and  C_20
REMARK    5  A    between atoms: C_20  and  N_21
REMARK    6  A    between atoms: N_21  and  C_22
REMARK    7  A    between atoms: N_21  and  C_27
REMARK    8  A    between atoms: C_22  and  C_23
REMARK    9  A    between atoms: C_23  and  C_24
REMARK   10  A    between atoms: C_24  and  O_25
REMARK   11  A    between atoms: O_25  and  C_26
REMARK   12  A    between atoms: C_27  and  C_28
REMARK   13  A    between atoms: C_28  and  C_30
REMARK   14  A    between atoms: C_28  and  O_36
REMARK   15  A    between atoms: C_30  and  O_31
REMARK   16  A    between atoms: O_31  and  C_32
REMARK   17  A    between atoms: C_32  and  C_33
REMARK   18  A    between atoms: C_32  and  C_34
REMARK   19  A    between atoms: C_32  and  C_35
REMARK                            x       y       z     vdW  Elec       q    Type
REMARK                         _______ _______ _______ _____ _____    ______ ____
ROOT
ATOM      1  C   UNL     1      -3.984  -6.988   7.592  0.00  0.00    +0.004 A 
ATOM      2  C   UNL     1      -3.477  -8.052   8.260  0.00  0.00    +0.056 A 
ATOM      3  S   UNL     1      -3.016  -9.176   6.956  0.00  0.00    -0.076 S 
ATOM      4  C   UNL     1      -3.511  -8.202   5.558  0.00  0.00    +0.116 A 
ATOM      5  C   UNL     1      -4.027  -7.030   6.135  0.00  0.00    +0.080 A 
ATOM      6  C   UNL     1      -4.513  -6.048   5.214  0.00  0.00    +0.260 A 
ATOM      7  O   UNL     1      -4.976  -4.995   5.619  0.00  0.00    -0.267 OA
ATOM      8  N   UNL     1      -4.452  -6.305   3.894  0.00  0.00    -0.312 N 
ATOM      9  H   UNL     1      -4.780  -5.643   3.266  0.00  0.00    +0.170 HD
ATOM     10  C   UNL     1      -3.940  -7.471   3.426  0.00  0.00    +0.094 A 
ATOM     11  N   UNL     1      -3.479  -8.382   4.240  0.00  0.00    -0.229 NA
ENDROOT
BRANCH   1  16
ATOM     12  C   UNL     1      -5.955  -2.395  10.451  0.00  0.00    +0.044 C 
ATOM     13  C   UNL     1      -5.439  -3.597   9.703  0.00  0.00    -0.050 A 
ATOM     14  C   UNL     1      -4.095  -3.918   9.758  0.00  0.00    +0.004 A 
ATOM     15  C   UNL     1      -3.617  -5.018   9.075  0.00  0.00    +0.009 A 
ATOM     16  C   UNL     1      -4.492  -5.805   8.328  0.00  0.00    -0.014 A 
ATOM     17  C   UNL     1      -5.845  -5.477   8.276  0.00  0.00    -0.042 A 
ATOM     18  C   UNL     1      -6.313  -4.378   8.968  0.00  0.00    +0.007 A 
ATOM     19  C   UNL     1      -6.797  -6.323   7.471  0.00  0.00    +0.044 C 
ENDBRANCH   1  16
BRANCH  10  20
ATOM     20  C   UNL     1      -3.891  -7.715   1.939  0.00  0.00    -0.003 C 
BRANCH  20  21
ATOM     21  N   UNL     1      -3.432  -9.086   1.682  0.00  0.00    +0.386 N 
ATOM     22  H   UNL     1      -2.564  -9.247   2.171  0.00  0.00    -0.081 HD
BRANCH  21  23
ATOM     23  C   UNL     1      -3.223  -9.271   0.240  0.00  0.00    -0.076 C 
BRANCH  23  24
ATOM     24  C   UNL     1      -2.077  -8.371  -0.228  0.00  0.00    +0.009 C 
BRANCH  24  25
ATOM     25  C   UNL     1      -1.762  -8.668  -1.696  0.00  0.00    +0.157 C 
BRANCH  25  26
ATOM     26  O   UNL     1      -0.692  -7.828  -2.133  0.00  0.00    -0.383 OA
ATOM     27  C   UNL     1      -0.318  -8.026  -3.498  0.00  0.00    +0.193 C 
ENDBRANCH  25  26
ENDBRANCH  24  25
ENDBRANCH  23  24
ENDBRANCH  21  23
BRANCH  21  28
ATOM     28  C   UNL     1      -4.445 -10.039   2.156  0.00  0.00    -0.044 C 
BRANCH  28  29
ATOM     29  C   UNL     1      -3.914 -11.466   2.003  0.00  0.00    +0.124 C 
BRANCH  29  30
ATOM     30  O   UNL     1      -2.789 -11.650   2.865  0.00  0.00    -0.391 OA
ATOM     31  H   UNL     1      -2.986 -11.518   3.802  0.00  0.00    +0.210 HD
ENDBRANCH  29  30
BRANCH  29  32
ATOM     32  C   UNL     1      -5.013 -12.462   2.378  0.00  0.00    +0.189 C 
BRANCH  32  33
ATOM     33  O   UNL     1      -4.557 -13.792   2.125  0.00  0.00    -0.372 OA
BRANCH  33  34
ATOM     34  C   UNL     1      -5.513 -14.805   2.443  0.00  0.00    +0.061 C 
ATOM     35  C   UNL     1      -6.777 -14.594   1.607  0.00  0.00    +0.041 C 
ATOM     36  C   UNL     1      -4.921 -16.181   2.134  0.00  0.00    +0.041 C 
ATOM     37  C   UNL     1      -5.866 -14.724   3.930  0.00  0.00    +0.041 C 
ENDBRANCH  33  34
ENDBRANCH  32  33
ENDBRANCH  29  32
ENDBRANCH  28  29
ENDBRANCH  21  28
ENDBRANCH  20  21
ENDBRANCH  10  20
TORSDOF 13
