REMARK  Name = ZINC14943580
REMARK  7 active torsions:
REMARK  status: ('A' for Active; 'I' for Inactive)
REMARK    1  A    between atoms: C_1  and  C_2
REMARK    2  A    between atoms: C_2  and  C_3
REMARK    3  A    between atoms: C_2  and  C_4
REMARK    4  A    between atoms: C_4  and  C_5
REMARK    5  A    between atoms: N_13  and  C_16
REMARK    6  A    between atoms: N_25  and  C_28
REMARK    7  A    between atoms: C_28  and  C_29
REMARK                            x       y       z     vdW  Elec       q    Type
REMARK                         _______ _______ _______ _____ _____    ______ ____
ROOT
ATOM      1  C   UNL     1      -0.075   0.012   0.076  0.00  0.00    +0.068 C 
ATOM      2  C   UNL     1      -1.513  -0.467   0.253  0.00  0.00    +0.107 C 
ATOM      3  C   UNL     1      -1.184  -1.945   0.681  0.00  0.00    +0.122 C 
ATOM      4  C   UNL     1      -2.459  -2.599   0.509  0.00  0.00    +0.228 C 
ATOM      5  O   UNL     1      -2.913  -3.516   1.160  0.00  0.00    -0.275 OA
ATOM      6  N   UNL     1      -3.044  -1.956  -0.554  0.00  0.00    -0.245 N 
ATOM      7  C   UNL     1      -2.366  -0.823  -0.924  0.00  0.00    +0.227 C 
ATOM      8  O   UNL     1      -2.441  -0.235  -1.981  0.00  0.00    -0.275 OA
ATOM      9  C   UNL     1      -4.260  -2.429  -1.221  0.00  0.00    +0.141 C 
ATOM     10  C   UNL     1      -0.043  -1.850   1.586  0.00  0.00    +0.136 C 
ATOM     11  N   UNL     1       0.567  -0.504   1.337  0.00  0.00    -0.295 NA
ATOM     12  C   UNL     1       1.013  -2.908   1.379  0.00  0.00    +0.004 A 
ATOM     13  C   UNL     1       1.732  -3.316   0.278  0.00  0.00    +0.008 A 
ATOM     14  C   UNL     1       2.657  -4.338   0.397  0.00  0.00    +0.000 A 
ATOM     15  C   UNL     1       2.857  -4.947   1.623  0.00  0.00    +0.002 A 
ATOM     16  C   UNL     1       2.136  -4.542   2.727  0.00  0.00    +0.024 A 
ATOM     17  C   UNL     1       1.202  -3.515   2.616  0.00  0.00    +0.042 A 
ATOM     18  N   UNL     1       0.364  -2.936   3.570  0.00  0.00    -0.265 N 
ATOM     19  C   UNL     1      -0.398  -1.957   3.051  0.00  0.00    +0.246 C 
ATOM     20  O   UNL     1      -1.215  -1.286   3.647  0.00  0.00    -0.273 OA
ATOM     21  H   UNL     1       1.655  -0.580   1.189  0.00  0.00    +0.123 HD
ENDROOT
BRANCH   1  22
ATOM     22  C   UNL     1      -0.009   1.539   0.011  0.00  0.00    +0.022 C 
BRANCH  22  24
ATOM     23  C   UNL     1      -0.777   3.557  -1.247  0.00  0.00    +0.007 C 
ATOM     24  C   UNL     1      -0.724   2.028  -1.251  0.00  0.00    -0.016 C 
ATOM     25  C   UNL     1       0.039   1.547  -2.487  0.00  0.00    +0.007 C 
ENDBRANCH  22  24
ENDBRANCH   1  22
BRANCH  18  26
ATOM     26  C   UNL     1       0.319  -3.349   4.975  0.00  0.00    +0.149 C 
BRANCH  26  27
ATOM     27  C   UNL     1      -0.706  -4.440   5.146  0.00  0.00    -0.028 A 
ATOM     28  C   UNL     1      -2.017  -4.116   5.445  0.00  0.00    +0.007 A 
ATOM     29  C   UNL     1      -2.959  -5.116   5.597  0.00  0.00    +0.022 A 
ATOM     30  C   UNL     1      -2.589  -6.442   5.460  0.00  0.00    +0.059 A 
ATOM     31  C   UNL     1      -1.275  -6.766   5.166  0.00  0.00    +0.060 A 
ATOM     32  C   UNL     1      -0.335  -5.764   5.009  0.00  0.00    +0.026 A 
ATOM     33 CL   UNL     1      -0.809  -8.430   4.994  0.00  0.00    -0.082 Cl
ATOM     34 CL   UNL     1      -3.771  -7.698   5.657  0.00  0.00    -0.082 Cl
ENDBRANCH  26  27
ENDBRANCH  18  26
TORSDOF 4
