REMARK  Name = ZINC63807617
REMARK  11 active torsions:
REMARK  status: ('A' for Active; 'I' for Inactive)
REMARK    1  A    between atoms: C_1  and  N_2
REMARK    2  A    between atoms: N_2  and  C_3
REMARK    3  A    between atoms: N_2  and  C_4
REMARK    4  A    between atoms: C_4  and  C_6
REMARK    5  A    between atoms: C_4  and  C_32
REMARK    6  A    between atoms: C_6  and  N_7
REMARK    7  A    between atoms: C_8  and  C_10
REMARK    8  A    between atoms: C_10  and  C_12
REMARK    9  A    between atoms: C_10  and  N_22
REMARK   10  A    between atoms: C_12  and  C_13
REMARK   11  A    between atoms: C_23  and  C_25
REMARK                            x       y       z     vdW  Elec       q    Type
REMARK                         _______ _______ _______ _____ _____    ______ ____
ROOT
ATOM      1  C   UNL     1      -1.974   3.741  -2.262  0.00  0.00    +0.163 C 
ENDROOT
BRANCH   1   3
ATOM      2  N   UNL     1      -1.766   1.531  -1.169  0.00  0.00    -0.315 N 
ATOM      3  C   UNL     1      -2.260   2.263  -2.188  0.00  0.00    +0.234 C 
ATOM      4  O   UNL     1      -2.935   1.732  -3.045  0.00  0.00    -0.274 OA
ATOM      5  H   UNL     1      -1.227   1.956  -0.484  0.00  0.00    +0.149 HD
BRANCH   2   6
ATOM      6  C   UNL     1      -2.044   0.095  -1.098  0.00  0.00    +0.094 C 
BRANCH   6   7
ATOM      7  C   UNL     1      -1.280  -0.514   0.080  0.00  0.00    -0.014 C 
BRANCH   7   8
ATOM      8  C   UNL     1      -1.797   0.069   1.370  0.00  0.00    -0.022 A 
ATOM      9  C   UNL     1      -1.272   1.061   2.129  0.00  0.00    +0.009 A 
ATOM     10  C   UNL     1      -1.926   1.437   3.287  0.00  0.00    +0.008 A 
ATOM     11  C   UNL     1      -3.074   0.803   3.629  0.00  0.00    +0.045 A 
ATOM     12  S   UNL     1      -3.265  -0.362   2.290  0.00  0.00    -0.103 S 
ENDBRANCH   7   8
BRANCH   7  14
ATOM     13  C   UNL     1      -0.939  -2.543  -1.154  0.00  0.00    -0.096 C 
ATOM     14  N   UNL     1      -1.474  -1.971   0.089  0.00  0.00    +0.382 N 
ATOM     15  C   UNL     1      -0.768  -2.551   1.239  0.00  0.00    -0.096 C 
ATOM     16  H   UNL     1      -2.459  -2.178   0.158  0.00  0.00    -0.082 HD
ENDBRANCH   7  14
ENDBRANCH   6   7
ENDBRANCH   2   6
ENDBRANCH   1   3
BRANCH   1  17
ATOM     17  N   UNL     1      -2.617   4.304  -3.451  0.00  0.00    -0.300 N 
ATOM     18  C   UNL     1      -2.129   5.427  -4.013  0.00  0.00    +0.245 C 
ATOM     19  O   UNL     1      -1.155   5.974  -3.533  0.00  0.00    -0.270 OA
ATOM     20  H   UNL     1      -3.394   3.868  -3.835  0.00  0.00    +0.150 HD
BRANCH  18  21
ATOM     21  C   UNL     1      -2.777   5.995  -5.213  0.00  0.00    +0.037 A 
ATOM     22  C   UNL     1      -3.900   5.372  -5.764  0.00  0.00    +0.016 A 
ATOM     23  C   UNL     1      -4.501   5.906  -6.883  0.00  0.00    +0.039 A 
ATOM     24  C   UNL     1      -3.993   7.059  -7.463  0.00  0.00    +0.123 A 
ATOM     25  C   UNL     1      -2.879   7.681  -6.921  0.00  0.00    +0.039 A 
ATOM     26  C   UNL     1      -2.274   7.159  -5.798  0.00  0.00    +0.016 A 
ATOM     27  F   UNL     1      -4.586   7.577  -8.561  0.00  0.00    -0.205 F 
ENDBRANCH  18  21
ENDBRANCH   1  17
BRANCH   1  28
ATOM     28  C   UNL     1      -2.523   4.430  -1.011  0.00  0.00    +0.065 C 
BRANCH  28  29
ATOM     29  C   UNL     1      -2.131   5.885  -1.026  0.00  0.00    -0.039 C 
ATOM     30  C   UNL     1      -2.872   6.922  -1.476  0.00  0.00    -0.001 A 
ATOM     31  C   UNL     1      -4.214   7.004  -2.066  0.00  0.00    +0.010 A 
ATOM     32  C   UNL     1      -4.699   8.213  -2.428  0.00  0.00    +0.001 A 
ATOM     33  C   UNL     1      -3.954   9.388  -2.256  0.00  0.00    +0.002 A 
ATOM     34  C   UNL     1      -2.714   9.393  -1.721  0.00  0.00    +0.026 A 
ATOM     35  C   UNL     1      -2.106   8.177  -1.304  0.00  0.00    +0.043 A 
ATOM     36  N   UNL     1      -0.937   7.925  -0.768  0.00  0.00    -0.380 N 
ATOM     37  C   UNL     1      -0.831   6.481  -0.533  0.00  0.00    +0.144 C 
ATOM     38  H   UNL     1      -0.257   8.584  -0.557  0.00  0.00    +0.160 HD
ENDBRANCH  28  29
ENDBRANCH   1  28
TORSDOF 9
