REMARK  Name = ZINC66691252
REMARK  6 active torsions:
REMARK  status: ('A' for Active; 'I' for Inactive)
REMARK    1  A    between atoms: C_1  and  C_2
REMARK    2  A    between atoms: C_2  and  C_4
REMARK    3  A    between atoms: C_2  and  S_20
REMARK    4  A    between atoms: C_10  and  C_13
REMARK    5  A    between atoms: S_20  and  C_21
REMARK    6  A    between atoms: C_24  and  N_27
REMARK                            x       y       z     vdW  Elec       q    Type
REMARK                         _______ _______ _______ _____ _____    ______ ____
ROOT
ATOM      1  C   UNL     1       0.862  -0.538   1.155  0.00  0.00    +0.229 C 
ATOM      2  O   UNL     1       2.024  -0.833   0.971  0.00  0.00    -0.274 OA
ATOM      3  N   UNL     1       0.315  -0.685   2.378  0.00  0.00    -0.296 N 
ATOM      4  C   UNL     1      -1.094  -0.341   2.624  0.00  0.00    +0.136 C 
ATOM      5  C   UNL     1      -1.161   0.575   3.852  0.00  0.00    +0.179 C 
ATOM      6  O   UNL     1      -0.460  -0.040   4.936  0.00  0.00    -0.369 OA
ATOM      7  C   UNL     1       0.935  -0.238   4.692  0.00  0.00    +0.168 C 
ATOM      8  C   UNL     1       1.108  -1.200   3.506  0.00  0.00    +0.144 C 
ENDROOT
BRANCH   7   9
ATOM      9  C   UNL     1       1.581  -0.831   5.918  0.00  0.00    +0.018 A 
ATOM     10  C   UNL     1       0.824  -1.564   6.812  0.00  0.00    +0.009 A 
ATOM     11  C   UNL     1       1.416  -2.107   7.937  0.00  0.00    +0.001 A 
ATOM     12  C   UNL     1       2.766  -1.919   8.168  0.00  0.00    +0.003 A 
ATOM     13  C   UNL     1       3.525  -1.186   7.275  0.00  0.00    +0.039 A 
ATOM     14  C   UNL     1       2.934  -0.646   6.146  0.00  0.00    +0.129 A 
ATOM     15  F   UNL     1       3.676   0.066   5.270  0.00  0.00    -0.205 F 
ENDBRANCH   7   9
BRANCH   1  17
ATOM     16  C   UNL     1       0.041   1.521   0.044  0.00  0.00    +0.029 C 
ATOM     17  C   UNL     1       0.029  -0.009   0.016  0.00  0.00    +0.134 C 
BRANCH  17  18
ATOM     18  S   UNL     1       0.718  -0.591  -1.558  0.00  0.00    -0.113 S 
BRANCH  18  19
ATOM     19  C   UNL     1       0.405  -2.325  -1.546  0.00  0.00    +0.009 A 
ATOM     20  C   UNL     1      -0.355  -2.888  -0.528  0.00  0.00    +0.017 A 
ATOM     21  C   UNL     1      -0.598  -4.247  -0.521  0.00  0.00    +0.034 A 
ATOM     22  C   UNL     1      -0.086  -5.048  -1.526  0.00  0.00    +0.126 A 
ATOM     23  C   UNL     1       0.672  -4.491  -2.540  0.00  0.00    +0.034 A 
ATOM     24  C   UNL     1       0.914  -3.131  -2.556  0.00  0.00    +0.017 A 
BRANCH  22  25
ATOM     25  N   UNL     1      -0.348  -6.504  -1.515  0.00  0.00    +0.056 N 
ATOM     26  O   UNL     1      -1.010  -6.993  -0.629  0.00  0.00    -0.126 OA
ATOM     27  O   UNL     1       0.099  -7.205  -2.392  0.00  0.00    -0.126 OA
ENDBRANCH  22  25
ENDBRANCH  18  19
ENDBRANCH  17  18
ENDBRANCH   1  17
TORSDOF 5
