REMARK  Name = ZINC64689722
REMARK  5 active torsions:
REMARK  status: ('A' for Active; 'I' for Inactive)
REMARK    1  A    between atoms: C_3  and  C_8
REMARK    2  A    between atoms: C_8  and  C_14
REMARK    3  A    between atoms: C_14  and  O_16
REMARK    4  A    between atoms: O_16  and  C_17
REMARK    5  A    between atoms: C_20  and  N_23
REMARK                            x       y       z     vdW  Elec       q    Type
REMARK                         _______ _______ _______ _____ _____    ______ ____
ROOT
ATOM      1  C   UNL     1       3.727   3.022   1.227  0.00  0.00    +0.323 C 
ATOM      2  O   UNL     1       4.612   2.845   2.030  0.00  0.00    -0.249 OA
ENDROOT
BRANCH   1   3
ATOM      3  C   UNL     1       3.644   2.158  -0.005  0.00  0.00    +0.097 C 
ATOM      4  C   UNL     1       3.756   3.036  -1.256  0.00  0.00    +0.051 C 
ATOM      5  C   UNL     1       5.127   3.716  -1.272  0.00  0.00    +0.161 C 
ATOM      6  O   UNL     1       6.151   2.720  -1.235  0.00  0.00    -0.380 OA
ATOM      7  C   UNL     1       6.126   1.900  -0.065  0.00  0.00    +0.161 C 
ATOM      8  C   UNL     1       4.795   1.147  -0.000  0.00  0.00    +0.051 C 
BRANCH   3  11
ATOM      9  C   UNL     1      -0.066   1.461  -0.040  0.00  0.00    +0.002 A 
ATOM     10  C   UNL     1       1.142   2.133  -0.026  0.00  0.00    +0.005 A 
ATOM     11  C   UNL     1       2.328   1.424  -0.020  0.00  0.00    -0.029 A 
ATOM     12  C   UNL     1       2.308   0.042  -0.027  0.00  0.00    +0.024 A 
ATOM     13  C   UNL     1       1.100  -0.631  -0.040  0.00  0.00    +0.041 A 
ATOM     14  C   UNL     1      -0.088   0.079  -0.046  0.00  0.00    +0.020 A 
ATOM     15 CL   UNL     1       1.073  -2.367  -0.050  0.00  0.00    -0.084 Cl
ENDBRANCH   3  11
ENDBRANCH   1   3
BRANCH   1  16
ATOM     16  O   UNL     1       2.816   3.986   1.433  0.00  0.00    -0.425 OA
BRANCH  16  17
ATOM     17  C   UNL     1       2.867   4.673   2.606  0.00  0.00    +0.132 A 
ATOM     18  C   UNL     1       3.823   5.662   2.789  0.00  0.00    +0.048 A 
ATOM     19  C   UNL     1       3.875   6.359   3.980  0.00  0.00    +0.031 A 
ATOM     20  C   UNL     1       2.971   6.070   4.993  0.00  0.00    +0.069 A 
ATOM     21  C   UNL     1       2.014   5.081   4.809  0.00  0.00    +0.031 A 
ATOM     22  C   UNL     1       1.960   4.388   3.616  0.00  0.00    +0.048 A 
BRANCH  20  23
ATOM     23  N   UNL     1       3.024   6.778   6.204  0.00  0.00    -0.200 N 
ATOM     24  C   UNL     1       2.228   6.618   7.283  0.00  0.00    +0.250 A 
ATOM     25  N   UNL     1       2.621   7.477   8.186  0.00  0.00    -0.116 NA
ATOM     26  N   UNL     1       3.611   8.170   7.752  0.00  0.00    -0.023 NA
ATOM     27  N   UNL     1       3.921   7.802   6.555  0.00  0.00    -0.039 NA
ENDBRANCH  20  23
ENDBRANCH  16  17
ENDBRANCH   1  16
TORSDOF 5
