REMARK  Name = ZINC00896650
REMARK  6 active torsions:
REMARK  status: ('A' for Active; 'I' for Inactive)
REMARK    1  A    between atoms: C_1  and  N_52
REMARK    2  A    between atoms: C_6  and  C_8
REMARK    3  A    between atoms: C_8  and  C_9
REMARK    4  A    between atoms: C_9  and  N_10
REMARK    5  A    between atoms: C_21  and  S_24
REMARK    6  A    between atoms: S_24  and  C_26
REMARK                            x       y       z     vdW  Elec       q    Type
REMARK                         _______ _______ _______ _____ _____    ______ ____
ROOT
ATOM      1  N   UNL     1       1.049  -1.882   0.169  0.00  0.00    -0.298 N 
ATOM      2  C   UNL     1       2.162  -2.638  -0.190  0.00  0.00    +0.048 A 
ATOM      3  C   UNL     1       1.980  -3.966  -0.561  0.00  0.00    +0.024 A 
ATOM      4  C   UNL     1       3.064  -4.745  -0.919  0.00  0.00    +0.002 A 
ATOM      5  C   UNL     1       4.338  -4.210  -0.912  0.00  0.00    +0.001 A 
ATOM      6  C   UNL     1       4.531  -2.891  -0.546  0.00  0.00    +0.017 A 
ATOM      7  C   UNL     1       3.447  -2.102  -0.187  0.00  0.00    +0.034 A 
ATOM      8  S   UNL     1       3.710  -0.421   0.270  0.00  0.00    -0.086 S 
ATOM      9  C   UNL     1       2.112   0.308   0.146  0.00  0.00    +0.034 A 
ATOM     10  C   UNL     1       0.974  -0.493   0.105  0.00  0.00    +0.049 A 
ATOM     11  C   UNL     1      -0.276   0.108   0.002  0.00  0.00    +0.041 A 
ATOM     12  C   UNL     1      -0.387   1.484  -0.059  0.00  0.00    +0.040 A 
ATOM     13  C   UNL     1       0.745   2.275  -0.015  0.00  0.00    +0.018 A 
ATOM     14  C   UNL     1       1.994   1.689   0.088  0.00  0.00    +0.018 A 
ENDROOT
BRANCH  12  15
ATOM     15  S   UNL     1      -1.976   2.232  -0.200  0.00  0.00    +0.051 S 
ATOM     16  O   UNL     1      -1.711   3.490  -0.805  0.00  0.00    -0.252 OA
ATOM     17  C   UNL     1      -2.495   2.486   1.519  0.00  0.00    +0.127 C 
ENDBRANCH  12  15
BRANCH   1  18
ATOM     18  C   UNL     1      -0.133  -2.603   0.648  0.00  0.00    +0.109 C 
BRANCH  18  19
ATOM     19  C   UNL     1      -1.039  -2.942  -0.537  0.00  0.00    +0.004 C 
BRANCH  19  25
ATOM     20  C   UNL     1      -3.555  -2.707  -1.776  0.00  0.00    -0.096 C 
ATOM     21  C   UNL     1      -4.348  -4.736  -0.720  0.00  0.00    -0.079 C 
ATOM     22  C   UNL     1      -3.917  -6.116  -0.217  0.00  0.00    -0.019 C 
ATOM     23  C   UNL     1      -2.936  -5.946   0.946  0.00  0.00    -0.003 C 
ATOM     24  C   UNL     1      -1.738  -5.117   0.475  0.00  0.00    -0.015 C 
ATOM     25  C   UNL     1      -2.232  -3.766  -0.047  0.00  0.00    -0.067 C 
ATOM     26  N   UNL     1      -3.152  -3.998  -1.180  0.00  0.00    +0.380 N 
ATOM     27  H   UNL     1      -2.670  -4.558  -1.893  0.00  0.00    -0.082 HD
ENDBRANCH  19  25
ENDBRANCH  18  19
ENDBRANCH   1  18
TORSDOF 4
