REMARK  Name = ZINC05581871
REMARK  11 active torsions:
REMARK  status: ('A' for Active; 'I' for Inactive)
REMARK    1  A    between atoms: C_1  and  C_2
REMARK    2  A    between atoms: C_2  and  C_3
REMARK    3  A    between atoms: C_7  and  C_28
REMARK    4  A    between atoms: C_8  and  N_9
REMARK    5  A    between atoms: C_10  and  C_12
REMARK    6  A    between atoms: C_12  and  C_14
REMARK    7  A    between atoms: C_12  and  S_15
REMARK    8  A    between atoms: S_15  and  C_16
REMARK    9  A    between atoms: C_19  and  C_22
REMARK   10  A    between atoms: N_20  and  N_21
REMARK   11  A    between atoms: C_28  and  C_29
REMARK                            x       y       z     vdW  Elec       q    Type
REMARK                         _______ _______ _______ _____ _____    ______ ____
ROOT
ATOM      1  C   UNL     1       4.558   2.714   1.078  0.00  0.00    +0.137 C 
ATOM      2  C   UNL     1       5.668   1.660   1.097  0.00  0.00    +0.029 C 
ENDROOT
BRANCH   1   4
ATOM      3  N   UNL     1       2.558   1.397   1.695  0.00  0.00    -0.284 N 
ATOM      4  C   UNL     1       3.474   2.320   2.048  0.00  0.00    +0.230 C 
ATOM      5  O   UNL     1       3.427   2.833   3.146  0.00  0.00    -0.274 OA
ATOM      6  H   UNL     1       2.582   1.002   0.809  0.00  0.00    +0.155 HD
BRANCH   3  12
ATOM      7  C   UNL     1       0.245   0.919   2.202  0.00  0.00    -0.026 A 
ATOM      8  C   UNL     1      -0.727   0.530   3.103  0.00  0.00    +0.005 A 
ATOM      9  C   UNL     1      -0.382   0.233   4.408  0.00  0.00    +0.001 A 
ATOM     10  C   UNL     1       0.936   0.324   4.816  0.00  0.00    +0.005 A 
ATOM     11  C   UNL     1       1.912   0.713   3.920  0.00  0.00    -0.026 A 
ATOM     12  C   UNL     1       1.570   1.008   2.607  0.00  0.00    +0.040 A 
BRANCH   7  14
ATOM     13  C   UNL     1       0.071   0.005  -0.097  0.00  0.00    +0.009 C 
ATOM     14  C   UNL     1      -0.132   1.243   0.779  0.00  0.00    +0.033 C 
ENDBRANCH   7  14
BRANCH  11  15
ATOM     15  C   UNL     1       3.349   0.812   4.366  0.00  0.00    +0.033 C 
ATOM     16  C   UNL     1       3.430   1.654   5.641  0.00  0.00    +0.009 C 
ENDBRANCH  11  15
ENDBRANCH   3  12
ENDBRANCH   1   4
BRANCH   1  17
ATOM     17  S   UNL     1       5.242   4.319   1.558  0.00  0.00    -0.072 S 
BRANCH  17  18
ATOM     18  C   UNL     1       6.343   4.598   0.210  0.00  0.00    +0.209 A 
ATOM     19  N   UNL     1       6.546   3.797  -0.810  0.00  0.00    -0.121 NA
ATOM     20  N   UNL     1       7.413   4.315  -1.606  0.00  0.00    -0.132 NA
ATOM     21  C   UNL     1       7.817   5.463  -1.140  0.00  0.00    +0.154 A 
ATOM     22  N   UNL     1       7.151   5.684   0.033  0.00  0.00    -0.228 N 
BRANCH  21  23
ATOM     23  C   UNL     1       8.832   6.377  -1.777  0.00  0.00    +0.059 C 
ATOM     24  C   UNL     1       8.341   6.796  -3.164  0.00  0.00    +0.011 C 
ATOM     25  C   UNL     1       9.371   7.724  -3.811  0.00  0.00    +0.001 C 
ATOM     26  C   UNL     1      10.707   6.990  -3.943  0.00  0.00    +0.000 C 
ATOM     27  C   UNL     1      11.198   6.571  -2.556  0.00  0.00    +0.001 C 
ATOM     28  C   UNL     1      10.168   5.643  -1.909  0.00  0.00    +0.011 C 
ENDBRANCH  21  23
BRANCH  22  29
ATOM     29  N   UNL     1       7.269   6.768   0.857  0.00  0.00    -0.295 N 
ATOM     30  H   UNL     1       7.988   6.620   1.548  0.00  0.00    +0.163 HD
ATOM     31  H   UNL     1       7.444   7.608   0.327  0.00  0.00    +0.163 HD
ENDBRANCH  22  29
ENDBRANCH  17  18
ENDBRANCH   1  17
TORSDOF 8
