REMARK  Name = ZINC67625326
REMARK  7 active torsions:
REMARK  status: ('A' for Active; 'I' for Inactive)
REMARK    1  A    between atoms: C_1  and  C_2
REMARK    2  A    between atoms: C_3  and  C_8
REMARK    3  A    between atoms: N_6  and  C_7
REMARK    4  A    between atoms: C_8  and  C_10
REMARK    5  A    between atoms: C_8  and  N_11
REMARK    6  A    between atoms: C_17  and  N_20
REMARK    7  A    between atoms: N_20  and  C_21
REMARK                            x       y       z     vdW  Elec       q    Type
REMARK                         _______ _______ _______ _____ _____    ______ ____
ROOT
ATOM      1  N   UNL     1       0.478  -1.401  -3.398  0.00  0.00    -0.293 N 
ATOM      2  C   UNL     1       1.028  -1.105  -4.592  0.00  0.00    +0.303 C 
ATOM      3  O   UNL     1       1.123   0.054  -4.947  0.00  0.00    -0.253 OA
ATOM      4  N   UNL     1       1.473  -2.093  -5.393  0.00  0.00    -0.284 N 
ATOM      5  C   UNL     1       1.414  -3.531  -5.093  0.00  0.00    +0.111 C 
ATOM      6  C   UNL     1       2.011  -4.277  -6.305  0.00  0.00    +0.043 C 
ATOM      7  C   UNL     1       1.853  -3.250  -7.457  0.00  0.00    +0.089 C 
ATOM      8  C   UNL     1       2.093  -1.912  -6.718  0.00  0.00    +0.131 C 
ATOM      9  H   UNL     1       0.402  -2.326  -3.115  0.00  0.00    +0.151 HD
ENDROOT
BRANCH   1  10
ATOM     10  C   UNL     1      -0.006  -0.327  -2.527  0.00  0.00    +0.105 C 
ATOM     11  C   UNL     1      -1.434   0.050  -2.927  0.00  0.00    +0.033 C 
BRANCH  10  14
ATOM     12  C   UNL     1      -0.018   1.503   0.010  0.00  0.00    +0.065 C 
ATOM     13  C   UNL     1       0.002  -0.004   0.002  0.00  0.00    +0.041 A 
ATOM     14  C   UNL     1       0.008  -0.796  -1.095  0.00  0.00    +0.013 A 
ATOM     15  C   UNL     1       0.028  -2.127  -0.666  0.00  0.00    +0.140 A 
ATOM     16  N   UNL     1       0.035  -2.134   0.643  0.00  0.00    -0.179 NA
ATOM     17  N   UNL     1       0.024  -0.805   1.088  0.00  0.00    -0.271 N 
ATOM     18  C   UNL     1       0.031  -0.364   2.485  0.00  0.00    +0.172 C 
ENDBRANCH  10  14
ENDBRANCH   1  10
BRANCH   7  19
ATOM     19  N   UNL     1       2.863  -3.468  -8.496  0.00  0.00    -0.339 N 
ATOM     20  H   UNL     1       3.702  -3.901  -8.274  0.00  0.00    +0.146 HD
BRANCH  19  21
ATOM     21  C   UNL     1       2.618  -3.051  -9.806  0.00  0.00    +0.027 A 
ATOM     22  C   UNL     1       1.419  -2.425 -10.125  0.00  0.00    +0.023 A 
ATOM     23  C   UNL     1       1.180  -2.014 -11.421  0.00  0.00    +0.002 A 
ATOM     24  C   UNL     1       2.132  -2.225 -12.402  0.00  0.00    +0.000 A 
ATOM     25  C   UNL     1       3.326  -2.848 -12.088  0.00  0.00    +0.002 A 
ATOM     26  C   UNL     1       3.574  -3.256 -10.793  0.00  0.00    +0.023 A 
ENDBRANCH  19  21
ENDBRANCH   7  19
TORSDOF 4
