REMARK  Name = ZINC19941648
REMARK  9 active torsions:
REMARK  status: ('A' for Active; 'I' for Inactive)
REMARK    1  A    between atoms: C_1  and  C_2
REMARK    2  A    between atoms: C_5  and  C_41
REMARK    3  A    between atoms: C_6  and  N_8
REMARK    4  A    between atoms: N_11  and  C_14
REMARK    5  A    between atoms: C_14  and  C_16
REMARK    6  A    between atoms: C_14  and  C_30
REMARK    7  A    between atoms: C_20  and  C_29
REMARK    8  A    between atoms: C_22  and  C_28
REMARK    9  A    between atoms: N_34  and  C_35
REMARK                            x       y       z     vdW  Elec       q    Type
REMARK                         _______ _______ _______ _____ _____    ______ ____
ROOT
ATOM      1  C   UNL     1       5.213   6.997   0.031  0.00  0.00    +0.162 C 
ENDROOT
BRANCH   1   2
ATOM      2  C   UNL     1       5.224   7.969   1.183  0.00  0.00    +0.042 A 
ATOM      3  C   UNL     1       5.340   9.299   0.944  0.00  0.00    +0.021 A 
ATOM      4  C   UNL     1       5.343  10.217   2.084  0.00  0.00    -0.001 A 
ATOM      5  C   UNL     1       5.456  11.599   1.901  0.00  0.00    +0.013 A 
ATOM      6  C   UNL     1       5.462  12.428   2.986  0.00  0.00    -0.050 A 
ATOM      7  C   UNL     1       5.356  11.912   4.270  0.00  0.00    +0.008 A 
ATOM      8  C   UNL     1       5.242  10.554   4.475  0.00  0.00    -0.026 A 
ATOM      9  C   UNL     1       5.235   9.690   3.385  0.00  0.00    +0.052 A 
ATOM     10  N   UNL     1       5.124   8.327   3.561  0.00  0.00    -0.322 N 
ATOM     11  H   UNL     1       5.040   7.908   4.574  0.00  0.00    +0.169 HD
ATOM     12  C   UNL     1       5.118   7.492   2.507  0.00  0.00    +0.254 A 
ATOM     13  O   UNL     1       5.018   6.292   2.700  0.00  0.00    -0.268 OA
ATOM     14  C   UNL     1       5.127  10.007   5.875  0.00  0.00    +0.046 C 
ATOM     15  C   UNL     1       5.584  13.917   2.787  0.00  0.00    +0.044 C 
ENDBRANCH   1   2
BRANCH   1  19
ATOM     16  N   UNL     1       1.568   5.032  -0.804  0.00  0.00    -0.327 N 
ATOM     17  C   UNL     1       2.795   4.224  -0.776  0.00  0.00    +0.120 C 
ATOM     18  C   UNL     1       4.009   5.139  -0.951  0.00  0.00    +0.104 C 
ATOM     19  N   UNL     1       4.019   6.145   0.121  0.00  0.00    -0.286 NA
ATOM     20  C   UNL     1       2.792   6.953   0.092  0.00  0.00    +0.104 C 
ATOM     21  C   UNL     1       1.578   6.038   0.267  0.00  0.00    +0.120 C 
BRANCH  16  27
ATOM     22  C   UNL     1      -1.170   1.841   1.740  0.00  0.00    +0.044 C 
ATOM     23  C   UNL     1      -0.920   2.664   0.503  0.00  0.00    -0.049 A 
ATOM     24  C   UNL     1      -1.817   2.621  -0.549  0.00  0.00    +0.004 A 
ATOM     25  C   UNL     1      -1.588   3.370  -1.688  0.00  0.00    +0.005 A 
ATOM     26  C   UNL     1      -0.467   4.172  -1.775  0.00  0.00    -0.029 A 
ATOM     27  C   UNL     1       0.433   4.222  -0.719  0.00  0.00    +0.033 A 
ATOM     28  C   UNL     1       0.203   3.464   0.422  0.00  0.00    +0.026 A 
ATOM     29  C   UNL     1      -0.222   4.993  -3.015  0.00  0.00    +0.045 C 
ENDBRANCH  16  27
ENDBRANCH   1  19
BRANCH   1  30
ATOM     30  C   UNL     1       6.449   6.138   0.088  0.00  0.00    +0.173 A 
ATOM     31  N   UNL     1       6.679   5.151   0.919  0.00  0.00    -0.111 NA
ATOM     32  N   UNL     1       7.841   4.665   0.649  0.00  0.00    -0.023 NA
ATOM     33  N   UNL     1       8.362   5.321  -0.328  0.00  0.00    -0.044 NA
ATOM     34  N   UNL     1       7.535   6.238  -0.702  0.00  0.00    -0.224 N 
BRANCH  34  35
ATOM     35  C   UNL     1       7.737   7.205  -1.783  0.00  0.00    +0.111 C 
ATOM     36  C   UNL     1       7.941   6.459  -3.104  0.00  0.00    +0.027 C 
ATOM     37  C   UNL     1       8.153   7.469  -4.233  0.00  0.00    +0.002 C 
ATOM     38  C   UNL     1       9.389   8.319  -3.932  0.00  0.00    +0.000 C 
ATOM     39  C   UNL     1       9.186   9.065  -2.611  0.00  0.00    +0.002 C 
ATOM     40  C   UNL     1       8.974   8.055  -1.482  0.00  0.00    +0.027 C 
ENDBRANCH  34  35
ENDBRANCH   1  30
TORSDOF 5
