REMARK  Name = ZINC20830077
REMARK  6 active torsions:
REMARK  status: ('A' for Active; 'I' for Inactive)
REMARK    1  A    between atoms: C_3  and  C_7
REMARK    2  A    between atoms: C_10  and  S_13
REMARK    3  A    between atoms: N_11  and  N_12
REMARK    4  A    between atoms: S_13  and  C_14
REMARK    5  A    between atoms: C_14  and  C_15
REMARK    6  A    between atoms: C_18  and  C_20
REMARK                            x       y       z     vdW  Elec       q    Type
REMARK                         _______ _______ _______ _____ _____    ______ ____
ROOT
ATOM      1  C   UNL     1      -0.123  -4.467   1.737  0.00  0.00    +0.183 A 
ATOM      2  N   UNL     1       0.002  -4.284   0.443  0.00  0.00    -0.127 NA
ATOM      3  N   UNL     1       0.193  -3.038   0.192  0.00  0.00    -0.121 NA
ATOM      4  C   UNL     1       0.213  -2.350   1.312  0.00  0.00    +0.209 A 
ATOM      5  N   UNL     1       0.009  -3.234   2.333  0.00  0.00    -0.224 N 
ENDROOT
BRANCH   1   8
ATOM      6  C   UNL     1      -1.026  -7.013   4.343  0.00  0.00    +0.020 A 
ATOM      7  C   UNL     1      -0.820  -5.782   3.745  0.00  0.00    +0.014 A 
ATOM      8  C   UNL     1      -0.359  -5.754   2.424  0.00  0.00    +0.039 A 
ATOM      9  C   UNL     1      -0.134  -6.963   1.763  0.00  0.00    +0.122 A 
ATOM     10  N   UNL     1      -0.339  -8.110   2.377  0.00  0.00    -0.263 NA
ATOM     11  C   UNL     1      -0.772  -8.166   3.622  0.00  0.00    +0.111 A 
ENDBRANCH   1   8
BRANCH   5  12
ATOM     12  N   UNL     1      -0.052  -2.952   3.668  0.00  0.00    -0.295 N 
ATOM     13  H   UNL     1       0.070  -1.917   4.018  0.00  0.00    +0.163 HD
ATOM     14  H   UNL     1      -0.222  -3.761   4.394  0.00  0.00    +0.163 HD
ENDBRANCH   5  12
BRANCH   4  15
ATOM     15  S   UNL     1       0.450  -0.611   1.466  0.00  0.00    -0.075 S 
BRANCH  15  16
ATOM     16  C   UNL     1       0.646  -0.165  -0.277  0.00  0.00    +0.175 C 
BRANCH  16  17
ATOM     17  C   UNL     1       0.868   1.321  -0.393  0.00  0.00    +0.228 A 
ATOM     18  N   UNL     1       2.020   1.931  -0.374  0.00  0.00    -0.111 NA
ATOM     19  N   UNL     1       1.837   3.199  -0.497  0.00  0.00    -0.107 NA
ATOM     20  C   UNL     1       0.551   3.443  -0.600  0.00  0.00    +0.248 A 
ATOM     21  O   UNL     1      -0.086   2.257  -0.541  0.00  0.00    -0.419 OA
BRANCH  20  22
ATOM     22  C   UNL     1      -0.079   4.771  -0.756  0.00  0.00    +0.039 A 
ATOM     23  C   UNL     1      -1.467   4.879  -0.859  0.00  0.00    +0.016 A 
ATOM     24  C   UNL     1      -2.051   6.121  -0.999  0.00  0.00    +0.039 A 
ATOM     25  C   UNL     1      -1.261   7.259  -1.049  0.00  0.00    +0.123 A 
ATOM     26  C   UNL     1       0.118   7.156  -0.953  0.00  0.00    +0.039 A 
ATOM     27  C   UNL     1       0.711   5.920  -0.807  0.00  0.00    +0.016 A 
ATOM     28  F   UNL     1      -1.838   8.472  -1.191  0.00  0.00    -0.205 F 
ENDBRANCH  20  22
ENDBRANCH  16  17
ENDBRANCH  15  16
ENDBRANCH   4  15
TORSDOF 6
