REMARK  Name = ZINC39468839
REMARK  2 active torsions:
REMARK  status: ('A' for Active; 'I' for Inactive)
REMARK    1  A    between atoms: C_11  and  C_17
REMARK    2  A    between atoms: C_22  and  C_23
REMARK                            x       y       z     vdW  Elec       q    Type
REMARK                         _______ _______ _______ _____ _____    ______ ____
ROOT
ATOM      1  C   UNL     1       0.190   1.011   1.361  0.00  0.00    +0.002 A 
ATOM      2  C   UNL     1       1.349   1.754   1.235  0.00  0.00    +0.002 A 
ATOM      3  C   UNL     1       2.550   1.125   0.966  0.00  0.00    +0.025 A 
ATOM      4  C   UNL     1       2.600  -0.255   0.811  0.00  0.00    +0.055 A 
ATOM      5  C   UNL     1       1.426  -1.002   0.925  0.00  0.00    +0.051 A 
ATOM      6  C   UNL     1       0.227  -0.361   1.209  0.00  0.00    +0.025 A 
ATOM      7  N   UNL     1       1.700  -2.359   0.691  0.00  0.00    -0.309 N 
ATOM      8  C   UNL     1       3.110  -2.457   0.312  0.00  0.00    +0.254 C 
ATOM      9  N   UNL     1       3.668  -1.115   0.577  0.00  0.00    -0.275 N 
ATOM     10  C   UNL     1       5.110  -0.847   0.627  0.00  0.00    +0.178 C 
ATOM     11  N   UNL     1       5.697  -1.922   1.456  0.00  0.00    -0.298 N 
ATOM     12  C   UNL     1       5.211  -3.208   1.284  0.00  0.00    +0.177 C 
ATOM     13  N   UNL     1       3.832  -3.399   1.187  0.00  0.00    -0.284 N 
ATOM     14  N   UNL     1       6.022  -4.225   1.202  0.00  0.00    -0.273 NA
ATOM     15  H   UNL     1       1.072  -3.094   0.767  0.00  0.00    +0.149 HD
ATOM     16  H   UNL     1       6.399  -1.734   2.099  0.00  0.00    +0.150 HD
ATOM     17  H   UNL     1       5.668  -5.120   1.082  0.00  0.00    +0.189 HD
ATOM     18  H   UNL     1       3.371  -4.099   1.675  0.00  0.00    +0.152 HD
ENDROOT
BRANCH  10  19
ATOM     19  C   UNL     1       5.702  -0.884  -0.784  0.00  0.00    +0.122 C 
ATOM     20  C   UNL     1       5.668  -2.293  -1.340  0.00  0.00    +0.121 C 
ATOM     21  N   UNL     1       6.899  -2.627  -1.554  0.00  0.00    -0.161 NA
ATOM     22  N   UNL     1       7.792  -1.617  -1.213  0.00  0.00    -0.153 NA
ATOM     23  C   UNL     1       7.180  -0.550  -0.751  0.00  0.00    +0.089 C 
BRANCH  23  24
ATOM     24  C   UNL     1       7.774   0.659  -0.314  0.00  0.00    +0.036 A 
ATOM     25  C   UNL     1       9.120   0.969  -0.163  0.00  0.00    +0.017 A 
ATOM     26  C   UNL     1       9.392   2.240   0.285  0.00  0.00    +0.008 A 
ATOM     27  C   UNL     1       8.361   3.082   0.543  0.00  0.00    +0.046 A 
ATOM     28  S   UNL     1       6.990   2.182   0.180  0.00  0.00    -0.095 S 
ENDBRANCH  23  24
ENDBRANCH  10  19
TORSDOF 2
