REMARK  Name = ZINC00710589
REMARK  11 active torsions:
REMARK  status: ('A' for Active; 'I' for Inactive)
REMARK    1  A    between atoms: C_1  and  C_2
REMARK    2  A    between atoms: C_2  and  C_3
REMARK    3  A    between atoms: C_8  and  N_9
REMARK    4  A    between atoms: C_10  and  C_12
REMARK    5  A    between atoms: C_12  and  S_13
REMARK    6  A    between atoms: S_13  and  C_14
REMARK    7  A    between atoms: C_15  and  C_36
REMARK    8  A    between atoms: C_16  and  C_31
REMARK    9  A    between atoms: C_18  and  C_22
REMARK   10  A    between atoms: C_19  and  C_21
REMARK   11  A    between atoms: N_24  and  C_25
REMARK                            x       y       z     vdW  Elec       q    Type
REMARK                         _______ _______ _______ _____ _____    ______ ____
ROOT
ATOM      1  C   UNL     1       4.910   8.376  -0.417  0.00  0.00    +0.093 C 
ATOM      2  C   UNL     1       5.104   9.720  -0.499  0.00  0.00    +0.161 C 
ATOM      3  C   UNL     1       6.481  10.303  -0.625  0.00  0.00    +0.115 C 
ATOM      4  C   UNL     1       7.528   9.288  -0.267  0.00  0.00    +0.048 C 
ATOM      5  C   UNL     1       7.245   7.976  -0.191  0.00  0.00    +0.048 C 
ATOM      6  N   UNL     1       5.983   7.514  -0.440  0.00  0.00    -0.248 NA
ATOM      7  C   UNL     1       8.336   6.999   0.163  0.00  0.00    +0.066 C 
ENDROOT
BRANCH   3   8
ATOM      8  C   UNL     1       6.691  10.750  -2.049  0.00  0.00    +0.114 A 
ATOM      9  C   UNL     1       6.964  12.005  -2.448  0.00  0.00    +0.045 A 
ATOM     10  C   UNL     1       7.082  11.971  -3.856  0.00  0.00    +0.041 A 
ATOM     11  C   UNL     1       6.873  10.697  -4.234  0.00  0.00    +0.195 A 
ATOM     12  O   UNL     1       6.643   9.961  -3.135  0.00  0.00    -0.467 OA
ENDBRANCH   3   8
BRANCH   4  13
ATOM     13  C   UNL     1       8.847   9.725   0.003  0.00  0.00    +0.247 C 
ATOM     14  O   UNL     1       9.142  10.121   1.116  0.00  0.00    -0.270 OA
ATOM     15  N   UNL     1       9.777   9.702  -0.972  0.00  0.00    -0.282 N 
ATOM     16  H   UNL     1       9.560   9.328  -1.841  0.00  0.00    +0.155 HD
BRANCH  15  17
ATOM     17  C   UNL     1      11.055  10.217  -0.732  0.00  0.00    +0.034 A 
ATOM     18  C   UNL     1      11.747  10.863  -1.748  0.00  0.00    +0.023 A 
ATOM     19  C   UNL     1      13.007  11.376  -1.506  0.00  0.00    +0.002 A 
ATOM     20  C   UNL     1      13.583  11.236  -0.257  0.00  0.00    +0.000 A 
ATOM     21  C   UNL     1      12.899  10.588   0.755  0.00  0.00    +0.002 A 
ATOM     22  C   UNL     1      11.637  10.078   0.521  0.00  0.00    +0.023 A 
ENDBRANCH  15  17
ENDBRANCH   4  13
BRANCH   2  23
ATOM     23  C   UNL     1       3.971  10.596  -0.458  0.00  0.00    +0.074 C 
ATOM     24  N   UNL     1       3.074  11.291  -0.426  0.00  0.00    -0.196 NA
ENDBRANCH   2  23
BRANCH   1  25
ATOM     25  S   UNL     1       3.275   7.735  -0.280  0.00  0.00    -0.100 S 
BRANCH  25  26
ATOM     26  C   UNL     1       3.637   5.962  -0.220  0.00  0.00    +0.171 C 
BRANCH  26  28
ATOM     27  N   UNL     1       2.373   3.844  -0.037  0.00  0.00    -0.285 N 
ATOM     28  C   UNL     1       2.349   5.190  -0.099  0.00  0.00    +0.227 C 
ATOM     29  O   UNL     1       1.290   5.780  -0.058  0.00  0.00    -0.275 OA
ATOM     30  H   UNL     1       3.221   3.375  -0.006  0.00  0.00    +0.155 HD
BRANCH  27  36
ATOM     31  C   UNL     1       1.095   1.886  -0.643  0.00  0.00    -0.026 A 
ATOM     32  C   UNL     1      -0.090   1.177  -0.621  0.00  0.00    +0.005 A 
ATOM     33  C   UNL     1      -1.198   1.699   0.020  0.00  0.00    +0.000 A 
ATOM     34  C   UNL     1      -1.121   2.928   0.650  0.00  0.00    +0.002 A 
ATOM     35  C   UNL     1       0.060   3.642   0.631  0.00  0.00    +0.023 A 
ATOM     36  C   UNL     1       1.174   3.123  -0.017  0.00  0.00    +0.037 A 
BRANCH  31  38
ATOM     37  C   UNL     1       3.183   0.586  -0.335  0.00  0.00    +0.009 C 
ATOM     38  C   UNL     1       2.301   1.319  -1.347  0.00  0.00    +0.033 C 
ENDBRANCH  31  38
ENDBRANCH  27  36
ENDBRANCH  26  28
ENDBRANCH  25  26
ENDBRANCH   1  25
TORSDOF 9
