REMARK  Name = ZINC20144194
REMARK  7 active torsions:
REMARK  status: ('A' for Active; 'I' for Inactive)
REMARK    1  A    between atoms: C_6  and  O_7
REMARK    2  A    between atoms: O_7  and  C_8
REMARK    3  A    between atoms: C_8  and  C_9
REMARK    4  A    between atoms: N_11  and  C_12
REMARK    5  A    between atoms: C_14  and  C_19
REMARK    6  A    between atoms: C_22  and  C_24
REMARK    7  A    between atoms: C_24  and  O_25
REMARK                            x       y       z     vdW  Elec       q    Type
REMARK                         _______ _______ _______ _____ _____    ______ ____
ROOT
ATOM      1  C   UNL     1      -3.871  -4.663   0.106  0.00  0.00    +0.053 A 
ATOM      2  C   UNL     1      -5.015  -3.881   0.110  0.00  0.00    +0.036 A 
ATOM      3  C   UNL     1      -6.268  -4.486   0.209  0.00  0.00    +0.019 A 
ATOM      4  C   UNL     1      -6.362  -5.876   0.304  0.00  0.00    +0.013 A 
ATOM      5  C   UNL     1      -5.217  -6.647   0.299  0.00  0.00    +0.022 A 
ATOM      6  C   UNL     1      -3.975  -6.047   0.196  0.00  0.00    +0.062 A 
ATOM      7 CL   UNL     1      -2.540  -7.025   0.184  0.00  0.00    -0.082 Cl
ENDROOT
BRANCH   3   8
ATOM      8  C   UNL     1      -7.492  -3.658   0.215  0.00  0.00    +0.135 A 
ATOM      9  C   UNL     1      -8.767  -4.120   0.311  0.00  0.00    +0.050 A 
ATOM     10  C   UNL     1      -9.611  -2.993   0.277  0.00  0.00    +0.047 A 
ATOM     11  C   UNL     1      -8.819  -1.909   0.163  0.00  0.00    +0.131 A 
ATOM     12  O   UNL     1      -7.538  -2.315   0.131  0.00  0.00    -0.457 OA
BRANCH  11  13
ATOM     13  C   UNL     1      -9.289  -0.480   0.089  0.00  0.00    +0.230 C 
BRANCH  13  14
ATOM     14  O   UNL     1      -9.370   0.064   1.408  0.00  0.00    -0.387 OA
ATOM     15  H   UNL     1      -9.667   0.984   1.437  0.00  0.00    +0.210 HD
ENDBRANCH  13  14
ENDBRANCH  11  13
ENDBRANCH   3   8
BRANCH   1  18
ATOM     16  C   UNL     1      -2.389  -2.864   0.584  0.00  0.00    +0.255 C 
ATOM     17  O   UNL     1      -3.301  -2.271   1.121  0.00  0.00    -0.272 OA
ATOM     18  N   UNL     1      -2.611  -4.061   0.006  0.00  0.00    -0.281 N 
ATOM     19  H   UNL     1      -1.898  -4.505  -0.479  0.00  0.00    +0.155 HD
BRANCH  16  20
ATOM     20  C   UNL     1      -1.008  -2.262   0.564  0.00  0.00    +0.324 C 
BRANCH  20  21
ATOM     21  O   UNL     1      -1.027  -1.001   1.236  0.00  0.00    -0.483 OA
BRANCH  21  27
ATOM     22  C   UNL     1       0.200   0.910   1.945  0.00  0.00    +0.047 A 
ATOM     23  C   UNL     1       1.395   1.599   2.017  0.00  0.00    +0.019 A 
ATOM     24  C   UNL     1       2.539   1.062   1.453  0.00  0.00    +0.018 A 
ATOM     25  C   UNL     1       2.489  -0.165   0.817  0.00  0.00    +0.019 A 
ATOM     26  C   UNL     1       1.296  -0.858   0.743  0.00  0.00    +0.047 A 
ATOM     27  C   UNL     1       0.147  -0.321   1.307  0.00  0.00    +0.121 A 
ATOM     28 BR   UNL     1       4.174   2.007   1.553  0.00  0.00    -0.050 Br
ENDBRANCH  21  27
ENDBRANCH  20  21
ENDBRANCH  16  20
ENDBRANCH   1  18
TORSDOF 7
