REMARK  Name = ZINC22609228
REMARK  12 active torsions:
REMARK  status: ('A' for Active; 'I' for Inactive)
REMARK    1  A    between atoms: C_1  and  C_2
REMARK    2  A    between atoms: C_2  and  C_3
REMARK    3  A    between atoms: C_3  and  C_4
REMARK    4  A    between atoms: C_4  and  O_5
REMARK    5  A    between atoms: O_5  and  C_6
REMARK    6  A    between atoms: C_6  and  C_8
REMARK    7  A    between atoms: C_11  and  N_14
REMARK    8  A    between atoms: C_18  and  N_22
REMARK    9  A    between atoms: C_27  and  O_34
REMARK   10  A    between atoms: C_28  and  O_32
REMARK   11  A    between atoms: O_32  and  C_33
REMARK   12  A    between atoms: O_34  and  C_35
REMARK                            x       y       z     vdW  Elec       q    Type
REMARK                         _______ _______ _______ _____ _____    ______ ____
ROOT
ATOM      1  N   UNL     1       4.106  -5.919  -7.155  0.00  0.00    -0.209 N 
ATOM      2  C   UNL     1       4.559  -5.147  -8.151  0.00  0.00    +0.228 C 
ATOM      3  O   UNL     1       4.473  -3.939  -8.197  0.00  0.00    -0.275 OA
ATOM      4  C   UNL     1       5.197  -6.022  -9.208  0.00  0.00    +0.125 C 
ATOM      5  C   UNL     1       5.031  -7.448  -8.646  0.00  0.00    +0.153 C 
ATOM      6  C   UNL     1       4.323  -7.229  -7.327  0.00  0.00    +0.244 C 
ATOM      7  O   UNL     1       4.000  -8.102  -6.549  0.00  0.00    -0.273 OA
ENDROOT
BRANCH   5   8
ATOM      8  N   UNL     1       6.342  -8.074  -8.429  0.00  0.00    -0.287 NA
ATOM      9  C   UNL     1       6.198  -9.501  -8.098  0.00  0.00    +0.090 C 
ATOM     10  C   UNL     1       7.563 -10.173  -8.246  0.00  0.00    +0.051 C 
ATOM     11  C   UNL     1       8.607  -9.390  -7.491  0.00  0.00    -0.038 A 
ATOM     12  C   UNL     1       9.814 -10.009  -7.201  0.00  0.00    +0.053 A 
ATOM     13  C   UNL     1      10.803  -9.328  -6.515  0.00  0.00    +0.162 A 
ATOM     14  C   UNL     1      10.582  -8.013  -6.114  0.00  0.00    +0.162 A 
ATOM     15  C   UNL     1       9.376  -7.401  -6.404  0.00  0.00    +0.054 A 
ATOM     16  C   UNL     1       8.386  -8.090  -7.091  0.00  0.00    -0.026 A 
ATOM     17  C   UNL     1       7.087  -7.381  -7.373  0.00  0.00    +0.120 C 
BRANCH  14  18
ATOM     18  O   UNL     1      11.548  -7.334  -5.440  0.00  0.00    -0.491 OA
ATOM     19  C   UNL     1      11.251  -5.988  -5.062  0.00  0.00    +0.277 C 
ENDBRANCH  14  18
BRANCH  13  20
ATOM     20  O   UNL     1      11.984  -9.940  -6.232  0.00  0.00    -0.491 OA
ATOM     21  C   UNL     1      12.137 -11.290  -6.674  0.00  0.00    +0.277 C 
ENDBRANCH  13  20
ENDBRANCH   5   8
BRANCH   1  25
ATOM     22  C   UNL     1       2.191  -4.369  -3.792  0.00  0.00    +0.059 A 
ATOM     23  C   UNL     1       3.546  -4.103  -4.012  0.00  0.00    +0.017 A 
ATOM     24  C   UNL     1       4.175  -4.617  -5.124  0.00  0.00    +0.025 A 
ATOM     25  C   UNL     1       3.464  -5.400  -6.027  0.00  0.00    +0.044 A 
ATOM     26  C   UNL     1       2.116  -5.666  -5.812  0.00  0.00    +0.025 A 
ATOM     27  C   UNL     1       1.482  -5.161  -4.699  0.00  0.00    +0.017 A 
BRANCH  22  28
ATOM     28  C   UNL     1       1.514  -3.821  -2.602  0.00  0.00    +0.339 C 
ATOM     29  O   UNL     1       0.338  -4.057  -2.410  0.00  0.00    -0.245 OA
BRANCH  28  30
ATOM     30  O   UNL     1       2.199  -3.058  -1.728  0.00  0.00    -0.461 OA
BRANCH  30  31
ATOM     31  C   UNL     1       1.480  -2.560  -0.598  0.00  0.00    +0.232 C 
BRANCH  31  32
ATOM     32  C   UNL     1       2.417  -1.721   0.274  0.00  0.00    +0.041 C 
BRANCH  32  34
ATOM     33  C   UNL     1       2.584  -0.350   2.355  0.00  0.00    +0.004 C 
ATOM     34  C   UNL     1       1.647  -1.188   1.484  0.00  0.00    -0.000 C 
ENDBRANCH  32  34
ENDBRANCH  31  32
ENDBRANCH  30  31
ENDBRANCH  28  30
ENDBRANCH  22  28
ENDBRANCH   1  25
TORSDOF 9
