REMARK  Name = ZINC12152990
REMARK  9 active torsions:
REMARK  status: ('A' for Active; 'I' for Inactive)
REMARK    1  A    between atoms: C_1  and  N_50
REMARK    2  A    between atoms: C_2  and  C_3
REMARK    3  A    between atoms: C_2  and  N_50
REMARK    4  A    between atoms: C_7  and  N_16
REMARK    5  A    between atoms: C_8  and  C_12
REMARK    6  A    between atoms: C_12  and  O_14
REMARK    7  A    between atoms: O_14  and  C_15
REMARK    8  A    between atoms: C_17  and  C_19
REMARK    9  A    between atoms: C_24  and  N_50
REMARK                            x       y       z     vdW  Elec       q    Type
REMARK                         _______ _______ _______ _____ _____    ______ ____
ROOT
ATOM      1  C   UNL     1       0.554   3.910   1.429  0.00  0.00    +0.026 A 
ATOM      2  C   UNL     1      -0.720   3.378   1.557  0.00  0.00    +0.022 A 
ATOM      3  C   UNL     1      -0.989   2.102   1.123  0.00  0.00    +0.014 A 
ATOM      4  C   UNL     1       0.053   1.344   0.532  0.00  0.00    +0.030 A 
ATOM      5  C   UNL     1       0.004  -0.009   0.001  0.00  0.00    +0.064 A 
ATOM      6  C   UNL     1       1.157  -0.547  -0.526  0.00  0.00    +0.120 A 
ATOM      7  S   UNL     1       2.353   0.758  -0.322  0.00  0.00    -0.060 S 
ATOM      8  C   UNL     1       1.315   1.976   0.447  0.00  0.00    +0.111 A 
ATOM      9  N   UNL     1       1.523   3.200   0.883  0.00  0.00    -0.246 NA
ENDROOT
BRANCH   5  10
ATOM     10  N   UNL     1      -1.178  -0.741   0.024  0.00  0.00    -0.280 N 
ATOM     11  C   UNL     1      -2.360  -0.118  -0.157  0.00  0.00    +0.251 C 
ATOM     12  O   UNL     1      -2.388   1.068  -0.424  0.00  0.00    -0.270 OA
ATOM     13  H   UNL     1      -1.152  -1.699   0.171  0.00  0.00    +0.155 HD
BRANCH  11  14
ATOM     14  C   UNL     1      -3.618  -0.875  -0.031  0.00  0.00    +0.075 A 
ATOM     15  C   UNL     1      -4.985  -0.358  -0.189  0.00  0.00    +0.054 A 
ATOM     16  C   UNL     1      -5.800  -1.405   0.012  0.00  0.00    +0.195 A 
ATOM     17  O   UNL     1      -5.061  -2.492   0.282  0.00  0.00    -0.470 OA
ATOM     18  C   UNL     1      -3.757  -2.200   0.263  0.00  0.00    +0.207 A 
ENDBRANCH  11  14
ENDBRANCH   5  10
BRANCH   6  19
ATOM     19  C   UNL     1       1.347  -1.831  -1.095  0.00  0.00    +0.348 C 
ATOM     20  O   UNL     1       0.397  -2.575  -1.250  0.00  0.00    -0.244 OA
BRANCH  19  21
ATOM     21  O   UNL     1       2.583  -2.230  -1.465  0.00  0.00    -0.464 OA
ATOM     22  C   UNL     1       2.701  -3.536  -2.031  0.00  0.00    +0.280 C 
ENDBRANCH  19  21
ENDBRANCH   6  19
BRANCH   1  23
ATOM     23  C   UNL     1       0.835   5.308   1.916  0.00  0.00    -0.022 C 
BRANCH  23  25
ATOM     24  C   UNL     1       0.367   4.748   4.225  0.00  0.00    -0.095 C 
ATOM     25  N   UNL     1       1.396   5.234   3.281  0.00  0.00    +0.385 N 
ATOM     26  H   UNL     1       2.185   4.577   3.282  0.00  0.00    -0.081 HD
BRANCH  25  27
ATOM     27  C   UNL     1       1.879   6.566   3.703  0.00  0.00    -0.040 C 
ATOM     28  C   UNL     1       2.584   6.460   5.077  0.00  0.00    +0.015 C 
ATOM     29  C   UNL     1       2.105   7.752   5.787  0.00  0.00    +0.158 C 
ATOM     30  O   UNL     1       0.739   7.894   5.344  0.00  0.00    -0.381 OA
ATOM     31  C   UNL     1       0.711   7.539   3.951  0.00  0.00    +0.144 C 
ENDBRANCH  25  27
ENDBRANCH  23  25
ENDBRANCH   1  23
TORSDOF 7
