REMARK  Name = ZINC09135121
REMARK  13 active torsions:
REMARK  status: ('A' for Active; 'I' for Inactive)
REMARK    1  A    between atoms: C_1  and  C_2
REMARK    2  A    between atoms: C_2  and  N_3
REMARK    3  A    between atoms: C_5  and  C_17
REMARK    4  A    between atoms: N_19  and  C_20
REMARK    5  A    between atoms: C_20  and  C_22
REMARK    6  A    between atoms: C_20  and  C_29
REMARK    7  A    between atoms: C_22  and  C_23
REMARK    8  A    between atoms: N_31  and  C_32
REMARK    9  A    between atoms: C_32  and  C_33
REMARK   10  A    between atoms: C_33  and  C_34
REMARK   11  A    between atoms: C_34  and  N_68
REMARK   12  A    between atoms: C_35  and  N_68
REMARK   13  A    between atoms: C_36  and  N_68
REMARK                            x       y       z     vdW  Elec       q    Type
REMARK                         _______ _______ _______ _____ _____    ______ ____
ROOT
ATOM      1  C   UNL     1      -5.061   1.190   0.028  0.00  0.00    +0.250 C 
ATOM      2  O   UNL     1      -5.141  -0.024   0.020  0.00  0.00    -0.270 OA
ATOM      3  N   UNL     1      -6.182   1.938   0.037  0.00  0.00    -0.300 N 
ATOM      4  H   UNL     1      -6.118   2.906   0.043  0.00  0.00    +0.150 HD
ENDROOT
BRANCH   1   7
ATOM      5  N   UNL     1      -2.455   3.842   0.048  0.00  0.00    -0.346 N 
ATOM      6  C   UNL     1      -3.639   3.215   0.036  0.00  0.00    +0.103 A 
ATOM      7  C   UNL     1      -3.742   1.840   0.028  0.00  0.00    +0.100 A 
ATOM      8  C   UNL     1      -2.511   1.034   0.018  0.00  0.00    +0.202 A 
ATOM      9  O   UNL     1      -2.550  -0.184   0.011  0.00  0.00    -0.286 OA
ATOM     10  C   UNL     1      -1.230   1.761   0.017  0.00  0.00    +0.050 A 
ATOM     11  C   UNL     1      -1.252   3.167   0.033  0.00  0.00    +0.056 A 
ATOM     12  C   UNL     1      -0.051   3.867   0.025  0.00  0.00    +0.076 A 
ATOM     13  C   UNL     1       1.151   3.184   0.009  0.00  0.00    +0.168 A 
ATOM     14  C   UNL     1       1.170   1.784   0.001  0.00  0.00    +0.167 A 
ATOM     15  C   UNL     1      -0.013   1.076   0.008  0.00  0.00    +0.063 A 
ATOM     16  O   UNL     1       2.471   1.368  -0.016  0.00  0.00    -0.453 OA
ATOM     17  C   UNL     1       3.236   2.514  -0.431  0.00  0.00    +0.466 C 
ATOM     18  O   UNL     1       2.439   3.634  -0.001  0.00  0.00    -0.453 OA
BRANCH   5  20
ATOM     19  C   UNL     1      -2.317   5.825  -1.377  0.00  0.00    +0.027 C 
ATOM     20  C   UNL     1      -2.437   5.307   0.058  0.00  0.00    +0.118 C 
ENDBRANCH   5  20
ENDBRANCH   1   7
BRANCH   3  21
ATOM     21  C   UNL     1      -7.496   1.290   0.037  0.00  0.00    +0.163 C 
BRANCH  21  22
ATOM     22  C   UNL     1      -8.518   2.227  -0.554  0.00  0.00    +0.234 C 
ATOM     23  O   UNL     1      -8.182   3.328  -0.937  0.00  0.00    -0.274 OA
ATOM     24  N   UNL     1      -9.805   1.842  -0.656  0.00  0.00    -0.314 N 
ATOM     25  H   UNL     1     -10.074   0.962  -0.350  0.00  0.00    +0.149 HD
BRANCH  24  26
ATOM     26  C   UNL     1     -10.799   2.753  -1.230  0.00  0.00    +0.102 C 
BRANCH  26  27
ATOM     27  C   UNL     1     -12.171   2.076  -1.230  0.00  0.00    +0.000 C 
BRANCH  27  28
ATOM     28  C   UNL     1     -13.209   3.027  -1.830  0.00  0.00    -0.078 C 
BRANCH  28  31
ATOM     29  C   UNL     1     -15.005   2.158  -0.459  0.00  0.00    -0.097 C 
ATOM     30  C   UNL     1     -15.498   3.158  -2.608  0.00  0.00    -0.097 C 
ATOM     31  N   UNL     1     -14.524   2.352  -1.842  0.00  0.00    +0.376 N 
ATOM     32  H   UNL     1     -14.423   1.435  -2.292  0.00  0.00    -0.083 HD
ENDBRANCH  28  31
ENDBRANCH  27  28
ENDBRANCH  26  27
ENDBRANCH  24  26
ENDBRANCH  21  22
BRANCH  21  33
ATOM     33  C   UNL     1      -7.893   0.943   1.473  0.00  0.00    +0.067 C 
BRANCH  33  34
ATOM     34  C   UNL     1      -6.940  -0.088   2.022  0.00  0.00    -0.045 A 
ATOM     35  C   UNL     1      -7.216  -1.434   1.871  0.00  0.00    +0.004 A 
ATOM     36  C   UNL     1      -6.340  -2.380   2.370  0.00  0.00    +0.000 A 
ATOM     37  C   UNL     1      -5.193  -1.979   3.029  0.00  0.00    +0.000 A 
ATOM     38  C   UNL     1      -4.920  -0.633   3.185  0.00  0.00    +0.000 A 
ATOM     39  C   UNL     1      -5.793   0.313   2.681  0.00  0.00    +0.004 A 
ENDBRANCH  33  34
ENDBRANCH  21  33
ENDBRANCH   3  21
TORSDOF 10
