REMARK  Name = ZINC05551043
REMARK  2 active torsions:
REMARK  status: ('A' for Active; 'I' for Inactive)
REMARK    1  A    between atoms: C_10  and  N_11
REMARK    2  A    between atoms: C_17  and  C_18
REMARK                            x       y       z     vdW  Elec       q    Type
REMARK                         _______ _______ _______ _____ _____    ______ ____
ROOT
ATOM      1  N   UNL     1      -1.651   3.426  -1.888  0.00  0.00    -0.225 NA
ATOM      2  C   UNL     1      -2.755   4.040  -1.523  0.00  0.00    +0.166 C 
ATOM      3  N   UNL     1      -3.017   5.392  -1.506  0.00  0.00    -0.260 N 
ATOM      4  C   UNL     1      -4.194   5.846  -1.109  0.00  0.00    +0.256 C 
ATOM      5  O   UNL     1      -4.444   7.037  -1.092  0.00  0.00    -0.269 OA
ATOM      6  C   UNL     1      -5.189   4.842  -0.683  0.00  0.00    +0.078 C 
ATOM      7  C   UNL     1      -6.456   5.022  -0.231  0.00  0.00    +0.028 C 
ATOM      8  S   UNL     1      -4.277   3.324  -0.922  0.00  0.00    -0.049 S 
ATOM      9  H   UNL     1      -2.333   6.017  -1.790  0.00  0.00    +0.157 HD
ENDROOT
BRANCH   1  19
ATOM     10  C   UNL     1       0.132  -0.332  -4.809  0.00  0.00    +0.001 A 
ATOM     11  C   UNL     1       0.044   1.048  -4.979  0.00  0.00    +0.001 A 
ATOM     12  C   UNL     1      -0.496   1.840  -4.010  0.00  0.00    +0.010 A 
ATOM     13  C   UNL     1      -0.968   1.261  -2.826  0.00  0.00    +0.008 A 
ATOM     14  C   UNL     1      -0.880  -0.141  -2.650  0.00  0.00    -0.016 A 
ATOM     15  C   UNL     1      -0.318  -0.928  -3.670  0.00  0.00    +0.008 A 
ATOM     16  C   UNL     1      -1.355  -0.719  -1.460  0.00  0.00    +0.008 A 
ATOM     17  C   UNL     1      -1.897   0.056  -0.480  0.00  0.00    +0.003 A 
ATOM     18  C   UNL     1      -2.003   1.433  -0.610  0.00  0.00    +0.028 A 
ATOM     19  C   UNL     1      -1.548   2.072  -1.758  0.00  0.00    +0.074 A 
ENDBRANCH   1  19
BRANCH   7  20
ATOM     20  C   UNL     1      -7.351   3.868  -0.071  0.00  0.00    -0.024 A 
ATOM     21  C   UNL     1      -6.981   2.616  -0.576  0.00  0.00    +0.009 A 
ATOM     22  C   UNL     1      -7.823   1.537  -0.418  0.00  0.00    +0.020 A 
ATOM     23  C   UNL     1      -9.038   1.691   0.230  0.00  0.00    +0.041 A 
ATOM     24  C   UNL     1      -9.414   2.928   0.728  0.00  0.00    +0.020 A 
ATOM     25  C   UNL     1      -8.579   4.016   0.583  0.00  0.00    +0.009 A 
ATOM     26 CL   UNL     1     -10.096   0.327   0.418  0.00  0.00    -0.084 Cl
ENDBRANCH   7  20
TORSDOF 2
