REMARK  Name = ZINC08616576
REMARK  6 active torsions:
REMARK  status: ('A' for Active; 'I' for Inactive)
REMARK    1  A    between atoms: C_3  and  S_8
REMARK    2  A    between atoms: S_8  and  C_9
REMARK    3  A    between atoms: C_9  and  C_10
REMARK    4  A    between atoms: C_10  and  C_12
REMARK    5  A    between atoms: C_10  and  O_28
REMARK    6  A    between atoms: C_12  and  N_49
REMARK                            x       y       z     vdW  Elec       q    Type
REMARK                         _______ _______ _______ _____ _____    ______ ____
ROOT
ATOM      1  C   UNL     1       1.313   2.996   2.565  0.00  0.00    -0.059 C 
ATOM      2  C   UNL     1       0.485   3.390   3.790  0.00  0.00    +0.088 C 
ATOM      3  N   UNL     1       1.070   2.778   4.991  0.00  0.00    -0.313 N 
ATOM      4  C   UNL     1       1.097   1.314   4.873  0.00  0.00    +0.088 C 
ATOM      5  C   UNL     1       1.925   0.919   3.648  0.00  0.00    -0.059 C 
ATOM      6  C   UNL     1       0.390   3.170   6.127  0.00  0.00    +0.162 A 
ATOM      7  N   UNL     1       0.158   4.385   6.570  0.00  0.00    -0.225 NA
ATOM      8  C   UNL     1      -0.529   4.622   7.709  0.00  0.00    +0.080 A 
ATOM      9  C   UNL     1      -0.847   5.870   8.293  0.00  0.00    +0.030 A 
ATOM     10  C   UNL     1      -1.558   5.936   9.463  0.00  0.00    +0.022 A 
ATOM     11  C   UNL     1      -1.990   4.790  10.114  0.00  0.00    +0.042 A 
ATOM     12  C   UNL     1      -1.697   3.551   9.570  0.00  0.00    +0.037 A 
ATOM     13  C   UNL     1      -0.985   3.476   8.399  0.00  0.00    +0.042 A 
ATOM     14  S   UNL     1      -0.404   2.154   7.364  0.00  0.00    -0.052 S 
ATOM     15 CL   UNL     1      -2.889   4.907  11.594  0.00  0.00    -0.084 Cl
ATOM     16  N   UNL     1       1.314   1.522   2.445  0.00  0.00    +0.383 N 
ATOM     17  H   UNL     1       0.344   1.194   2.362  0.00  0.00    -0.082 HD
ENDROOT
BRANCH  16  18
ATOM     18  C   UNL     1       2.064   1.114   1.238  0.00  0.00    -0.046 C 
BRANCH  18  19
ATOM     19  C   UNL     1       1.286   1.562  -0.002  0.00  0.00    +0.108 C 
BRANCH  19  20
ATOM     20  O   UNL     1      -0.011   0.963   0.007  0.00  0.00    -0.393 OA
ATOM     21  H   UNL     1       0.002  -0.004   0.002  0.00  0.00    +0.210 HD
ENDBRANCH  19  20
BRANCH  19  22
ATOM     22  C   UNL     1       2.040   1.127  -1.261  0.00  0.00    +0.103 C 
BRANCH  22  23
ATOM     23  S   UNL     1       1.197   1.785  -2.727  0.00  0.00    -0.123 S 
BRANCH  23  26
ATOM     24  C   UNL     1       2.583   1.069  -6.434  0.00  0.00    +0.039 A 
ATOM     25  C   UNL     1       1.817   1.524  -5.379  0.00  0.00    +0.017 A 
ATOM     26  C   UNL     1       2.173   1.205  -4.075  0.00  0.00    +0.008 A 
ATOM     27  C   UNL     1       3.303   0.434  -3.834  0.00  0.00    +0.017 A 
ATOM     28  C   UNL     1       4.063  -0.024  -4.893  0.00  0.00    +0.039 A 
ATOM     29  C   UNL     1       3.706   0.296  -6.192  0.00  0.00    +0.123 A 
ATOM     30  F   UNL     1       4.454  -0.149  -7.226  0.00  0.00    -0.205 F 
ENDBRANCH  23  26
ENDBRANCH  22  23
ENDBRANCH  19  22
ENDBRANCH  18  19
ENDBRANCH  16  18
TORSDOF 6
