REMARK  Name = ZINC51754836
REMARK  5 active torsions:
REMARK  status: ('A' for Active; 'I' for Inactive)
REMARK    1  A    between atoms: C_1  and  C_2
REMARK    2  A    between atoms: C_2  and  C_22
REMARK    3  A    between atoms: C_6  and  C_11
REMARK    4  A    between atoms: C_11  and  C_13
REMARK    5  A    between atoms: C_11  and  N_21
REMARK                            x       y       z     vdW  Elec       q    Type
REMARK                         _______ _______ _______ _____ _____    ______ ____
ROOT
ATOM      1  C   UNL     1       5.931  -1.187  -0.897  0.00  0.00    -0.012 C 
ENDROOT
BRANCH   1   7
ATOM      2  C   UNL     1      -0.019   1.526   0.010  0.00  0.00    +0.056 C 
ATOM      3  C   UNL     1       0.002  -0.004   0.002  0.00  0.00    +0.109 C 
ATOM      4  C   UNL     1       0.832  -0.534  -1.191  0.00  0.00    +0.086 C 
ATOM      5  C   UNL     1       2.204  -0.704  -0.568  0.00  0.00    -0.002 A 
ATOM      6  C   UNL     1       3.455  -0.875  -1.119  0.00  0.00    +0.009 A 
ATOM      7  C   UNL     1       4.561  -1.000  -0.297  0.00  0.00    -0.057 A 
ATOM      8  C   UNL     1       4.404  -0.952   1.076  0.00  0.00    +0.006 A 
ATOM      9  C   UNL     1       3.152  -0.784   1.629  0.00  0.00    +0.046 A 
ATOM     10  C   UNL     1       2.033  -0.662   0.809  0.00  0.00    +0.125 A 
ATOM     11  O   UNL     1       0.721  -0.510   1.139  0.00  0.00    -0.486 OA
ATOM     12  C   UNL     1      -1.422  -0.563  -0.031  0.00  0.00    +0.056 C 
ENDBRANCH   1   7
BRANCH   1  13
ATOM     13  C   UNL     1       6.308  -2.645  -0.842  0.00  0.00    -0.041 A 
ATOM     14  C   UNL     1       7.059  -3.125   0.214  0.00  0.00    +0.041 A 
ATOM     15  C   UNL     1       7.406  -4.465   0.264  0.00  0.00    +0.124 A 
ATOM     16  C   UNL     1       6.998  -5.323  -0.743  0.00  0.00    +0.039 A 
ATOM     17  C   UNL     1       6.247  -4.841  -1.798  0.00  0.00    +0.018 A 
ATOM     18  C   UNL     1       5.896  -3.504  -1.845  0.00  0.00    +0.020 A 
ATOM     19 BR   UNL     1       4.861  -2.848  -3.285  0.00  0.00    -0.050 Br
ATOM     20  F   UNL     1       8.141  -4.934   1.296  0.00  0.00    -0.205 F 
ENDBRANCH   1  13
BRANCH   1  21
ATOM     21  N   UNL     1       6.910  -0.399  -0.136  0.00  0.00    +0.385 N 
ATOM     22  H   UNL     1       7.827  -0.525  -0.537  0.00  0.00    -0.089 HD
ATOM     23  H   UNL     1       6.657   0.577  -0.173  0.00  0.00    -0.089 HD
ATOM     24  H   UNL     1       6.918  -0.709   0.824  0.00  0.00    -0.089 HD
ENDBRANCH   1  21
TORSDOF 3
