REMARK  Name = ZINC03529814
REMARK  7 active torsions:
REMARK  status: ('A' for Active; 'I' for Inactive)
REMARK    1  A    between atoms: C_1  and  O_2
REMARK    2  A    between atoms: O_2  and  C_3
REMARK    3  A    between atoms: C_6  and  C_9
REMARK    4  A    between atoms: C_14  and  C_26
REMARK    5  A    between atoms: N_16  and  C_19
REMARK    6  A    between atoms: C_29  and  O_32
REMARK    7  A    between atoms: O_32  and  C_33
REMARK                            x       y       z     vdW  Elec       q    Type
REMARK                         _______ _______ _______ _____ _____    ______ ____
ROOT
ATOM      1  C   UNL     1      -2.829   0.864  -4.252  0.00  0.00    +0.141 C 
ATOM      2  C   UNL     1      -2.927   0.787  -2.746  0.00  0.00    +0.075 C 
ATOM      3  C   UNL     1      -2.334  -0.270  -2.115  0.00  0.00    +0.101 C 
ATOM      4  N   UNL     1      -2.466  -0.376  -0.750  0.00  0.00    -0.310 N 
ATOM      5  C   UNL     1      -2.630   0.855   0.035  0.00  0.00    +0.198 C 
ATOM      6  N   UNL     1      -3.550   1.758  -0.663  0.00  0.00    -0.244 N 
ATOM      7  C   UNL     1      -3.618   1.753  -2.009  0.00  0.00    +0.254 C 
ATOM      8  O   UNL     1      -4.285   2.595  -2.586  0.00  0.00    -0.270 OA
ATOM      9  N   UNL     1      -1.639  -1.209  -2.831  0.00  0.00    -0.285 N 
ATOM     10  C   UNL     1      -1.517  -1.176  -4.164  0.00  0.00    +0.136 C 
ATOM     11  S   UNL     1      -0.623  -2.414  -4.938  0.00  0.00    -0.019 S 
ATOM     12  N   UNL     1      -2.070  -0.208  -4.921  0.00  0.00    -0.315 N 
ATOM     13  H   UNL     1      -2.450  -1.243  -0.316  0.00  0.00    +0.149 HD
ATOM     14  H   UNL     1      -1.213  -1.934  -2.347  0.00  0.00    +0.155 HD
ATOM     15  H   UNL     1      -1.971  -0.216  -5.886  0.00  0.00    +0.149 HD
ENDROOT
BRANCH   6  16
ATOM     16  C   UNL     1      -4.361   2.629   0.072  0.00  0.00    +0.039 A 
ATOM     17  C   UNL     1      -4.291   3.998  -0.149  0.00  0.00    +0.025 A 
ATOM     18  C   UNL     1      -5.097   4.855   0.573  0.00  0.00    +0.022 A 
ATOM     19  C   UNL     1      -5.966   4.352   1.526  0.00  0.00    +0.041 A 
ATOM     20  C   UNL     1      -6.034   2.989   1.752  0.00  0.00    +0.022 A 
ATOM     21  C   UNL     1      -5.234   2.126   1.028  0.00  0.00    +0.025 A 
ATOM     22 CL   UNL     1      -6.973   5.433   2.438  0.00  0.00    -0.084 Cl
ENDBRANCH   6  16
BRANCH   1  26
ATOM     23  C   UNL     1      -6.798   0.859  -5.837  0.00  0.00    +0.120 A 
ATOM     24  C   UNL     1      -6.101   2.052  -5.714  0.00  0.00    +0.046 A 
ATOM     25  C   UNL     1      -4.818   2.051  -5.201  0.00  0.00    +0.009 A 
ATOM     26  C   UNL     1      -4.229   0.862  -4.811  0.00  0.00    -0.022 A 
ATOM     27  C   UNL     1      -4.920  -0.329  -4.937  0.00  0.00    +0.009 A 
ATOM     28  C   UNL     1      -6.205  -0.332  -5.444  0.00  0.00    +0.046 A 
BRANCH  23  30
ATOM     29  C   UNL     1      -8.718  -0.407  -6.439  0.00  0.00    +0.277 C 
ATOM     30  O   UNL     1      -8.060   0.857  -6.341  0.00  0.00    -0.495 OA
ENDBRANCH  23  30
ENDBRANCH   1  26
BRANCH   5  31
ATOM     31  C   UNL     1      -1.292   1.529   0.200  0.00  0.00    -0.009 A 
ATOM     32  C   UNL     1      -0.137   0.770   0.233  0.00  0.00    +0.010 A 
ATOM     33  C   UNL     1       1.091   1.386   0.378  0.00  0.00    +0.046 A 
ATOM     34  C   UNL     1       1.164   2.767   0.495  0.00  0.00    +0.120 A 
ATOM     35  C   UNL     1       0.003   3.525   0.467  0.00  0.00    +0.046 A 
ATOM     36  C   UNL     1      -1.223   2.904   0.322  0.00  0.00    +0.010 A 
BRANCH  34  37
ATOM     37  O   UNL     1       2.371   3.375   0.637  0.00  0.00    -0.495 OA
ATOM     38  C   UNL     1       2.370   4.800   0.752  0.00  0.00    +0.277 C 
ENDBRANCH  34  37
ENDBRANCH   5  31
TORSDOF 5
