REMARK  Name = ZINC39683945
REMARK  9 active torsions:
REMARK  status: ('A' for Active; 'I' for Inactive)
REMARK    1  A    between atoms: C_1  and  C_2
REMARK    2  A    between atoms: C_2  and  C_4
REMARK    3  A    between atoms: C_2  and  N_8
REMARK    4  A    between atoms: N_6  and  C_7
REMARK    5  A    between atoms: C_9  and  C_11
REMARK    6  A    between atoms: C_22  and  C_24
REMARK    7  A    between atoms: C_27  and  O_34
REMARK    8  A    between atoms: C_28  and  C_30
REMARK    9  A    between atoms: O_34  and  C_35
REMARK                            x       y       z     vdW  Elec       q    Type
REMARK                         _______ _______ _______ _____ _____    ______ ____
ROOT
ATOM      1  C   UNL     1       0.362  -1.561   3.226  0.00  0.00    +0.100 C 
ATOM      2  C   UNL     1       1.069  -2.935   3.216  0.00  0.00    +0.121 C 
ATOM      3  N   UNL     1       0.898  -3.454   4.593  0.00  0.00    -0.296 N 
ATOM      4  C   UNL     1      -0.483  -3.062   4.966  0.00  0.00    +0.115 C 
ATOM      5  C   UNL     1      -0.656  -1.649   4.375  0.00  0.00    -0.004 C 
ATOM      6  C   UNL     1      -2.074  -1.471   3.840  0.00  0.00    -0.010 C 
ATOM      7  C   UNL     1      -3.063  -1.504   5.008  0.00  0.00    -0.082 C 
ATOM      8  N   UNL     1      -2.739  -0.432   5.957  0.00  0.00    +0.379 N 
ATOM      9  C   UNL     1      -1.410  -0.661   6.537  0.00  0.00    -0.082 C 
ATOM     10  C   UNL     1      -0.351  -0.593   5.433  0.00  0.00    -0.010 C 
ATOM     11  C   UNL     1       1.794  -4.129   5.338  0.00  0.00    +0.247 C 
ATOM     12  O   UNL     1       2.936  -4.264   4.942  0.00  0.00    -0.270 OA
ATOM     13  H   UNL     1      -2.746   0.455   5.475  0.00  0.00    -0.086 HD
ATOM     14  H   UNL     1      -3.428  -0.417   6.694  0.00  0.00    -0.086 HD
ENDROOT
BRANCH  11  15
ATOM     15  C   UNL     1       1.391  -4.705   6.636  0.00  0.00    +0.038 A 
ATOM     16  C   UNL     1       0.041  -4.945   6.907  0.00  0.00    +0.016 A 
ATOM     17  C   UNL     1      -0.331  -5.482   8.119  0.00  0.00    +0.047 A 
ATOM     18  C   UNL     1       0.634  -5.786   9.072  0.00  0.00    +0.132 A 
ATOM     19  C   UNL     1       1.977  -5.549   8.807  0.00  0.00    +0.097 A 
ATOM     20  C   UNL     1       2.358  -5.017   7.595  0.00  0.00    +0.029 A 
BRANCH  19  21
ATOM     21  C   UNL     1       3.019  -5.880   9.844  0.00  0.00    +0.421 C 
ATOM     22  F   UNL     1       4.287  -5.556   9.351  0.00  0.00    -0.166 F 
ATOM     23  F   UNL     1       2.769  -5.144  11.008  0.00  0.00    -0.166 F 
ATOM     24  F   UNL     1       2.968  -7.247  10.137  0.00  0.00    -0.166 F 
ENDBRANCH  19  21
BRANCH  18  25
ATOM     25  O   UNL     1       0.263  -6.315  10.266  0.00  0.00    -0.495 OA
ATOM     26  C   UNL     1      -1.134  -6.533  10.473  0.00  0.00    +0.277 C 
ENDBRANCH  18  25
ENDBRANCH  11  15
BRANCH   1  28
ATOM     27  N   UNL     1      -0.493  -0.070   1.447  0.00  0.00    -0.304 N 
ATOM     28  C   UNL     1      -0.345  -1.324   1.916  0.00  0.00    +0.219 C 
ATOM     29  O   UNL     1      -0.779  -2.264   1.283  0.00  0.00    -0.275 OA
ATOM     30  H   UNL     1      -0.146   0.681   1.953  0.00  0.00    +0.149 HD
BRANCH  27  32
ATOM     31  C   UNL     1      -2.690   0.228   0.413  0.00  0.00    +0.038 C 
ATOM     32  C   UNL     1      -1.180   0.160   0.174  0.00  0.00    +0.156 C 
BRANCH  32  33
ATOM     33  C   UNL     1      -0.708   1.460  -0.425  0.00  0.00    +0.233 C 
ATOM     34  O   UNL     1       0.121   2.129   0.156  0.00  0.00    -0.274 OA
ATOM     35  N   UNL     1      -1.207   1.880  -1.604  0.00  0.00    -0.317 N 
ATOM     36  C   UNL     1      -0.748   3.143  -2.186  0.00  0.00    +0.128 C 
ATOM     37  H   UNL     1      -1.870   1.345  -2.068  0.00  0.00    +0.148 HD
ENDBRANCH  32  33
ENDBRANCH  27  32
ENDBRANCH   1  28
TORSDOF 6
