REMARK  Name = ZINC45253561
REMARK  10 active torsions:
REMARK  status: ('A' for Active; 'I' for Inactive)
REMARK    1  A    between atoms: C_1  and  C_2
REMARK    2  A    between atoms: C_2  and  O_3
REMARK    3  A    between atoms: O_3  and  C_4
REMARK    4  A    between atoms: C_7  and  N_10
REMARK    5  A    between atoms: N_10  and  C_11
REMARK    6  A    between atoms: C_12  and  C_30
REMARK    7  A    between atoms: C_13  and  N_22
REMARK    8  A    between atoms: C_14  and  C_20
REMARK    9  A    between atoms: N_22  and  C_23
REMARK   10  A    between atoms: C_30  and  C_31
REMARK                            x       y       z     vdW  Elec       q    Type
REMARK                         _______ _______ _______ _____ _____    ______ ____
ROOT
ATOM      1  C   UNL     1       1.965  -6.384   2.794  0.00  0.00    +0.130 A 
ATOM      2  C   UNL     1       2.109  -7.723   2.983  0.00  0.00    +0.018 A 
ATOM      3  C   UNL     1       2.858  -8.226   4.052  0.00  0.00    +0.054 A 
ATOM      4  C   UNL     1       3.468  -7.326   4.941  0.00  0.00    +0.098 A 
ATOM      5  C   UNL     1       3.291  -5.891   4.704  0.00  0.00    +0.088 A 
ATOM      6  N   UNL     1       2.547  -5.471   3.632  0.00  0.00    -0.217 N 
ATOM      7  N   UNL     1       2.550  -4.070   3.644  0.00  0.00    -0.173 NA
ATOM      8  C   UNL     1       3.263  -3.655   4.666  0.00  0.00    +0.135 A 
ATOM      9  C   UNL     1       3.739  -4.761   5.361  0.00  0.00    +0.050 A 
ENDROOT
BRANCH   1  10
ATOM     10  N   UNL     1       1.217  -5.934   1.726  0.00  0.00    -0.299 N 
ATOM     11  H   UNL     1       1.460  -6.189   0.822  0.00  0.00    +0.154 HD
BRANCH  10  15
ATOM     12  C   UNL     1      -2.085  -3.476   2.384  0.00  0.00    +0.121 A 
ATOM     13  C   UNL     1      -1.645  -3.715   1.090  0.00  0.00    +0.047 A 
ATOM     14  C   UNL     1      -0.551  -4.529   0.871  0.00  0.00    +0.027 A 
ATOM     15  C   UNL     1       0.109  -5.109   1.947  0.00  0.00    +0.033 A 
ATOM     16  C   UNL     1      -0.332  -4.869   3.242  0.00  0.00    +0.027 A 
ATOM     17  C   UNL     1      -1.423  -4.050   3.459  0.00  0.00    +0.047 A 
BRANCH  12  18
ATOM     18  O   UNL     1      -3.163  -2.675   2.598  0.00  0.00    -0.492 OA
BRANCH  18  20
ATOM     19  C   UNL     1      -4.979  -1.251   1.882  0.00  0.00    +0.048 C 
ATOM     20  C   UNL     1      -3.796  -2.118   1.445  0.00  0.00    +0.225 C 
ENDBRANCH  18  20
ENDBRANCH  12  18
ENDBRANCH  10  15
ENDBRANCH   1  10
BRANCH   4  21
ATOM     21  C   UNL     1       4.243  -7.798   6.048  0.00  0.00    +0.103 C 
ATOM     22  N   UNL     1       4.858  -8.172   6.927  0.00  0.00    -0.191 NA
ENDBRANCH   4  21
BRANCH   3  23
ATOM     23  N   UNL     1       2.995  -9.593   4.232  0.00  0.00    -0.341 N 
ATOM     24  H   UNL     1       2.655 -10.207   3.563  0.00  0.00    +0.146 HD
BRANCH  23  25
ATOM     25  C   UNL     1       3.654 -10.111   5.434  0.00  0.00    +0.053 C 
ATOM     26  C   UNL     1       5.167 -10.164   5.205  0.00  0.00    +0.018 C 
ATOM     27  C   UNL     1       5.839 -10.779   6.436  0.00  0.00    -0.017 C 
ATOM     28  C   UNL     1       5.242 -12.164   6.697  0.00  0.00    -0.082 C 
ATOM     29  N   UNL     1       3.799 -12.043   6.934  0.00  0.00    +0.380 N 
ATOM     30  C   UNL     1       3.138 -11.520   5.733  0.00  0.00    -0.060 C 
ATOM     31  H   UNL     1       3.419 -12.950   7.159  0.00  0.00    -0.086 HD
ATOM     32  H   UNL     1       3.638 -11.412   7.706  0.00  0.00    -0.086 HD
ENDBRANCH  23  25
ENDBRANCH   3  23
BRANCH   2  33
ATOM     33  C   UNL     1       1.450  -8.681   2.024  0.00  0.00    +0.067 C 
BRANCH  33  34
ATOM     34  C   UNL     1       2.437  -9.086   0.960  0.00  0.00    -0.030 C 
ATOM     35  C   UNL     1       2.689 -10.354   0.747  0.00  0.00    +0.004 C 
ENDBRANCH  33  34
ENDBRANCH   2  33
TORSDOF 9
