REMARK  Name = ZINC08742810
REMARK  9 active torsions:
REMARK  status: ('A' for Active; 'I' for Inactive)
REMARK    1  A    between atoms: C_1  and  C_2
REMARK    2  A    between atoms: C_2  and  C_3
REMARK    3  A    between atoms: C_3  and  C_5
REMARK    4  A    between atoms: C_3  and  C_6
REMARK    5  A    between atoms: C_6  and  C_8
REMARK    6  A    between atoms: C_6  and  N_18
REMARK    7  A    between atoms: N_10  and  C_11
REMARK    8  A    between atoms: C_11  and  C_12
REMARK    9  A    between atoms: C_19  and  C_21
REMARK                            x       y       z     vdW  Elec       q    Type
REMARK                         _______ _______ _______ _____ _____    ______ ____
ROOT
ATOM      1  N   UNL     1      -3.240  -3.261   0.810  0.00  0.00    -0.305 N 
ATOM      2  C   UNL     1      -2.465  -3.134  -0.285  0.00  0.00    +0.200 C 
ATOM      3  O   UNL     1      -2.849  -3.562  -1.353  0.00  0.00    -0.278 OA
ATOM      4  H   UNL     1      -2.933  -2.918   1.664  0.00  0.00    +0.149 HD
ENDROOT
BRANCH   2   5
ATOM      5  C   UNL     1      -1.121  -2.459  -0.183  0.00  0.00    +0.021 C 
ATOM      6  C   UNL     1      -1.304  -0.942  -0.212  0.00  0.00    +0.028 C 
ATOM      7  C   UNL     1       0.034  -0.265  -0.355  0.00  0.00    -0.047 A 
ATOM      8  C   UNL     1       0.129   1.085  -0.050  0.00  0.00    +0.004 A 
ATOM      9  C   UNL     1       1.334   1.746  -0.176  0.00  0.00    +0.000 A 
ATOM     10  C   UNL     1       2.453   1.059  -0.610  0.00  0.00    +0.000 A 
ATOM     11  C   UNL     1       2.361  -0.285  -0.911  0.00  0.00    +0.002 A 
ATOM     12  C   UNL     1       1.150  -0.951  -0.783  0.00  0.00    -0.061 A 
ATOM     13  C   UNL     1       1.101  -2.419  -1.115  0.00  0.00    -0.045 C 
ATOM     14  N   UNL     1      -0.285  -2.854  -1.332  0.00  0.00    +0.389 N 
ATOM     15  H   UNL     1      -0.650  -2.414  -2.185  0.00  0.00    -0.084 HD
ATOM     16  H   UNL     1      -0.310  -3.875  -1.437  0.00  0.00    -0.084 HD
ENDBRANCH   2   5
BRANCH   1  17
ATOM     17  C   UNL     1      -4.547  -3.916   0.711  0.00  0.00    +0.162 C 
BRANCH  17  18
ATOM     18  C   UNL     1      -4.930  -4.478   2.056  0.00  0.00    +0.234 C 
ATOM     19  O   UNL     1      -4.480  -3.986   3.069  0.00  0.00    -0.274 OA
ATOM     20  N   UNL     1      -5.773  -5.527   2.133  0.00  0.00    -0.311 N 
ATOM     21  H   UNL     1      -6.080  -5.962   1.322  0.00  0.00    +0.149 HD
BRANCH  20  22
ATOM     22  C   UNL     1      -6.225  -6.009   3.440  0.00  0.00    +0.135 C 
BRANCH  22  23
ATOM     23  C   UNL     1      -7.167  -7.199   3.247  0.00  0.00    +0.135 C 
ATOM     24  C   UNL     1      -7.740  -7.641   4.611  0.00  0.00    +0.035 C 
ATOM     25  C   UNL     1      -7.738  -9.189   4.483  0.00  0.00    +0.031 C 
ATOM     26  C   UNL     1      -6.471  -9.411   3.620  0.00  0.00    +0.160 C 
ATOM     27  O   UNL     1      -6.444  -8.308   2.701  0.00  0.00    -0.375 OA
ENDBRANCH  22  23
ENDBRANCH  20  22
ENDBRANCH  17  18
BRANCH  17  28
ATOM     28  C   UNL     1      -5.596  -2.896   0.267  0.00  0.00    +0.015 C 
ATOM     29  C   UNL     1      -6.942  -3.599   0.076  0.00  0.00    +0.010 C 
BRANCH  28  31
ATOM     30  C   UNL     1      -6.692  -0.723   0.835  0.00  0.00    +0.004 C 
ATOM     31  C   UNL     1      -5.735  -1.808   1.334  0.00  0.00    +0.002 C 
ENDBRANCH  28  31
ENDBRANCH  17  28
ENDBRANCH   1  17
TORSDOF 7
