REMARK  Name = ZINC08202972
REMARK  12 active torsions:
REMARK  status: ('A' for Active; 'I' for Inactive)
REMARK    1  A    between atoms: C_1  and  C_2
REMARK    2  A    between atoms: C_4  and  C_29
REMARK    3  A    between atoms: C_5  and  N_9
REMARK    4  A    between atoms: C_6  and  C_8
REMARK    5  A    between atoms: C_10  and  C_12
REMARK    6  A    between atoms: C_12  and  N_62
REMARK    7  A    between atoms: C_13  and  N_62
REMARK    8  A    between atoms: C_14  and  C_16
REMARK    9  A    between atoms: C_14  and  C_17
REMARK   10  A    between atoms: C_14  and  N_62
REMARK   11  A    between atoms: N_19  and  C_20
REMARK   12  A    between atoms: C_26  and  C_28
REMARK                            x       y       z     vdW  Elec       q    Type
REMARK                         _______ _______ _______ _____ _____    ______ ____
ROOT
ATOM      1  C   UNL     1      -5.183   0.244   4.122  0.00  0.00    -0.094 C 
ATOM      2  N   UNL     1      -4.599   1.372   3.367  0.00  0.00    +0.391 N 
ATOM      3  H   UNL     1      -4.979   1.367   2.413  0.00  0.00    -0.080 HD
ENDROOT
BRANCH   2   4
ATOM      4  C   UNL     1      -3.130   1.229   3.299  0.00  0.00    +0.016 C 
ATOM      5  C   UNL     1      -2.502   1.492   4.669  0.00  0.00    -0.004 C 
BRANCH   4   6
ATOM      6  C   UNL     1      -2.590   2.220   2.301  0.00  0.00    +0.199 C 
ATOM      7  O   UNL     1      -3.320   3.069   1.835  0.00  0.00    -0.278 OA
ATOM      8  N   UNL     1      -1.297   2.163   1.925  0.00  0.00    -0.314 N 
ATOM      9  H   UNL     1      -0.714   1.483   2.298  0.00  0.00    +0.149 HD
BRANCH   8  10
ATOM     10  C   UNL     1      -0.773   3.127   0.954  0.00  0.00    +0.076 C 
ATOM     11  C   UNL     1      -1.055   2.626  -0.464  0.00  0.00    +0.022 C 
ATOM     12  C   UNL     1      -0.374   1.272  -0.672  0.00  0.00    +0.002 C 
ATOM     13  C   UNL     1       1.135   1.424  -0.475  0.00  0.00    +0.000 C 
ATOM     14  C   UNL     1       1.417   1.924   0.943  0.00  0.00    +0.005 C 
ATOM     15  C   UNL     1       0.737   3.279   1.151  0.00  0.00    +0.006 C 
ATOM     16  C   UNL     1       1.018   3.779   2.569  0.00  0.00    +0.009 C 
ENDBRANCH   8  10
ENDBRANCH   4   6
ENDBRANCH   2   4
BRANCH   2  17
ATOM     17  C   UNL     1      -4.952   2.652   4.016  0.00  0.00    +0.020 C 
BRANCH  17  19
ATOM     18  N   UNL     1      -7.000   3.993   4.376  0.00  0.00    -0.287 N 
ATOM     19  C   UNL     1      -6.436   2.876   3.875  0.00  0.00    +0.201 C 
ATOM     20  O   UNL     1      -7.123   2.050   3.311  0.00  0.00    -0.278 OA
ATOM     21  H   UNL     1      -6.463   4.620   4.886  0.00  0.00    +0.155 HD
BRANCH  18  26
ATOM     22  C   UNL     1     -12.507   5.030   3.496  0.00  0.00    +0.044 C 
ATOM     23  C   UNL     1     -11.044   4.755   3.730  0.00  0.00    -0.050 A 
ATOM     24  C   UNL     1     -10.530   4.799   5.013  0.00  0.00    +0.008 A 
ATOM     25  C   UNL     1      -9.190   4.547   5.230  0.00  0.00    -0.029 A 
ATOM     26  C   UNL     1      -8.358   4.249   4.159  0.00  0.00    +0.039 A 
ATOM     27  C   UNL     1      -8.876   4.211   2.871  0.00  0.00    -0.029 A 
ATOM     28  C   UNL     1     -10.218   4.459   2.661  0.00  0.00    +0.008 A 
ATOM     29  C   UNL     1      -7.976   3.895   1.704  0.00  0.00    +0.045 C 
ATOM     30  C   UNL     1      -8.630   4.595   6.629  0.00  0.00    +0.045 C 
ENDBRANCH  18  26
ENDBRANCH  17  19
ENDBRANCH   2  17
TORSDOF 6
