REMARK  Name = ZINC05126710
REMARK  4 active torsions:
REMARK  status: ('A' for Active; 'I' for Inactive)
REMARK    1  A    between atoms: C_11  and  S_13
REMARK    2  A    between atoms: S_13  and  C_14
REMARK    3  A    between atoms: C_14  and  C_15
REMARK    4  A    between atoms: N_17  and  C_18
REMARK                            x       y       z     vdW  Elec       q    Type
REMARK                         _______ _______ _______ _____ _____    ______ ____
ROOT
ATOM      1  S   UNL     1      -2.656  -2.899   0.038  0.00  0.00    -0.078 S 
ENDROOT
BRANCH   1  12
ATOM      2  C   UNL     1       2.382   1.418   0.058  0.00  0.00    +0.001 A 
ATOM      3  C   UNL     1       1.163   2.083   0.065  0.00  0.00    +0.002 A 
ATOM      4  C   UNL     1      -0.016   1.391   0.062  0.00  0.00    +0.028 A 
ATOM      5  C   UNL     1       0.003  -0.007   0.052  0.00  0.00    +0.079 A 
ATOM      6  C   UNL     1       1.246  -0.680   0.045  0.00  0.00    +0.065 A 
ATOM      7  C   UNL     1       2.433   0.051   0.048  0.00  0.00    +0.015 A 
ATOM      8  C   UNL     1       1.239  -2.149   0.035  0.00  0.00    +0.260 A 
ATOM      9  O   UNL     1       2.277  -2.785   0.028  0.00  0.00    -0.267 OA
ATOM     10  N   UNL     1       0.036  -2.768   0.033  0.00  0.00    -0.301 N 
ATOM     11  H   UNL     1      -0.018  -3.867   0.025  0.00  0.00    +0.171 HD
ATOM     12  C   UNL     1      -1.119  -2.038   0.040  0.00  0.00    +0.170 A 
ATOM     13  N   UNL     1      -1.136  -0.729   0.049  0.00  0.00    -0.223 NA
ENDBRANCH   1  12
BRANCH   1  14
ATOM     14  C   UNL     1      -3.801  -1.496   0.050  0.00  0.00    +0.173 C 
BRANCH  14  15
ATOM     15  C   UNL     1      -5.219  -2.006   0.049  0.00  0.00    +0.228 C 
ATOM     16  O   UNL     1      -5.435  -3.199   0.041  0.00  0.00    -0.275 OA
ATOM     17  N   UNL     1      -6.248  -1.135   0.057  0.00  0.00    -0.284 N 
ATOM     18  H   UNL     1      -6.054  -0.055   0.138  0.00  0.00    +0.155 HD
BRANCH  17  19
ATOM     19  C   UNL     1      -7.563  -1.605  -0.038  0.00  0.00    +0.053 A 
ATOM     20  C   UNL     1      -7.915  -2.812   0.551  0.00  0.00    +0.025 A 
ATOM     21  C   UNL     1      -9.214  -3.273   0.456  0.00  0.00    +0.003 A 
ATOM     22  C   UNL     1     -10.164  -2.534  -0.225  0.00  0.00    +0.021 A 
ATOM     23  C   UNL     1      -9.818  -1.331  -0.813  0.00  0.00    +0.061 A 
ATOM     24  C   UNL     1      -8.520  -0.861  -0.717  0.00  0.00    +0.080 A 
ATOM     25 CL   UNL     1      -8.087   0.652  -1.449  0.00  0.00    -0.080 Cl
ATOM     26 CL   UNL     1     -11.014  -0.407  -1.667  0.00  0.00    -0.082 Cl
ENDBRANCH  17  19
ENDBRANCH  14  15
ENDBRANCH   1  14
TORSDOF 4
