REMARK  Name = ZINC09949817
REMARK  8 active torsions:
REMARK  status: ('A' for Active; 'I' for Inactive)
REMARK    1  A    between atoms: C_1  and  C_2
REMARK    2  A    between atoms: C_2  and  C_4
REMARK    3  A    between atoms: C_2  and  N_59
REMARK    4  A    between atoms: C_7  and  C_19
REMARK    5  A    between atoms: C_10  and  C_12
REMARK    6  A    between atoms: C_24  and  N_59
REMARK    7  A    between atoms: C_25  and  C_26
REMARK    8  A    between atoms: C_25  and  N_59
REMARK                            x       y       z     vdW  Elec       q    Type
REMARK                         _______ _______ _______ _____ _____    ______ ____
ROOT
ATOM      1  C   UNL     1      -0.603   6.655  -0.304  0.00  0.00    +0.222 C 
ATOM      2  O   UNL     1      -0.242   7.809  -0.205  0.00  0.00    -0.276 OA
ATOM      3  N   UNL     1       0.267   5.708  -0.707  0.00  0.00    -0.183 N 
ATOM      4  C   UNL     1       1.678   5.936  -1.058  0.00  0.00    +0.172 C 
ATOM      5  C   UNL     1       2.187   4.532  -1.439  0.00  0.00    +0.090 C 
ATOM      6  C   UNL     1       0.976   3.644  -1.256  0.00  0.00    +0.069 C 
ATOM      7  N   UNL     1      -0.024   4.355  -0.864  0.00  0.00    -0.181 NA
ENDROOT
BRANCH   6   8
ATOM      8  C   UNL     1       0.944   2.189  -1.497  0.00  0.00    -0.002 A 
ATOM      9  C   UNL     1      -0.237   1.471  -1.294  0.00  0.00    +0.011 A 
ATOM     10  C   UNL     1      -0.260   0.111  -1.521  0.00  0.00    +0.020 A 
ATOM     11  C   UNL     1       0.883  -0.543  -1.949  0.00  0.00    +0.041 A 
ATOM     12  C   UNL     1       2.057   0.164  -2.152  0.00  0.00    +0.020 A 
ATOM     13  C   UNL     1       2.094   1.524  -1.929  0.00  0.00    +0.011 A 
ATOM     14 CL   UNL     1       0.845  -2.255  -2.233  0.00  0.00    -0.084 Cl
ENDBRANCH   6   8
BRANCH   4  15
ATOM     15  C   UNL     1       1.791   6.877  -2.230  0.00  0.00    +0.128 A 
ATOM     16  C   UNL     1       2.768   7.781  -2.421  0.00  0.00    +0.046 A 
ATOM     17  C   UNL     1       2.483   8.443  -3.637  0.00  0.00    +0.041 A 
ATOM     18  C   UNL     1       1.348   7.903  -4.117  0.00  0.00    +0.195 A 
ATOM     19  O   UNL     1       0.937   6.951  -3.263  0.00  0.00    -0.466 OA
ENDBRANCH   4  15
BRANCH   1  21
ATOM     20  C   UNL     1      -2.053   5.476   1.326  0.00  0.00    -0.004 C 
ATOM     21  C   UNL     1      -2.026   6.281   0.025  0.00  0.00    +0.018 C 
BRANCH  21  23
ATOM     22  C   UNL     1      -4.263   7.188   0.202  0.00  0.00    -0.095 C 
ATOM     23  N   UNL     1      -2.823   7.518   0.164  0.00  0.00    +0.390 N 
ATOM     24  H   UNL     1      -2.641   8.125  -0.643  0.00  0.00    -0.081 HD
BRANCH  23  25
ATOM     25  C   UNL     1      -2.436   8.232   1.399  0.00  0.00    -0.003 C 
BRANCH  25  26
ATOM     26  C   UNL     1      -3.098   9.586   1.405  0.00  0.00    +0.094 A 
ATOM     27  N   UNL     1      -2.860  10.414   2.455  0.00  0.00    -0.312 N 
ATOM     28  H   UNL     1      -2.277  10.124   3.174  0.00  0.00    +0.170 HD
ATOM     29  C   UNL     1      -3.427  11.643   2.506  0.00  0.00    +0.259 A 
ATOM     30  O   UNL     1      -3.220  12.396   3.439  0.00  0.00    -0.267 OA
ATOM     31  C   UNL     1      -4.307  12.028   1.392  0.00  0.00    +0.065 A 
ATOM     32  C   UNL     1      -4.942  13.268   1.350  0.00  0.00    +0.015 A 
ATOM     33  C   UNL     1      -5.757  13.577   0.283  0.00  0.00    +0.001 A 
ATOM     34  C   UNL     1      -5.947  12.665  -0.747  0.00  0.00    +0.002 A 
ATOM     35  C   UNL     1      -5.328  11.436  -0.725  0.00  0.00    +0.028 A 
ATOM     36  C   UNL     1      -4.498  11.099   0.346  0.00  0.00    +0.078 A 
ATOM     37  N   UNL     1      -3.869   9.899   0.409  0.00  0.00    -0.236 NA
ENDBRANCH  25  26
ENDBRANCH  23  25
ENDBRANCH  21  23
ENDBRANCH   1  21
TORSDOF 6
