REMARK  Name = ZINC39969701
REMARK  8 active torsions:
REMARK  status: ('A' for Active; 'I' for Inactive)
REMARK    1  A    between atoms: C_2  and  C_3
REMARK    2  A    between atoms: C_3  and  N_4
REMARK    3  A    between atoms: C_5  and  C_25
REMARK    4  A    between atoms: C_9  and  S_11
REMARK    5  A    between atoms: S_11  and  C_12
REMARK    6  A    between atoms: C_12  and  C_13
REMARK    7  A    between atoms: C_25  and  C_26
REMARK    8  A    between atoms: N_28  and  C_29
REMARK                            x       y       z     vdW  Elec       q    Type
REMARK                         _______ _______ _______ _____ _____    ______ ____
ROOT
ATOM      1  N   UNL     1      -1.316  -1.701  -1.100  0.00  0.00    -0.257 NA
ATOM      2  C   UNL     1      -2.482  -2.607  -1.032  0.00  0.00    +0.149 C 
ATOM      3  N   UNL     1      -3.264  -2.380  -2.269  0.00  0.00    -0.237 NA
ATOM      4  N   UNL     1      -2.288  -1.836  -3.227  0.00  0.00    -0.229 NA
ATOM      5  C   UNL     1      -1.436  -0.962  -2.378  0.00  0.00    +0.200 C 
ATOM      6  H   UNL     1      -3.661  -3.243  -2.609  0.00  0.00    +0.142 HD
ATOM      7  H   UNL     1      -2.748  -1.302  -3.948  0.00  0.00    +0.143 HD
ENDROOT
BRANCH   1   8
ATOM      8  C   UNL     1      -1.299  -0.778   0.043  0.00  0.00    +0.115 C 
BRANCH   8  10
ATOM      9  C   UNL     1      -0.022   1.303   0.059  0.00  0.00    +0.005 C 
ATOM     10  C   UNL     1      -0.004  -0.007   0.047  0.00  0.00    -0.019 C 
ENDBRANCH   8  10
ENDBRANCH   1   8
BRANCH   5  11
ATOM     11  S   UNL     1       0.196  -0.735  -3.136  0.00  0.00    -0.117 S 
BRANCH  11  12
ATOM     12  C   UNL     1       0.798  -2.427  -3.394  0.00  0.00    +0.146 C 
BRANCH  12  13
ATOM     13  C   UNL     1       2.165  -2.382  -4.028  0.00  0.00    +0.120 A 
ATOM     14  N   UNL     1       2.785  -3.558  -4.307  0.00  0.00    -0.310 N 
ATOM     15  H   UNL     1       2.343  -4.396  -4.096  0.00  0.00    +0.170 HD
ATOM     16  C   UNL     1       4.013  -3.572  -4.876  0.00  0.00    +0.259 A 
ATOM     17  O   UNL     1       4.579  -4.619  -5.132  0.00  0.00    -0.267 OA
ATOM     18  C   UNL     1       4.635  -2.274  -5.174  0.00  0.00    +0.065 A 
ATOM     19  C   UNL     1       5.896  -2.178  -5.759  0.00  0.00    +0.015 A 
ATOM     20  C   UNL     1       6.433  -0.935  -6.016  0.00  0.00    +0.001 A 
ATOM     21  C   UNL     1       5.728   0.218  -5.697  0.00  0.00    +0.002 A 
ATOM     22  C   UNL     1       4.481   0.145  -5.118  0.00  0.00    +0.028 A 
ATOM     23  C   UNL     1       3.915  -1.103  -4.848  0.00  0.00    +0.078 A 
ATOM     24  N   UNL     1       2.687  -1.221  -4.284  0.00  0.00    -0.233 NA
ENDBRANCH  12  13
ENDBRANCH  11  12
ENDBRANCH   5  11
BRANCH   2  25
ATOM     25  C   UNL     1      -2.013  -4.061  -0.967  0.00  0.00    +0.132 C 
BRANCH  25  26
ATOM     26  C   UNL     1      -3.211  -4.973  -0.898  0.00  0.00    +0.220 C 
ATOM     27  O   UNL     1      -4.330  -4.505  -0.902  0.00  0.00    -0.275 OA
ATOM     28  N   UNL     1      -3.039  -6.308  -0.833  0.00  0.00    -0.284 N 
ATOM     29  H   UNL     1      -2.149  -6.687  -0.911  0.00  0.00    +0.155 HD
BRANCH  28  30
ATOM     30  C   UNL     1      -4.144  -7.148  -0.653  0.00  0.00    +0.052 A 
ATOM     31  C   UNL     1      -5.294  -6.664  -0.043  0.00  0.00    +0.025 A 
ATOM     32  C   UNL     1      -6.383  -7.495   0.133  0.00  0.00    +0.002 A 
ATOM     33  C   UNL     1      -6.330  -8.809  -0.298  0.00  0.00    +0.002 A 
ATOM     34  C   UNL     1      -5.187  -9.294  -0.905  0.00  0.00    +0.022 A 
ATOM     35  C   UNL     1      -4.095  -8.466  -1.090  0.00  0.00    +0.062 A 
ATOM     36 CL   UNL     1      -2.663  -9.075  -1.859  0.00  0.00    -0.082 Cl
ENDBRANCH  28  30
ENDBRANCH  25  26
ENDBRANCH   2  25
TORSDOF 8
