REMARK  Name = ZINC11592335
REMARK  9 active torsions:
REMARK  status: ('A' for Active; 'I' for Inactive)
REMARK    1  A    between atoms: C_1  and  C_2
REMARK    2  A    between atoms: C_2  and  C_4
REMARK    3  A    between atoms: C_2  and  S_20
REMARK    4  A    between atoms: N_6  and  C_7
REMARK    5  A    between atoms: C_7  and  C_8
REMARK    6  A    between atoms: N_10  and  C_11
REMARK    7  A    between atoms: S_20  and  C_21
REMARK    8  A    between atoms: C_24  and  C_27
REMARK    9  A    between atoms: N_25  and  N_26
REMARK                            x       y       z     vdW  Elec       q    Type
REMARK                         _______ _______ _______ _____ _____    ______ ____
ROOT
ATOM      1  C   UNL     1       3.895   7.507   0.427  0.00  0.00    +0.227 C 
ATOM      2  O   UNL     1       2.962   8.281   0.459  0.00  0.00    -0.275 OA
ATOM      3  N   UNL     1       3.669   6.183   0.312  0.00  0.00    -0.306 N 
ATOM      4  H   UNL     1       4.416   5.564   0.286  0.00  0.00    +0.149 HD
ENDROOT
BRANCH   1   6
ATOM      5  C   UNL     1       5.825   7.851   1.945  0.00  0.00    +0.029 C 
ATOM      6  C   UNL     1       5.308   8.025   0.516  0.00  0.00    +0.137 C 
BRANCH   6   7
ATOM      7  S   UNL     1       5.335   9.780   0.074  0.00  0.00    -0.072 S 
BRANCH   7   8
ATOM      8  C   UNL     1       7.071  10.078   0.112  0.00  0.00    +0.209 A 
ATOM      9  N   UNL     1       8.006   9.200   0.395  0.00  0.00    -0.121 NA
ATOM     10  N   UNL     1       9.165   9.751   0.332  0.00  0.00    -0.126 NA
ATOM     11  C   UNL     1       9.042  11.018   0.004  0.00  0.00    +0.188 A 
ATOM     12  N   UNL     1       7.696  11.265  -0.153  0.00  0.00    -0.223 N 
BRANCH  11  13
ATOM     13  C   UNL     1      10.136  11.987  -0.170  0.00  0.00    +0.058 A 
ATOM     14  C   UNL     1      11.482  11.758  -0.303  0.00  0.00    +0.019 A 
ATOM     15  C   UNL     1      12.324  12.836  -0.461  0.00  0.00    +0.008 A 
ATOM     16  C   UNL     1      11.801  14.089  -0.468  0.00  0.00    +0.046 A 
ATOM     17  S   UNL     1      10.057  13.769  -0.255  0.00  0.00    -0.093 S 
ENDBRANCH  11  13
BRANCH  12  18
ATOM     18  N   UNL     1       7.109  12.448  -0.498  0.00  0.00    -0.295 N 
ATOM     19  H   UNL     1       6.893  12.997   0.321  0.00  0.00    +0.163 HD
ATOM     20  H   UNL     1       7.690  12.968  -1.138  0.00  0.00    +0.163 HD
ENDBRANCH  12  18
ENDBRANCH   7   8
ENDBRANCH   6   7
ENDBRANCH   1   6
BRANCH   3  21
ATOM     21  C   UNL     1       2.296   5.679   0.225  0.00  0.00    +0.200 C 
BRANCH  21  22
ATOM     22  C   UNL     1       2.319   4.177   0.104  0.00  0.00    +0.234 C 
ATOM     23  O   UNL     1       3.378   3.586   0.091  0.00  0.00    -0.274 OA
ATOM     24  N   UNL     1       1.163   3.491   0.009  0.00  0.00    -0.282 N 
ATOM     25  H   UNL     1       0.321   3.967  -0.061  0.00  0.00    +0.155 HD
BRANCH  24  26
ATOM     26  C   UNL     1       1.178   2.090   0.013  0.00  0.00    +0.072 A 
ATOM     27  C   UNL     1       2.230   1.407   0.608  0.00  0.00    +0.029 A 
ATOM     28  C   UNL     1       2.244   0.026   0.611  0.00  0.00    +0.043 A 
ATOM     29  C   UNL     1       1.210  -0.680   0.022  0.00  0.00    +0.161 A 
ATOM     30  C   UNL     1       0.156  -0.003  -0.574  0.00  0.00    +0.195 A 
ATOM     31  C   UNL     1       0.139   1.381  -0.579  0.00  0.00    +0.182 A 
ATOM     32  F   UNL     1      -0.884   2.043  -1.163  0.00  0.00    -0.200 F 
ATOM     33  F   UNL     1      -0.852  -0.694  -1.149  0.00  0.00    -0.199 F 
ATOM     34  F   UNL     1       1.226  -2.031   0.026  0.00  0.00    -0.202 F 
ENDBRANCH  24  26
ENDBRANCH  21  22
ENDBRANCH   3  21
TORSDOF 8
