REMARK  Name = ZINC36145482
REMARK  10 active torsions:
REMARK  status: ('A' for Active; 'I' for Inactive)
REMARK    1  A    between atoms: C_4  and  C_7
REMARK    2  A    between atoms: C_7  and  C_8
REMARK    3  A    between atoms: C_7  and  C_14
REMARK    4  A    between atoms: C_7  and  O_33
REMARK    5  A    between atoms: C_17  and  C_19
REMARK    6  A    between atoms: C_19  and  N_20
REMARK    7  A    between atoms: N_20  and  C_21
REMARK    8  A    between atoms: N_20  and  C_27
REMARK    9  A    between atoms: C_21  and  C_22
REMARK   10  A    between atoms: C_27  and  C_28
REMARK                            x       y       z     vdW  Elec       q    Type
REMARK                         _______ _______ _______ _____ _____    ______ ____
ROOT
ATOM      1  C   UNL     1       4.055  -1.822  -0.377  0.00  0.00    +0.146 A 
ATOM      2  C   UNL     1       5.328  -1.399  -0.485  0.00  0.00    +0.048 A 
ATOM      3  C   UNL     1       5.656  -1.432  -1.859  0.00  0.00    +0.043 A 
ATOM      4  C   UNL     1       4.564  -1.874  -2.510  0.00  0.00    +0.089 A 
ATOM      5  O   UNL     1       3.600  -2.114  -1.606  0.00  0.00    -0.463 OA
ENDROOT
BRANCH   1   6
ATOM      6  C   UNL     1       3.275  -1.952   0.906  0.00  0.00    +0.174 C 
BRANCH   6  10
ATOM      7  C   UNL     1      -0.878  -1.335   0.118  0.00  0.00    +0.000 A 
ATOM      8  C   UNL     1      -0.215  -2.400  -0.463  0.00  0.00    +0.000 A 
ATOM      9  C   UNL     1       1.129  -2.600  -0.208  0.00  0.00    +0.007 A 
ATOM     10  C   UNL     1       1.810  -1.734   0.627  0.00  0.00    -0.004 A 
ATOM     11  C   UNL     1       1.148  -0.668   1.207  0.00  0.00    +0.007 A 
ATOM     12  C   UNL     1      -0.196  -0.470   0.954  0.00  0.00    +0.000 A 
ENDBRANCH   6  10
BRANCH   6  13
ATOM     13  C   UNL     1       3.478  -3.331   1.479  0.00  0.00    -0.004 A 
ATOM     14  C   UNL     1       3.493  -4.432   0.642  0.00  0.00    +0.007 A 
ATOM     15  C   UNL     1       3.679  -5.697   1.168  0.00  0.00    +0.000 A 
ATOM     16  C   UNL     1       3.849  -5.861   2.530  0.00  0.00    +0.000 A 
ATOM     17  C   UNL     1       3.835  -4.761   3.366  0.00  0.00    +0.000 A 
ATOM     18  C   UNL     1       3.654  -3.495   2.840  0.00  0.00    +0.007 A 
ENDBRANCH   6  13
BRANCH   6  19
ATOM     19  O   UNL     1       3.733  -0.975   1.843  0.00  0.00    -0.372 OA
ATOM     20  H   UNL     1       4.670  -1.056   2.069  0.00  0.00    +0.212 HD
ENDBRANCH   6  19
ENDBRANCH   1   6
BRANCH   4  21
ATOM     21  C   UNL     1       4.446  -2.071  -3.999  0.00  0.00    -0.002 C 
BRANCH  21  22
ATOM     22  N   UNL     1       4.853  -3.440  -4.346  0.00  0.00    +0.394 N 
ATOM     23  H   UNL     1       5.780  -3.615  -3.989  0.00  0.00    -0.080 HD
BRANCH  22  24
ATOM     24  C   UNL     1       3.910  -4.397  -3.750  0.00  0.00    -0.002 C 
BRANCH  24  25
ATOM     25  C   UNL     1       4.397  -5.801  -3.998  0.00  0.00    +0.089 A 
ATOM     26  C   UNL     1       5.292  -6.468  -3.246  0.00  0.00    +0.042 A 
ATOM     27  C   UNL     1       5.454  -7.742  -3.836  0.00  0.00    +0.041 A 
ATOM     28  C   UNL     1       4.650  -7.778  -4.913  0.00  0.00    +0.195 A 
ATOM     29  O   UNL     1       4.008  -6.602  -5.003  0.00  0.00    -0.470 OA
ENDBRANCH  24  25
ENDBRANCH  22  24
BRANCH  22  30
ATOM     30  C   UNL     1       4.852  -3.596  -5.806  0.00  0.00    -0.002 C 
BRANCH  30  31
ATOM     31  C   UNL     1       5.920  -2.719  -6.406  0.00  0.00    +0.089 A 
ATOM     32  C   UNL     1       7.220  -3.041  -6.539  0.00  0.00    +0.042 A 
ATOM     33  C   UNL     1       7.856  -1.934  -7.146  0.00  0.00    +0.041 A 
ATOM     34  C   UNL     1       6.908  -1.002  -7.349  0.00  0.00    +0.195 A 
ATOM     35  O   UNL     1       5.736  -1.485  -6.903  0.00  0.00    -0.470 OA
ENDBRANCH  30  31
ENDBRANCH  22  30
ENDBRANCH  21  22
ENDBRANCH   4  21
TORSDOF 10
