REMARK  Name = ZINC61700328
REMARK  7 active torsions:
REMARK  status: ('A' for Active; 'I' for Inactive)
REMARK    1  A    between atoms: C_1  and  C_2
REMARK    2  A    between atoms: C_2  and  C_4
REMARK    3  A    between atoms: C_2  and  N_21
REMARK    4  A    between atoms: C_7  and  S_11
REMARK    5  A    between atoms: S_11  and  C_12
REMARK    6  A    between atoms: C_18  and  N_20
REMARK    7  A    between atoms: N_21  and  C_22
REMARK                            x       y       z     vdW  Elec       q    Type
REMARK                         _______ _______ _______ _____ _____    ______ ____
ROOT
ATOM      1  C   UNL     1       1.327  -0.775  -0.856  0.00  0.00    -0.061 A 
ATOM      2  C   UNL     1       0.471  -0.730  -1.942  0.00  0.00    +0.003 A 
ATOM      3  C   UNL     1       0.925  -1.087  -3.196  0.00  0.00    +0.016 A 
ATOM      4  C   UNL     1       2.243  -1.492  -3.367  0.00  0.00    +0.030 A 
ATOM      5  C   UNL     1       3.100  -1.537  -2.274  0.00  0.00    +0.032 A 
ATOM      6  C   UNL     1       2.640  -1.173  -1.023  0.00  0.00    +0.018 A 
ATOM      7 BR   UNL     1       4.895  -2.088  -2.500  0.00  0.00    -0.049 Br
ENDROOT
BRANCH   1   9
ATOM      8  C   UNL     1       0.808   1.141   0.629  0.00  0.00    -0.009 C 
ATOM      9  C   UNL     1       0.827  -0.384   0.511  0.00  0.00    -0.044 C 
BRANCH   9  10
ATOM     10  N   UNL     1      -0.532  -0.907   0.704  0.00  0.00    +0.382 N 
ATOM     11  C   UNL     1      -0.973  -0.630   2.077  0.00  0.00    -0.100 C 
ATOM     12  H   UNL     1      -1.160  -0.461   0.052  0.00  0.00    -0.085 HD
ATOM     13  H   UNL     1      -0.534  -1.904   0.545  0.00  0.00    -0.085 HD
ENDBRANCH   9  10
ENDBRANCH   1   9
BRANCH   4  14
ATOM     14  S   UNL     1       2.826  -1.950  -4.966  0.00  0.00    -0.051 S 
BRANCH  14  15
ATOM     15  C   UNL     1       3.783  -0.564  -5.483  0.00  0.00    +0.176 A 
ATOM     16  N   UNL     1       4.472  -0.629  -6.656  0.00  0.00    -0.302 N 
ATOM     17  H   UNL     1       4.432  -1.433  -7.197  0.00  0.00    +0.171 HD
ATOM     18  C   UNL     1       5.210   0.423  -7.068  0.00  0.00    +0.254 A 
ATOM     19  O   UNL     1       5.831   0.374  -8.118  0.00  0.00    -0.268 OA
ATOM     20  C   UNL     1       5.253   1.572  -6.271  0.00  0.00    +0.113 A 
ATOM     21  C   UNL     1       4.533   1.587  -5.084  0.00  0.00    +0.124 A 
ATOM     22  N   UNL     1       3.814   0.516  -4.730  0.00  0.00    -0.208 NA
BRANCH  21  23
ATOM     23  N   UNL     1       4.554   2.706  -4.276  0.00  0.00    -0.343 N 
ATOM     24  H   UNL     1       5.073   3.483  -4.537  0.00  0.00    +0.144 HD
ATOM     25  H   UNL     1       4.050   2.715  -3.447  0.00  0.00    +0.144 HD
ENDBRANCH  21  23
ENDBRANCH  14  15
ENDBRANCH   4  14
TORSDOF 5
