REMARK  Name = ZINC09472778
REMARK  9 active torsions:
REMARK  status: ('A' for Active; 'I' for Inactive)
REMARK    1  A    between atoms: C_1  and  C_2
REMARK    2  A    between atoms: C_2  and  N_52
REMARK    3  A    between atoms: C_8  and  N_13
REMARK    4  A    between atoms: C_9  and  C_10
REMARK    5  A    between atoms: C_14  and  C_16
REMARK    6  A    between atoms: C_16  and  C_17
REMARK    7  A    between atoms: C_17  and  C_18
REMARK    8  A    between atoms: C_18  and  S_19
REMARK    9  A    between atoms: S_19  and  C_20
REMARK                            x       y       z     vdW  Elec       q    Type
REMARK                         _______ _______ _______ _____ _____    ______ ____
ROOT
ATOM      1  C   UNL     1       3.691  10.344  -0.420  0.00  0.00    -0.074 C 
ATOM      2  C   UNL     1       4.369   9.039   0.006  0.00  0.00    +0.018 C 
ATOM      3  C   UNL     1       3.317   7.936   0.012  0.00  0.00    -0.027 A 
ATOM      4  C   UNL     1       2.002   8.253   0.028  0.00  0.00    -0.021 A 
ATOM      5  S   UNL     1       1.163   6.696   0.028  0.00  0.00    -0.079 S 
ATOM      6  C   UNL     1       2.535   5.638   0.008  0.00  0.00    +0.084 A 
ATOM      7  C   UNL     1       3.612   6.516   0.008  0.00  0.00    +0.068 A 
ATOM      8  C   UNL     1       1.421   9.632   0.043  0.00  0.00    -0.035 C 
ATOM      9  N   UNL     1       2.500  10.575   0.424  0.00  0.00    +0.383 N 
ATOM     10  H   UNL     1       2.752  10.415   1.407  0.00  0.00    -0.081 HD
ENDROOT
BRANCH   7  11
ATOM     11  C   UNL     1       4.994   6.025  -0.000  0.00  0.00    +0.244 C 
ATOM     12  O   UNL     1       5.563   5.827  -1.058  0.00  0.00    -0.270 OA
ATOM     13  N   UNL     1       5.633   5.793   1.163  0.00  0.00    -0.325 N 
ATOM     14  H   UNL     1       5.180   5.951   2.006  0.00  0.00    +0.145 HD
ATOM     15  H   UNL     1       6.547   5.469   1.158  0.00  0.00    +0.145 HD
ENDBRANCH   7  11
BRANCH   6  16
ATOM     16  N   UNL     1       2.554   4.252   0.001  0.00  0.00    -0.279 N 
ATOM     17  C   UNL     1       1.396   3.562   0.008  0.00  0.00    +0.218 C 
ATOM     18  O   UNL     1       0.338   4.154   0.021  0.00  0.00    -0.275 OA
ATOM     19  H   UNL     1       3.401   3.778  -0.010  0.00  0.00    +0.155 HD
BRANCH  17  20
ATOM     20  C   UNL     1       1.417   2.055  -0.000  0.00  0.00    +0.097 C 
BRANCH  20  21
ATOM     21  C   UNL     1      -0.019   1.526   0.010  0.00  0.00    +0.020 C 
BRANCH  21  22
ATOM     22  C   UNL     1       0.002  -0.004   0.002  0.00  0.00    +0.075 C 
BRANCH  22  23
ATOM     23  S   UNL     1      -1.700  -0.632   0.015  0.00  0.00    -0.125 S 
BRANCH  23  24
ATOM     24  C   UNL     1      -1.508  -2.383   0.004  0.00  0.00    +0.008 A 
ATOM     25  C   UNL     1      -0.237  -2.945  -0.017  0.00  0.00    +0.015 A 
ATOM     26  C   UNL     1      -0.090  -4.318  -0.020  0.00  0.00    +0.001 A 
ATOM     27  C   UNL     1      -1.207  -5.134  -0.013  0.00  0.00    +0.000 A 
ATOM     28  C   UNL     1      -2.473  -4.579   0.001  0.00  0.00    +0.001 A 
ATOM     29  C   UNL     1      -2.628  -3.207   0.010  0.00  0.00    +0.015 A 
ENDBRANCH  23  24
ENDBRANCH  22  23
ENDBRANCH  21  22
ENDBRANCH  20  21
ENDBRANCH  17  20
ENDBRANCH   6  16
BRANCH   9  31
ATOM     30  C   UNL     1       1.749  12.276  -1.204  0.00  0.00    -0.017 C 
ATOM     31  C   UNL     1       2.033  11.969   0.268  0.00  0.00    -0.082 C 
ENDBRANCH   9  31
TORSDOF 8
