REMARK  Name = ZINC18200549
REMARK  2 active torsions:
REMARK  status: ('A' for Active; 'I' for Inactive)
REMARK    1  A    between atoms: C_7  and  C_11
REMARK    2  A    between atoms: C_29  and  C_32
REMARK                            x       y       z     vdW  Elec       q    Type
REMARK                         _______ _______ _______ _____ _____    ______ ____
ROOT
ATOM      1  C   UNL     1      -5.044   7.421   0.071  0.00  0.00    +0.093 C 
ATOM      2  C   UNL     1      -5.203   8.117  -1.249  0.00  0.00    +0.067 A 
ATOM      3  C   UNL     1      -4.654   7.599  -2.383  0.00  0.00    +0.113 A 
ATOM      4  N   UNL     1      -4.825   8.253  -3.579  0.00  0.00    -0.295 N 
ATOM      5  H   UNL     1      -4.426   7.875  -4.415  0.00  0.00    +0.172 HD
ATOM      6  C   UNL     1      -5.528   9.400  -3.632  0.00  0.00    +0.328 A 
ATOM      7  O   UNL     1      -5.671   9.966  -4.699  0.00  0.00    -0.247 OA
ATOM      8  N   UNL     1      -6.074   9.929  -2.522  0.00  0.00    -0.275 N 
ATOM      9  H   UNL     1      -6.591  10.783  -2.583  0.00  0.00    +0.173 HD
ATOM     10  C   UNL     1      -5.930   9.318  -1.330  0.00  0.00    +0.260 A 
ATOM     11  O   UNL     1      -6.427   9.803  -0.328  0.00  0.00    -0.267 OA
ATOM     12  N   UNL     1      -3.935   6.431  -2.330  0.00  0.00    -0.303 N 
ATOM     13  C   UNL     1      -3.419   5.983  -1.143  0.00  0.00    +0.017 C 
ATOM     14  C   UNL     1      -3.912   6.426   0.032  0.00  0.00    +0.024 C 
ATOM     15  C   UNL     1      -3.388   5.971   1.255  0.00  0.00    +0.162 C 
ATOM     16  O   UNL     1      -3.842   6.405   2.296  0.00  0.00    -0.292 OA
ATOM     17  C   UNL     1      -2.278   4.957   1.300  0.00  0.00    +0.088 C 
ATOM     18  C   UNL     1      -2.355   4.080   0.046  0.00  0.00    +0.039 C 
ATOM     19  C   UNL     1      -2.287   4.986  -1.185  0.00  0.00    +0.060 C 
ATOM     20  H   UNL     1      -3.791   5.919  -3.140  0.00  0.00    +0.153 HD
ENDROOT
BRANCH   1  27
ATOM     21  C   UNL     1      -7.386   8.345   3.527  0.00  0.00    +0.001 A 
ATOM     22  C   UNL     1      -8.564   7.653   3.800  0.00  0.00    +0.002 A 
ATOM     23  C   UNL     1      -9.004   6.664   2.976  0.00  0.00    +0.028 A 
ATOM     24  C   UNL     1      -8.263   6.330   1.829  0.00  0.00    +0.071 A 
ATOM     25  C   UNL     1      -7.065   7.035   1.554  0.00  0.00    +0.004 A 
ATOM     26  C   UNL     1      -6.641   8.050   2.427  0.00  0.00    +0.010 A 
ATOM     27  C   UNL     1      -6.324   6.699   0.405  0.00  0.00    -0.025 A 
ATOM     28  C   UNL     1      -6.801   5.705  -0.402  0.00  0.00    +0.025 A 
ATOM     29  C   UNL     1      -7.983   5.048  -0.070  0.00  0.00    +0.112 A 
ATOM     30  N   UNL     1      -8.671   5.363   1.001  0.00  0.00    -0.255 NA
ENDBRANCH   1  27
BRANCH  18  31
ATOM     31  C   UNL     1      -1.196   3.116   0.030  0.00  0.00    -0.006 A 
ATOM     32  C   UNL     1      -1.213   1.761   0.017  0.00  0.00    +0.011 A 
ATOM     33  C   UNL     1      -0.013   1.076   0.008  0.00  0.00    +0.008 A 
ATOM     34  C   UNL     1       1.146   1.780   0.001  0.00  0.00    +0.045 A 
ATOM     35  S   UNL     1       0.555   3.464   0.015  0.00  0.00    -0.101 S 
ENDBRANCH  18  31
TORSDOF 2
