REMARK  Name = ZINC37205588
REMARK  7 active torsions:
REMARK  status: ('A' for Active; 'I' for Inactive)
REMARK    1  A    between atoms: C_1  and  C_2
REMARK    2  A    between atoms: C_2  and  C_4
REMARK    3  A    between atoms: C_2  and  N_10
REMARK    4  A    between atoms: C_11  and  C_13
REMARK    5  A    between atoms: C_13  and  S_14
REMARK    6  A    between atoms: S_14  and  C_15
REMARK    7  A    between atoms: C_20  and  N_21
REMARK                            x       y       z     vdW  Elec       q    Type
REMARK                         _______ _______ _______ _____ _____    ______ ____
ROOT
ATOM      1  N   UNL     1      -1.372  -0.511   0.012  0.00  0.00    -0.308 N 
ATOM      2  C   UNL     1      -2.051  -0.643  -1.145  0.00  0.00    +0.224 C 
ATOM      3  O   UNL     1      -1.524  -0.341  -2.194  0.00  0.00    -0.275 OA
ATOM      4  H   UNL     1      -1.794  -0.752   0.852  0.00  0.00    +0.149 HD
ENDROOT
BRANCH   1   6
ATOM      5  C   UNL     1      -0.019   1.526   0.010  0.00  0.00    +0.033 C 
ATOM      6  C   UNL     1       0.002  -0.004   0.002  0.00  0.00    +0.100 C 
BRANCH   6   7
ATOM      7  C   UNL     1       0.731  -0.503   1.223  0.00  0.00    -0.027 A 
ATOM      8  C   UNL     1       0.081  -0.558   2.442  0.00  0.00    +0.005 A 
ATOM      9  C   UNL     1       0.749  -1.016   3.562  0.00  0.00    +0.000 A 
ATOM     10  C   UNL     1       2.068  -1.420   3.463  0.00  0.00    +0.000 A 
ATOM     11  C   UNL     1       2.718  -1.365   2.244  0.00  0.00    +0.000 A 
ATOM     12  C   UNL     1       2.048  -0.911   1.123  0.00  0.00    +0.005 A 
ENDBRANCH   6   7
ENDBRANCH   1   6
BRANCH   2  13
ATOM     13  C   UNL     1      -3.465  -1.164  -1.134  0.00  0.00    +0.170 C 
BRANCH  13  14
ATOM     14  S   UNL     1      -4.100  -1.225  -2.832  0.00  0.00    -0.114 S 
BRANCH  14  15
ATOM     15  C   UNL     1      -5.739  -1.846  -2.652  0.00  0.00    +0.029 A 
ATOM     16  C   UNL     1      -6.233  -2.151  -1.392  0.00  0.00    +0.017 A 
ATOM     17  C   UNL     1      -7.519  -2.639  -1.254  0.00  0.00    +0.016 A 
ATOM     18  C   UNL     1      -8.317  -2.824  -2.369  0.00  0.00    +0.020 A 
ATOM     19  C   UNL     1      -7.832  -2.522  -3.629  0.00  0.00    +0.039 A 
ATOM     20  C   UNL     1      -6.545  -2.028  -3.776  0.00  0.00    +0.039 A 
ATOM     21 BR   UNL     1     -10.075  -3.492  -2.170  0.00  0.00    -0.050 Br
BRANCH  20  22
ATOM     22  N   UNL     1      -6.054  -1.718  -5.050  0.00  0.00    -0.357 N 
ATOM     23  H   UNL     1      -5.152  -1.376  -5.152  0.00  0.00    +0.142 HD
ATOM     24  H   UNL     1      -6.616  -1.845  -5.831  0.00  0.00    +0.142 HD
ENDBRANCH  20  22
ENDBRANCH  14  15
ENDBRANCH  13  14
ENDBRANCH   2  13
TORSDOF 6
