REMARK  Name = ZINC09726122
REMARK  7 active torsions:
REMARK  status: ('A' for Active; 'I' for Inactive)
REMARK    1  A    between atoms: C_2  and  C_3
REMARK    2  A    between atoms: C_3  and  N_4
REMARK    3  A    between atoms: C_8  and  S_25
REMARK    4  A    between atoms: N_13  and  C_14
REMARK    5  A    between atoms: C_14  and  C_16
REMARK    6  A    between atoms: C_21  and  N_22
REMARK    7  A    between atoms: S_25  and  N_28
REMARK                            x       y       z     vdW  Elec       q    Type
REMARK                         _______ _______ _______ _____ _____    ______ ____
ROOT
ATOM      1  N   UNL     1       0.817   0.705  -1.001  0.00  0.00    -0.310 N 
ATOM      2  C   UNL     1       2.115   0.232  -1.050  0.00  0.00    +0.059 A 
ATOM      3  C   UNL     1       2.561  -1.053  -1.399  0.00  0.00    +0.029 A 
ATOM      4  C   UNL     1       3.902  -1.357  -1.394  0.00  0.00    +0.030 A 
ATOM      5  C   UNL     1       4.851  -0.410  -1.047  0.00  0.00    +0.106 A 
ATOM      6  C   UNL     1       4.440   0.864  -0.699  0.00  0.00    +0.045 A 
ATOM      7  C   UNL     1       3.099   1.169  -0.704  0.00  0.00    +0.041 A 
ATOM      8  S   UNL     1       2.159   2.630  -0.338  0.00  0.00    -0.052 S 
ATOM      9  C   UNL     1       0.574   1.993  -0.637  0.00  0.00    +0.168 A 
ATOM     10  N   UNL     1      -0.596   2.615  -0.540  0.00  0.00    -0.152 NA
ENDROOT
BRANCH   5  11
ATOM     11  S   UNL     1       6.564  -0.824  -1.048  0.00  0.00    +0.056 S 
ATOM     12  O   UNL     1       6.716  -1.922  -1.938  0.00  0.00    -0.153 OA
ATOM     13  O   UNL     1       7.276   0.395  -1.213  0.00  0.00    -0.153 OA
BRANCH  11  14
ATOM     14  N   UNL     1       6.933  -1.387   0.465  0.00  0.00    -0.204 NA
ATOM     15  H   UNL     1       6.244  -1.433   1.146  0.00  0.00    +0.144 HD
ATOM     16  H   UNL     1       7.838  -1.670   0.670  0.00  0.00    +0.144 HD
ENDBRANCH  11  14
ENDBRANCH   5  11
BRANCH  10  17
ATOM     17  C   UNL     1      -0.642   3.897  -0.163  0.00  0.00    +0.272 C 
ATOM     18  O   UNL     1       0.389   4.494   0.091  0.00  0.00    -0.268 OA
BRANCH  17  19
ATOM     19  C   UNL     1      -1.946   4.590  -0.055  0.00  0.00    +0.069 A 
ATOM     20  C   UNL     1      -2.818   4.617  -1.144  0.00  0.00    +0.015 A 
ATOM     21  C   UNL     1      -4.031   5.264  -1.037  0.00  0.00    +0.001 A 
ATOM     22  C   UNL     1      -4.385   5.886   0.147  0.00  0.00    +0.002 A 
ATOM     23  C   UNL     1      -3.525   5.864   1.230  0.00  0.00    +0.033 A 
ATOM     24  C   UNL     1      -2.311   5.214   1.137  0.00  0.00    +0.138 A 
BRANCH  24  25
ATOM     25  N   UNL     1      -1.394   5.186   2.300  0.00  0.00    +0.057 N 
ATOM     26  O   UNL     1      -1.655   5.834   3.297  0.00  0.00    -0.126 OA
ATOM     27  O   UNL     1      -0.379   4.514   2.258  0.00  0.00    -0.126 OA
ENDBRANCH  24  25
ENDBRANCH  17  19
ENDBRANCH  10  17
BRANCH   1  28
ATOM     28  C   UNL     1      -0.298  -0.182  -1.342  0.00  0.00    +0.212 C 
BRANCH  28  30
ATOM     29  C   UNL     1      -0.802  -0.009  -3.934  0.00  0.00    +0.005 C 
ATOM     30  C   UNL     1      -0.578  -0.086  -2.784  0.00  0.00    -0.084 C 
ENDBRANCH  28  30
ENDBRANCH   1  28
TORSDOF 7
