REMARK  Name = ZINC63270613
REMARK  7 active torsions:
REMARK  status: ('A' for Active; 'I' for Inactive)
REMARK    1  A    between atoms: C_1  and  C_2
REMARK    2  A    between atoms: C_7  and  O_27
REMARK    3  A    between atoms: C_13  and  C_15
REMARK    4  A    between atoms: C_15  and  C_16
REMARK    5  A    between atoms: N_18  and  C_19
REMARK    6  A    between atoms: C_19  and  C_20
REMARK    7  A    between atoms: C_20  and  C_21
REMARK                            x       y       z     vdW  Elec       q    Type
REMARK                         _______ _______ _______ _____ _____    ______ ____
ROOT
ATOM      1  C   UNL     1      -0.019   1.526   0.010  0.00  0.00    +0.013 C 
ATOM      2  C   UNL     1       0.002  -0.004   0.002  0.00  0.00    +0.034 C 
ATOM      3  C   UNL     1      -1.413  -0.524   0.009  0.00  0.00    -0.001 A 
ATOM      4  C   UNL     1      -2.113  -0.549  -1.188  0.00  0.00    +0.011 A 
ATOM      5  C   UNL     1      -3.412  -1.010  -1.229  0.00  0.00    +0.046 A 
ATOM      6  C   UNL     1      -4.028  -1.453  -0.067  0.00  0.00    +0.120 A 
ATOM      7  C   UNL     1      -3.332  -1.432   1.131  0.00  0.00    +0.092 A 
ATOM      8  C   UNL     1      -2.021  -0.971   1.169  0.00  0.00    +0.139 A 
ATOM      9  O   UNL     1      -1.367  -0.986   2.362  0.00  0.00    -0.425 OA
ATOM     10  C   UNL     1      -0.179  -0.353   2.429  0.00  0.00    +0.316 C 
ATOM     11  O   UNL     1       0.133   0.308   3.392  0.00  0.00    -0.250 OA
ATOM     12  C   UNL     1       0.747  -0.510   1.241  0.00  0.00    +0.114 C 
ENDROOT
BRANCH   6  13
ATOM     13  O   UNL     1      -5.309  -1.904  -0.103  0.00  0.00    -0.507 OA
ATOM     14  H   UNL     1      -5.388  -2.853  -0.270  0.00  0.00    +0.292 HD
ENDBRANCH   6  13
BRANCH  12  15
ATOM     15  C   UNL     1       1.114  -1.984   1.061  0.00  0.00    +0.111 C 
BRANCH  15  16
ATOM     16  C   UNL     1       1.951  -2.440   2.228  0.00  0.00    +0.214 C 
ATOM     17  O   UNL     1       2.227  -1.662   3.117  0.00  0.00    -0.276 OA
ATOM     18  N   UNL     1       2.393  -3.712   2.284  0.00  0.00    -0.315 N 
ATOM     19  H   UNL     1       2.173  -4.334   1.573  0.00  0.00    +0.149 HD
BRANCH  18  20
ATOM     20  C   UNL     1       3.207  -4.155   3.419  0.00  0.00    +0.110 C 
BRANCH  20  21
ATOM     21  C   UNL     1       3.574  -5.629   3.239  0.00  0.00    +0.073 C 
BRANCH  21  22
ATOM     22  C   UNL     1       4.411  -6.085   4.406  0.00  0.00    +0.035 A 
ATOM     23  H   UNL     1       5.025  -7.179   7.262  0.00  0.00    +0.166 HD
ATOM     24  C   UNL     1       3.945  -6.527   5.589  0.00  0.00    +0.105 A 
ATOM     25  N   UNL     1       5.037  -6.835   6.355  0.00  0.00    -0.352 N 
ATOM     26  C   UNL     1       6.133  -6.570   5.612  0.00  0.00    +0.171 A 
ATOM     27  N   UNL     1       5.752  -6.127   4.446  0.00  0.00    -0.350 N 
ATOM     28  H   UNL     1       6.343  -5.867   3.723  0.00  0.00    +0.166 HD
ENDBRANCH  21  22
ENDBRANCH  20  21
ENDBRANCH  18  20
ENDBRANCH  15  16
ENDBRANCH  12  15
TORSDOF 6
