REMARK  Name = ZINC35747068
REMARK  15 active torsions:
REMARK  status: ('A' for Active; 'I' for Inactive)
REMARK    1  A    between atoms: C_1  and  C_2
REMARK    2  A    between atoms: C_8  and  C_19
REMARK    3  A    between atoms: C_12  and  C_13
REMARK    4  A    between atoms: C_13  and  O_15
REMARK    5  A    between atoms: O_15  and  C_16
REMARK    6  A    between atoms: C_16  and  C_17
REMARK    7  A    between atoms: C_19  and  N_20
REMARK    8  A    between atoms: N_20  and  C_21
REMARK    9  A    between atoms: N_20  and  C_27
REMARK   10  A    between atoms: C_21  and  C_22
REMARK   11  A    between atoms: C_27  and  C_28
REMARK   12  A    between atoms: C_28  and  C_30
REMARK   13  A    between atoms: C_28  and  O_38
REMARK   14  A    between atoms: C_30  and  O_31
REMARK   15  A    between atoms: O_31  and  C_32
REMARK                            x       y       z     vdW  Elec       q    Type
REMARK                         _______ _______ _______ _____ _____    ______ ____
ROOT
ATOM      1  N   UNL     1      -0.002  -4.678  -3.986  0.00  0.00    +0.391 N 
ATOM      2  H   UNL     1      -0.810  -4.868  -3.411  0.00  0.00    -0.080 HD
ENDROOT
BRANCH   1   3
ATOM      3  C   UNL     1      -0.059  -3.293  -4.471  0.00  0.00    -0.003 C 
BRANCH   3  11
ATOM      4  C   UNL     1      -5.588  -1.374  -7.636  0.00  0.00    +0.046 C 
ATOM      5  C   UNL     1      -5.121  -2.594  -6.883  0.00  0.00    -0.015 A 
ATOM      6  C   UNL     1      -3.837  -2.630  -6.336  0.00  0.00    +0.076 A 
ATOM      7  C   UNL     1      -2.776  -1.598  -6.372  0.00  0.00    +0.260 A 
ATOM      8  O   UNL     1      -2.958  -0.533  -6.935  0.00  0.00    -0.267 OA
ATOM      9  N   UNL     1      -1.604  -1.866  -5.764  0.00  0.00    -0.312 N 
ATOM     10  H   UNL     1      -0.898  -1.201  -5.777  0.00  0.00    +0.170 HD
ATOM     11  C   UNL     1      -1.391  -3.047  -5.133  0.00  0.00    +0.094 A 
ATOM     12  N   UNL     1      -2.304  -3.978  -5.083  0.00  0.00    -0.229 NA
ATOM     13  C   UNL     1      -3.494  -3.817  -5.649  0.00  0.00    +0.116 A 
ATOM     14  S   UNL     1      -4.956  -4.811  -5.796  0.00  0.00    -0.062 S 
ATOM     15  C   UNL     1      -5.955  -3.663  -6.729  0.00  0.00    +0.102 A 
BRANCH  15  16
ATOM     16  C   UNL     1      -7.328  -3.829  -7.212  0.00  0.00    +0.347 C 
ATOM     17  O   UNL     1      -7.863  -2.937  -7.842  0.00  0.00    -0.244 OA
BRANCH  16  18
ATOM     18  O   UNL     1      -7.999  -4.971  -6.958  0.00  0.00    -0.457 OA
BRANCH  18  19
ATOM     19  C   UNL     1      -9.334  -5.065  -7.460  0.00  0.00    +0.259 C 
BRANCH  19  20
ATOM     20  C   UNL     1      -9.920  -6.401  -7.082  0.00  0.00    +0.006 C 
ATOM     21  C   UNL     1     -11.138  -6.470  -6.604  0.00  0.00    +0.007 C 
ENDBRANCH  19  20
ENDBRANCH  18  19
ENDBRANCH  16  18
ENDBRANCH  15  16
ENDBRANCH   3  11
ENDBRANCH   1   3
BRANCH   1  22
ATOM     22  C   UNL     1       1.219  -4.869  -3.191  0.00  0.00    -0.002 C 
BRANCH  22  23
ATOM     23  C   UNL     1       1.149  -4.016  -1.950  0.00  0.00    +0.089 A 
ATOM     24  C   UNL     1       0.544  -4.353  -0.797  0.00  0.00    +0.042 A 
ATOM     25  C   UNL     1       0.721  -3.267   0.091  0.00  0.00    +0.041 A 
ATOM     26  C   UNL     1       1.424  -2.332  -0.573  0.00  0.00    +0.195 A 
ATOM     27  O   UNL     1       1.685  -2.793  -1.807  0.00  0.00    -0.470 OA
ENDBRANCH  22  23
ENDBRANCH   1  22
BRANCH   1  28
ATOM     28  C   UNL     1       0.011  -5.598  -5.131  0.00  0.00    -0.043 C 
BRANCH  28  29
ATOM     29  C   UNL     1      -0.055  -7.041  -4.627  0.00  0.00    +0.135 C 
BRANCH  29  30
ATOM     30  O   UNL     1      -1.309  -7.263  -3.979  0.00  0.00    -0.390 OA
ATOM     31  H   UNL     1      -2.077  -7.124  -4.550  0.00  0.00    +0.210 HD
ENDBRANCH  29  30
BRANCH  29  32
ATOM     32  C   UNL     1       0.084  -8.001  -5.810  0.00  0.00    +0.258 C 
BRANCH  32  33
ATOM     33  O   UNL     1       0.139  -9.346  -5.329  0.00  0.00    -0.489 OA
BRANCH  33  34
ATOM     34  C   UNL     1       0.263 -10.329  -6.258  0.00  0.00    +0.121 A 
ATOM     35  C   UNL     1       0.336 -10.007  -7.606  0.00  0.00    +0.045 A 
ATOM     36  C   UNL     1       0.462 -11.008  -8.549  0.00  0.00    +0.004 A 
ATOM     37  C   UNL     1       0.515 -12.332  -8.151  0.00  0.00    +0.000 A 
ATOM     38  C   UNL     1       0.443 -12.655  -6.809  0.00  0.00    +0.004 A 
ATOM     39  C   UNL     1       0.323 -11.657  -5.861  0.00  0.00    +0.045 A 
ENDBRANCH  33  34
ENDBRANCH  32  33
ENDBRANCH  29  32
ENDBRANCH  28  29
ENDBRANCH   1  28
TORSDOF 14
