REMARK  Name = ZINC46091526
REMARK  7 active torsions:
REMARK  status: ('A' for Active; 'I' for Inactive)
REMARK    1  A    between atoms: C_1  and  C_2
REMARK    2  A    between atoms: C_2  and  C_4
REMARK    3  A    between atoms: C_2  and  N_13
REMARK    4  A    between atoms: N_9  and  C_10
REMARK    5  A    between atoms: C_10  and  C_11
REMARK    6  A    between atoms: C_16  and  C_19
REMARK    7  A    between atoms: C_19  and  O_20
REMARK                            x       y       z     vdW  Elec       q    Type
REMARK                         _______ _______ _______ _____ _____    ______ ____
ROOT
ATOM      1  C   UNL     1      -0.557   1.414   0.134  0.00  0.00    -0.004 C 
ATOM      2  C   UNL     1       0.002  -0.004   0.002  0.00  0.00    +0.017 C 
ENDROOT
BRANCH   2   3
ATOM      3  C   UNL     1       0.673  -0.401   1.292  0.00  0.00    +0.207 C 
ATOM      4  O   UNL     1       0.041  -0.974   2.153  0.00  0.00    -0.277 OA
ATOM      5  N   UNL     1       1.977  -0.120   1.487  0.00  0.00    -0.242 N 
ATOM      6  C   UNL     1       2.577  -0.475   2.640  0.00  0.00    +0.306 C 
ATOM      7  O   UNL     1       1.943  -1.049   3.504  0.00  0.00    -0.252 OA
ATOM      8  N   UNL     1       3.881  -0.194   2.836  0.00  0.00    -0.296 N 
ATOM      9  H   UNL     1       2.483   0.338   0.798  0.00  0.00    +0.159 HD
ATOM     10  H   UNL     1       4.387   0.264   2.146  0.00  0.00    +0.151 HD
BRANCH   8  11
ATOM     11  C   UNL     1       4.533  -0.581   4.089  0.00  0.00    +0.132 C 
BRANCH  11  12
ATOM     12  C   UNL     1       5.979  -0.155   4.055  0.00  0.00    -0.016 C 
ATOM     13  C   UNL     1       6.461   0.602   5.009  0.00  0.00    +0.005 C 
ENDBRANCH  11  12
ENDBRANCH   8  11
ENDBRANCH   2   3
BRANCH   2  14
ATOM     14  N   UNL     1      -1.094  -0.938  -0.287  0.00  0.00    +0.387 N 
ATOM     15  C   UNL     1      -0.559  -2.300  -0.395  0.00  0.00    -0.077 C 
ATOM     16  C   UNL     1      -1.707  -3.288  -0.616  0.00  0.00    -0.013 C 
ATOM     17  C   UNL     1      -2.445  -2.924  -1.907  0.00  0.00    +0.011 C 
ATOM     18  C   UNL     1      -2.934  -1.476  -1.813  0.00  0.00    -0.013 C 
ATOM     19  C   UNL     1      -1.741  -0.556  -1.548  0.00  0.00    -0.077 C 
ATOM     20  H   UNL     1      -1.771  -0.903   0.461  0.00  0.00    -0.081 HD
BRANCH  17  21
ATOM     21  C   UNL     1      -3.642  -3.858  -2.093  0.00  0.00    +0.159 C 
BRANCH  21  22
ATOM     22  O   UNL     1      -4.261  -3.595  -3.354  0.00  0.00    -0.395 OA
ATOM     23  H   UNL     1      -5.029  -4.152  -3.539  0.00  0.00    +0.209 HD
ENDBRANCH  21  22
ENDBRANCH  17  21
ENDBRANCH   2  14
TORSDOF 6
