REMARK  Name = ZINC57507403
REMARK  8 active torsions:
REMARK  status: ('A' for Active; 'I' for Inactive)
REMARK    1  A    between atoms: C_1  and  C_2
REMARK    2  A    between atoms: C_2  and  C_4
REMARK    3  A    between atoms: C_2  and  N_12
REMARK    4  A    between atoms: C_4  and  C_5
REMARK    5  A    between atoms: C_5  and  C_6
REMARK    6  A    between atoms: C_13  and  C_15
REMARK    7  A    between atoms: C_15  and  N_16
REMARK    8  A    between atoms: N_26  and  C_27
REMARK                            x       y       z     vdW  Elec       q    Type
REMARK                         _______ _______ _______ _____ _____    ______ ____
ROOT
ATOM      1  N   UNL     1      -4.442  -1.440  -2.363  0.00  0.00    -0.202 N 
ATOM      2  C   UNL     1      -4.108  -2.365  -3.284  0.00  0.00    +0.353 A 
ATOM      3  O   UNL     1      -3.469  -3.383  -3.081  0.00  0.00    -0.244 OA
ATOM      4  N   UNL     1      -4.606  -1.963  -4.471  0.00  0.00    -0.235 N 
ATOM      5  C   UNL     1      -4.556  -2.528  -5.724  0.00  0.00    +0.102 A 
ATOM      6  C   UNL     1      -5.153  -1.898  -6.755  0.00  0.00    +0.062 A 
ATOM      7  C   UNL     1      -5.819  -0.670  -6.531  0.00  0.00    +0.128 A 
ATOM      8  N   UNL     1      -5.856  -0.144  -5.323  0.00  0.00    -0.195 NA
ATOM      9  C   UNL     1      -5.264  -0.762  -4.283  0.00  0.00    +0.258 A 
ATOM     10  N   UNL     1      -5.176  -0.439  -3.013  0.00  0.00    -0.127 NA
ATOM     11  N   UNL     1      -6.432  -0.019  -7.583  0.00  0.00    -0.299 N 
ATOM     12  H   UNL     1      -6.477  -0.441  -8.455  0.00  0.00    +0.154 HD
ENDROOT
BRANCH  11  13
ATOM     13  C   UNL     1      -6.989   1.249  -7.392  0.00  0.00    +0.032 A 
ATOM     14  C   UNL     1      -6.355   2.170  -6.567  0.00  0.00    +0.023 A 
ATOM     15  C   UNL     1      -6.907   3.422  -6.381  0.00  0.00    +0.002 A 
ATOM     16  C   UNL     1      -8.089   3.760  -7.014  0.00  0.00    +0.000 A 
ATOM     17  C   UNL     1      -8.723   2.845  -7.835  0.00  0.00    +0.002 A 
ATOM     18  C   UNL     1      -8.173   1.593  -8.031  0.00  0.00    +0.023 A 
ENDBRANCH  11  13
BRANCH   1  19
ATOM     19  C   UNL     1      -4.104  -1.476  -0.938  0.00  0.00    +0.244 C 
BRANCH  19  21
ATOM     20  N   UNL     1      -2.271  -0.691   0.527  0.00  0.00    -0.311 N 
ATOM     21  C   UNL     1      -2.785  -0.781  -0.716  0.00  0.00    +0.235 C 
ATOM     22  O   UNL     1      -2.187  -0.301  -1.656  0.00  0.00    -0.274 OA
ATOM     23  H   UNL     1      -2.749  -1.075   1.278  0.00  0.00    +0.149 HD
BRANCH  20  25
ATOM     24  C   UNL     1      -1.225   1.489   0.890  0.00  0.00    +0.028 C 
ATOM     25  C   UNL     1      -0.989  -0.015   0.742  0.00  0.00    +0.070 C 
BRANCH  25  26
ATOM     26  C   UNL     1      -0.335  -0.556   2.015  0.00  0.00    +0.026 C 
BRANCH  26  27
ATOM     27  C   UNL     1       0.015  -2.033   1.820  0.00  0.00    +0.037 C 
BRANCH  27  28
ATOM     28  C   UNL     1       0.659  -2.566   3.074  0.00  0.00    -0.047 A 
ATOM     29  C   UNL     1       2.031  -2.495   3.229  0.00  0.00    +0.003 A 
ATOM     30  C   UNL     1       2.622  -2.984   4.379  0.00  0.00    +0.000 A 
ATOM     31  C   UNL     1       1.842  -3.543   5.374  0.00  0.00    +0.000 A 
ATOM     32  C   UNL     1       0.470  -3.613   5.219  0.00  0.00    +0.000 A 
ATOM     33  C   UNL     1      -0.122  -3.121   4.071  0.00  0.00    +0.003 A 
ENDBRANCH  27  28
ENDBRANCH  26  27
ENDBRANCH  25  26
ENDBRANCH  20  25
ENDBRANCH  19  21
ENDBRANCH   1  19
TORSDOF 7
