REMARK  Name = ZINC39631335
REMARK  11 active torsions:
REMARK  status: ('A' for Active; 'I' for Inactive)
REMARK    1  A    between atoms: C_1  and  C_2
REMARK    2  A    between atoms: C_2  and  C_4
REMARK    3  A    between atoms: C_2  and  N_11
REMARK    4  A    between atoms: C_4  and  C_5
REMARK    5  A    between atoms: C_5  and  C_6
REMARK    6  A    between atoms: C_6  and  C_7
REMARK    7  A    between atoms: C_7  and  C_8
REMARK    8  A    between atoms: C_7  and  C_9
REMARK    9  A    between atoms: C_7  and  O_10
REMARK   10  A    between atoms: C_12  and  C_14
REMARK   11  A    between atoms: C_25  and  C_27
REMARK                            x       y       z     vdW  Elec       q    Type
REMARK                         _______ _______ _______ _____ _____    ______ ____
ROOT
ATOM      1  C   UNL     1      -2.979  -1.549  -1.335  0.00  0.00    +0.100 C 
ATOM      2  C   UNL     1      -3.287  -2.940  -0.738  0.00  0.00    +0.121 C 
ATOM      3  N   UNL     1      -4.375  -3.480  -1.587  0.00  0.00    -0.296 N 
ATOM      4  C   UNL     1      -4.013  -3.059  -2.961  0.00  0.00    +0.115 C 
ATOM      5  C   UNL     1      -3.457  -1.631  -2.795  0.00  0.00    -0.004 C 
ATOM      6  C   UNL     1      -2.286  -1.408  -3.747  0.00  0.00    -0.010 C 
ATOM      7  C   UNL     1      -2.796  -1.436  -5.191  0.00  0.00    -0.082 C 
ATOM      8  N   UNL     1      -3.809  -0.390  -5.375  0.00  0.00    +0.379 N 
ATOM      9  C   UNL     1      -4.972  -0.664  -4.522  0.00  0.00    -0.082 C 
ATOM     10  C   UNL     1      -4.554  -0.603  -3.050  0.00  0.00    -0.010 C 
ATOM     11  C   UNL     1      -5.451  -4.192  -1.196  0.00  0.00    +0.247 C 
ATOM     12  O   UNL     1      -5.669  -4.364  -0.013  0.00  0.00    -0.270 OA
ATOM     13  H   UNL     1      -3.415   0.505  -5.126  0.00  0.00    -0.086 HD
ATOM     14  H   UNL     1      -4.099  -0.370  -6.341  0.00  0.00    -0.086 HD
ENDROOT
BRANCH  11  15
ATOM     15  C   UNL     1      -6.366  -4.762  -2.208  0.00  0.00    +0.038 A 
ATOM     16  C   UNL     1      -5.924  -4.970  -3.516  0.00  0.00    +0.013 A 
ATOM     17  C   UNL     1      -6.782  -5.502  -4.455  0.00  0.00    +0.002 A 
ATOM     18  C   UNL     1      -8.079  -5.831  -4.104  0.00  0.00    +0.015 A 
ATOM     19  C   UNL     1      -8.525  -5.628  -2.809  0.00  0.00    +0.019 A 
ATOM     20  C   UNL     1      -7.673  -5.102  -1.858  0.00  0.00    +0.028 A 
ATOM     21 BR   UNL     1     -10.300  -6.080  -2.340  0.00  0.00    -0.050 Br
ENDBRANCH  11  15
BRANCH   1  23
ATOM     22  N   UNL     1      -1.055  -0.002  -1.189  0.00  0.00    -0.312 N 
ATOM     23  C   UNL     1      -1.499  -1.271  -1.282  0.00  0.00    +0.218 C 
ATOM     24  O   UNL     1      -0.707  -2.189  -1.324  0.00  0.00    -0.275 OA
ATOM     25  H   UNL     1      -1.688   0.733  -1.156  0.00  0.00    +0.149 HD
BRANCH  22  27
ATOM     26  C   UNL     1       0.942   0.333  -2.561  0.00  0.00    +0.028 C 
ATOM     27  C   UNL     1       0.384   0.269  -1.138  0.00  0.00    +0.070 C 
BRANCH  27  28
ATOM     28  C   UNL     1       0.627   1.605  -0.433  0.00  0.00    +0.022 C 
BRANCH  28  29
ATOM     29  C   UNL     1       0.183   1.500   1.027  0.00  0.00    +0.005 C 
BRANCH  29  30
ATOM     30  C   UNL     1       0.426   2.837   1.731  0.00  0.00    +0.034 C 
BRANCH  30  31
ATOM     31  C   UNL     1      -0.019   2.732   3.191  0.00  0.00    +0.061 C 
ATOM     32  C   UNL     1       0.107   4.101   3.862  0.00  0.00    +0.041 C 
ATOM     33  C   UNL     1      -1.476   2.268   3.249  0.00  0.00    +0.041 C 
BRANCH  31  34
ATOM     34  O   UNL     1       0.809   1.788   3.875  0.00  0.00    -0.389 OA
ATOM     35  H   UNL     1       1.748   2.019   3.878  0.00  0.00    +0.210 HD
ENDBRANCH  31  34
ENDBRANCH  30  31
ENDBRANCH  29  30
ENDBRANCH  28  29
ENDBRANCH  27  28
ENDBRANCH  22  27
ENDBRANCH   1  23
TORSDOF 8
