REMARK  Name = ZINC25805184
REMARK  3 active torsions:
REMARK  status: ('A' for Active; 'I' for Inactive)
REMARK    1  A    between atoms: C_1  and  C_2
REMARK    2  A    between atoms: C_13  and  C_15
REMARK    3  A    between atoms: C_15  and  N_16
REMARK                            x       y       z     vdW  Elec       q    Type
REMARK                         _______ _______ _______ _____ _____    ______ ____
ROOT
ATOM      1  C   UNL     1       3.268   4.836  -4.000  0.00  0.00    +0.028 C 
ATOM      2  C   UNL     1       4.469   4.931  -3.058  0.00  0.00    +0.079 C 
ATOM      3  C   UNL     1       5.337   6.143  -3.437  0.00  0.00    +0.027 C 
ATOM      4  C   UNL     1       6.566   6.171  -2.529  0.00  0.00    +0.039 C 
ATOM      5  C   UNL     1       6.155   6.078  -1.083  0.00  0.00    -0.026 A 
ATOM      6  C   UNL     1       7.038   6.508  -0.106  0.00  0.00    +0.005 A 
ATOM      7  C   UNL     1       6.695   6.427   1.229  0.00  0.00    +0.000 A 
ATOM      8  C   UNL     1       5.465   5.915   1.600  0.00  0.00    +0.002 A 
ATOM      9  C   UNL     1       4.578   5.486   0.633  0.00  0.00    +0.024 A 
ATOM     10  C   UNL     1       4.921   5.569  -0.712  0.00  0.00    +0.040 A 
ATOM     11  N   UNL     1       4.005   5.131  -1.678  0.00  0.00    -0.267 N 
ATOM     12  C   UNL     1       2.720   4.894  -1.347  0.00  0.00    +0.240 C 
ATOM     13  O   UNL     1       2.299   5.244  -0.264  0.00  0.00    -0.273 OA
ENDROOT
BRANCH  12  14
ATOM     14  C   UNL     1       1.807   4.194  -2.320  0.00  0.00    +0.221 C 
BRANCH  14  15
ATOM     15  N   UNL     1       0.549   3.854  -1.652  0.00  0.00    -0.306 N 
ATOM     16  C   UNL     1      -0.481   4.739  -1.669  0.00  0.00    +0.089 A 
ATOM     17  C   UNL     1      -1.653   4.448  -1.059  0.00  0.00    +0.018 A 
ATOM     18  C   UNL     1      -1.811   3.223  -0.395  0.00  0.00    +0.007 A 
ATOM     19  C   UNL     1      -0.777   2.333  -0.383  0.00  0.00    +0.070 A 
ATOM     20  C   UNL     1       0.426   2.668  -1.027  0.00  0.00    +0.252 A 
ATOM     21  O   UNL     1       1.361   1.883  -1.020  0.00  0.00    -0.268 OA
ENDBRANCH  14  15
ENDBRANCH  12  14
TORSDOF 2
