REMARK  Name = ZINC36259694
REMARK  3 active torsions:
REMARK  status: ('A' for Active; 'I' for Inactive)
REMARK    1  A    between atoms: C_1  and  C_2
REMARK    2  A    between atoms: C_6  and  C_11
REMARK    3  A    between atoms: C_14  and  C_17
REMARK                            x       y       z     vdW  Elec       q    Type
REMARK                         _______ _______ _______ _____ _____    ______ ____
ROOT
ATOM      1  C   UNL     1      -0.018   1.503   0.010  0.00  0.00    +0.065 C 
ATOM      2  C   UNL     1       0.002  -0.004   0.002  0.00  0.00    +0.031 A 
ATOM      3  C   UNL     1       0.008  -0.786  -1.099  0.00  0.00    +0.113 A 
ATOM      4  N   UNL     1       0.027  -2.086  -0.672  0.00  0.00    -0.307 N 
ATOM      5  C   UNL     1       0.041  -3.274  -1.339  0.00  0.00    +0.101 A 
ATOM      6  C   UNL     1       0.060  -4.451  -0.655  0.00  0.00    -0.001 A 
ATOM      7  C   UNL     1       0.067  -4.448   0.760  0.00  0.00    +0.013 A 
ATOM      8  C   UNL     1       0.053  -3.266   1.427  0.00  0.00    +0.045 A 
ATOM      9  C   UNL     1       0.033  -2.057   0.699  0.00  0.00    +0.115 A 
ATOM     10  N   UNL     1       0.024  -0.789   1.082  0.00  0.00    -0.343 N 
ATOM     11  H   UNL     1       0.029  -0.479   2.002  0.00  0.00    +0.167 HD
ENDROOT
BRANCH   6  12
ATOM     12  C   UNL     1       0.074  -5.737  -1.393  0.00  0.00    -0.016 A 
ATOM     13  C   UNL     1      -1.018  -6.099  -2.182  0.00  0.00    +0.009 A 
ATOM     14  C   UNL     1      -1.007  -7.288  -2.865  0.00  0.00    +0.016 A 
ATOM     15  C   UNL     1       0.101  -8.138  -2.771  0.00  0.00    +0.063 A 
ATOM     16  C   UNL     1       1.195  -7.772  -1.979  0.00  0.00    +0.016 A 
ATOM     17  C   UNL     1       1.182  -6.580  -1.302  0.00  0.00    +0.009 A 
BRANCH  15  18
ATOM     18  C   UNL     1       0.114  -9.415  -3.503  0.00  0.00    +0.387 C 
ATOM     19  O   UNL     1      -0.843  -9.734  -4.195  0.00  0.00    -0.241 OA
ATOM     20  O   UNL     1       1.083 -10.158  -3.420  0.00  0.00    -0.241 OA
ENDBRANCH  15  18
ENDBRANCH   6  12
TORSDOF 2
