REMARK  Name = ZINC44416359
REMARK  9 active torsions:
REMARK  status: ('A' for Active; 'I' for Inactive)
REMARK    1  A    between atoms: C_1  and  C_2
REMARK    2  A    between atoms: C_2  and  C_3
REMARK    3  A    between atoms: C_2  and  C_4
REMARK    4  A    between atoms: C_7  and  N_10
REMARK    5  A    between atoms: C_12  and  C_17
REMARK    6  A    between atoms: C_19  and  C_22
REMARK    7  A    between atoms: C_26  and  N_28
REMARK    8  A    between atoms: N_28  and  C_29
REMARK    9  A    between atoms: N_28  and  C_30
REMARK                            x       y       z     vdW  Elec       q    Type
REMARK                         _______ _______ _______ _____ _____    ______ ____
ROOT
ATOM      1  N   UNL     1       2.618  -1.918   4.569  0.00  0.00    -0.271 N 
ATOM      2  C   UNL     1       2.012  -2.699   5.654  0.00  0.00    +0.125 C 
ATOM      3  C   UNL     1       2.999  -2.594   6.838  0.00  0.00    +0.087 C 
ATOM      4  C   UNL     1       4.336  -2.324   6.111  0.00  0.00    +0.109 C 
ATOM      5  C   UNL     1       3.925  -1.702   4.794  0.00  0.00    +0.221 C 
ATOM      6  O   UNL     1       4.667  -1.096   4.051  0.00  0.00    -0.275 OA
ENDROOT
BRANCH   1  10
ATOM      7  C   UNL     1       0.555  -0.561   1.213  0.00  0.00    -0.045 A 
ATOM      8  C   UNL     1       1.871  -0.187   1.412  0.00  0.00    +0.006 A 
ATOM      9  C   UNL     1       2.558  -0.635   2.524  0.00  0.00    +0.024 A 
ATOM     10  C   UNL     1       1.925  -1.462   3.442  0.00  0.00    +0.036 A 
ATOM     11  C   UNL     1       0.603  -1.836   3.240  0.00  0.00    +0.024 A 
ATOM     12  C   UNL     1      -0.080  -1.381   2.129  0.00  0.00    +0.006 A 
BRANCH   7  14
ATOM     13  C   UNL     1      -0.234   1.459   0.011  0.00  0.00    +0.012 C 
ATOM     14  C   UNL     1      -0.192  -0.070  -0.000  0.00  0.00    +0.013 C 
ATOM     15  C   UNL     1       0.520  -0.552  -1.266  0.00  0.00    +0.012 C 
ENDBRANCH   7  14
ENDBRANCH   1  10
BRANCH   3  16
ATOM     16  C   UNL     1       3.055  -3.887   7.609  0.00  0.00    +0.177 A 
ATOM     17  N   UNL     1       2.744  -4.033   8.899  0.00  0.00    -0.191 NA
ATOM     18  C   UNL     1       2.900  -5.287   9.259  0.00  0.00    +0.259 A 
ATOM     19  O   UNL     1       3.321  -5.979   8.186  0.00  0.00    -0.333 OA
ATOM     20  N   UNL     1       3.409  -5.043   7.122  0.00  0.00    -0.061 NA
BRANCH  18  21
ATOM     21  C   UNL     1       2.656  -5.841  10.608  0.00  0.00    +0.041 A 
ATOM     22  C   UNL     1       2.212  -5.008  11.637  0.00  0.00    +0.013 A 
ATOM     23  C   UNL     1       1.984  -5.527  12.896  0.00  0.00    +0.003 A 
ATOM     24  C   UNL     1       2.195  -6.870  13.143  0.00  0.00    +0.023 A 
ATOM     25  C   UNL     1       2.637  -7.708  12.125  0.00  0.00    +0.030 A 
ATOM     26  C   UNL     1       2.862  -7.197  10.856  0.00  0.00    +0.036 A 
BRANCH  25  27
ATOM     27  N   UNL     1       2.848  -9.065  12.380  0.00  0.00    -0.336 N 
ATOM     28  C   UNL     1       2.492  -9.630  13.684  0.00  0.00    +0.129 C 
ATOM     29  C   UNL     1       3.427  -9.924  11.344  0.00  0.00    +0.129 C 
ENDBRANCH  25  27
ENDBRANCH  18  21
ENDBRANCH   3  16
TORSDOF 5
