REMARK  Name = ZINC21245864
REMARK  15 active torsions:
REMARK  status: ('A' for Active; 'I' for Inactive)
REMARK    1  A    between atoms: C_1  and  C_2
REMARK    2  A    between atoms: C_2  and  O_3
REMARK    3  A    between atoms: O_3  and  C_4
REMARK    4  A    between atoms: C_4  and  C_6
REMARK    5  A    between atoms: C_7  and  C_14
REMARK    6  A    between atoms: C_8  and  C_12
REMARK    7  A    between atoms: C_9  and  N_11
REMARK    8  A    between atoms: C_14  and  S_15
REMARK    9  A    between atoms: S_15  and  C_16
REMARK   10  A    between atoms: C_19  and  C_22
REMARK   11  A    between atoms: N_20  and  N_21
REMARK   12  A    between atoms: C_25  and  C_28
REMARK   13  A    between atoms: C_28  and  C_29
REMARK   14  A    between atoms: C_28  and  C_30
REMARK   15  A    between atoms: C_28  and  C_31
REMARK                            x       y       z     vdW  Elec       q    Type
REMARK                         _______ _______ _______ _____ _____    ______ ____
ROOT
ATOM      1  C   UNL     1      -0.016   1.310   0.009  0.00  0.00    +0.209 A 
ATOM      2  N   UNL     1       0.002  -0.004   0.002  0.00  0.00    -0.121 NA
ATOM      3  N   UNL     1       1.215  -0.429  -0.012  0.00  0.00    -0.127 NA
ATOM      4  C   UNL     1       2.046   0.588  -0.014  0.00  0.00    +0.182 A 
ATOM      5  N   UNL     1       1.283   1.733  -0.001  0.00  0.00    -0.224 N 
ENDROOT
BRANCH   4   6
ATOM      6  C   UNL     1       3.522   0.515  -0.028  0.00  0.00    +0.021 A 
ATOM      7  C   UNL     1       4.282   1.646   0.277  0.00  0.00    +0.012 A 
ATOM      8  C   UNL     1       5.660   1.571   0.266  0.00  0.00    +0.005 A 
ATOM      9  C   UNL     1       6.288   0.381  -0.056  0.00  0.00    -0.042 A 
ATOM     10  C   UNL     1       5.541  -0.742  -0.364  0.00  0.00    +0.005 A 
ATOM     11  C   UNL     1       4.162  -0.682  -0.352  0.00  0.00    +0.012 A 
BRANCH   9  12
ATOM     12  C   UNL     1       7.793   0.307  -0.071  0.00  0.00    -0.013 C 
ATOM     13  C   UNL     1       8.271  -0.084  -1.471  0.00  0.00    +0.015 C 
ATOM     14  C   UNL     1       8.374   1.673   0.303  0.00  0.00    +0.015 C 
ATOM     15  C   UNL     1       8.263  -0.741   0.940  0.00  0.00    +0.015 C 
ENDBRANCH   9  12
ENDBRANCH   4   6
BRANCH   5  16
ATOM     16  N   UNL     1       1.731   3.023   0.001  0.00  0.00    -0.295 N 
ATOM     17  H   UNL     1       2.812   3.230  -0.008  0.00  0.00    +0.163 HD
ATOM     18  H   UNL     1       1.012   3.855   0.012  0.00  0.00    +0.163 HD
ENDBRANCH   5  16
BRANCH   1  19
ATOM     19  S   UNL     1      -1.448   2.336   0.022  0.00  0.00    -0.080 S 
BRANCH  19  20
ATOM     20  C   UNL     1      -2.742   1.070   0.022  0.00  0.00    +0.115 C 
BRANCH  20  22
ATOM     21  C   UNL     1      -4.745   2.055  -1.142  0.00  0.00    +0.103 A 
ATOM     22  C   UNL     1      -4.095   1.734   0.033  0.00  0.00    +0.003 A 
ATOM     23  C   UNL     1      -4.737   2.039   1.221  0.00  0.00    +0.084 A 
ATOM     24  C   UNL     1      -5.989   2.659   1.147  0.00  0.00    +0.082 A 
ATOM     25  S   UNL     1      -6.258   2.796  -0.560  0.00  0.00    -0.066 S 
BRANCH  24  26
ATOM     26  N   UNL     1      -6.809   3.058   2.177  0.00  0.00    -0.352 N 
ATOM     27  H   UNL     1      -7.775   3.538   1.958  0.00  0.00    +0.143 HD
ATOM     28  H   UNL     1      -6.499   2.898   3.220  0.00  0.00    +0.143 HD
ENDBRANCH  24  26
BRANCH  21  29
ATOM     29  C   UNL     1      -4.316   1.848  -2.477  0.00  0.00    +0.346 C 
ATOM     30  O   UNL     1      -3.241   1.321  -2.696  0.00  0.00    -0.244 OA
BRANCH  29  31
ATOM     31  O   UNL     1      -5.099   2.235  -3.506  0.00  0.00    -0.461 OA
BRANCH  31  33
ATOM     32  C   UNL     1      -5.623   2.498  -5.850  0.00  0.00    +0.048 C 
ATOM     33  C   UNL     1      -4.605   1.996  -4.825  0.00  0.00    +0.229 C 
ENDBRANCH  31  33
ENDBRANCH  29  31
ENDBRANCH  21  29
BRANCH  23  34
ATOM     34  C   UNL     1      -4.137   1.735   2.485  0.00  0.00    +0.102 C 
ATOM     35  N   UNL     1      -3.661   1.493   3.488  0.00  0.00    -0.191 NA
ENDBRANCH  23  34
ENDBRANCH  20  22
ENDBRANCH  19  20
ENDBRANCH   1  19
TORSDOF 11
