REMARK  Name = ZINC28536760
REMARK  5 active torsions:
REMARK  status: ('A' for Active; 'I' for Inactive)
REMARK    1  A    between atoms: C_1  and  N_2
REMARK    2  A    between atoms: C_8  and  S_9
REMARK    3  A    between atoms: S_9  and  C_10
REMARK    4  A    between atoms: C_10  and  C_11
REMARK    5  A    between atoms: N_16  and  C_17
REMARK                            x       y       z     vdW  Elec       q    Type
REMARK                         _______ _______ _______ _____ _____    ______ ____
ROOT
ATOM      1  C   UNL     1       1.205   4.505  -0.438  0.00  0.00    +0.154 C 
ATOM      2  N   UNL     1       2.152   3.408  -0.225  0.00  0.00    -0.287 N 
ATOM      3  C   UNL     1       3.486   3.633  -0.242  0.00  0.00    +0.295 A 
ATOM      4  O   UNL     1       3.932   4.751  -0.435  0.00  0.00    -0.264 OA
ATOM      5  C   UNL     1       4.352   2.527  -0.029  0.00  0.00    +0.211 A 
ATOM      6  N   UNL     1       3.835   1.335   0.176  0.00  0.00    -0.126 NA
ATOM      7  N   UNL     1       2.563   1.151   0.192  0.00  0.00    -0.122 NA
ATOM      8  C   UNL     1       1.708   2.135  -0.004  0.00  0.00    +0.193 A 
ATOM      9  N   UNL     1       5.737   2.704  -0.036  0.00  0.00    -0.294 N 
ATOM     10  H   UNL     1       6.162   3.716  -0.114  0.00  0.00    +0.154 HD
ENDROOT
BRANCH   9  11
ATOM     11  C   UNL     1       6.583   1.596   0.056  0.00  0.00    +0.035 A 
ATOM     12  C   UNL     1       7.789   1.696   0.737  0.00  0.00    +0.043 A 
ATOM     13  C   UNL     1       8.621   0.597   0.831  0.00  0.00    +0.044 A 
ATOM     14  C   UNL     1       8.259  -0.600   0.237  0.00  0.00    +0.040 A 
ATOM     15  C   UNL     1       7.061  -0.701  -0.447  0.00  0.00    +0.044 A 
ATOM     16  C   UNL     1       6.222   0.394  -0.539  0.00  0.00    +0.043 A 
ATOM     17 CL   UNL     1       6.611  -2.203  -1.190  0.00  0.00    -0.083 Cl
ATOM     18 CL   UNL     1      10.126   0.719   1.688  0.00  0.00    -0.083 Cl
ENDBRANCH   9  11
BRANCH   8  19
ATOM     19  S   UNL     1      -0.023   1.807   0.025  0.00  0.00    -0.081 S 
BRANCH  19  20
ATOM     20  C   UNL     1       0.001   0.026   0.345  0.00  0.00    +0.119 C 
BRANCH  20  21
ATOM     21  C   UNL     1      -1.414  -0.490   0.414  0.00  0.00    +0.000 A 
ATOM     22  C   UNL     1      -2.197  -0.969  -0.584  0.00  0.00    +0.012 A 
ATOM     23  C   UNL     1      -3.478  -1.393  -0.285  0.00  0.00    +0.008 A 
ATOM     24  C   UNL     1      -3.913  -1.319   0.997  0.00  0.00    +0.045 A 
ATOM     25  S   UNL     1      -2.489  -0.638   1.831  0.00  0.00    -0.101 S 
ENDBRANCH  20  21
ENDBRANCH  19  20
ENDBRANCH   8  19
TORSDOF 4
