REMARK  Name = ZINC12572506
REMARK  11 active torsions:
REMARK  status: ('A' for Active; 'I' for Inactive)
REMARK    1  A    between atoms: C_1  and  C_2
REMARK    2  A    between atoms: C_7  and  O_8
REMARK    3  A    between atoms: O_8  and  C_9
REMARK    4  A    between atoms: C_9  and  C_10
REMARK    5  A    between atoms: N_12  and  N_13
REMARK    6  A    between atoms: N_13  and  C_14
REMARK    7  A    between atoms: C_14  and  N_16
REMARK    8  A    between atoms: C_17  and  C_19
REMARK    9  A    between atoms: C_19  and  O_20
REMARK   10  A    between atoms: O_20  and  C_21
REMARK   11  A    between atoms: C_24  and  N_27
REMARK                            x       y       z     vdW  Elec       q    Type
REMARK                         _______ _______ _______ _____ _____    ______ ____
ROOT
ATOM      1  C   UNL     1       0.085  -0.108   8.375  0.00  0.00    +0.153 C 
ATOM      2  S   UNL     1       0.084   0.925   9.740  0.00  0.00    -0.017 S 
ENDROOT
BRANCH   1   3
ATOM      3  N   UNL     1       0.104  -1.446   8.543  0.00  0.00    -0.264 N 
ATOM      4  C   UNL     1       0.123  -1.969   9.785  0.00  0.00    +0.256 C 
ATOM      5  O   UNL     1       0.123  -1.236  10.751  0.00  0.00    -0.272 OA
ATOM      6  H   UNL     1       0.104  -2.031   7.770  0.00  0.00    +0.157 HD
BRANCH   4   7
ATOM      7  C   UNL     1       0.144  -3.464   9.973  0.00  0.00    +0.324 C 
BRANCH   7   8
ATOM      8  O   UNL     1       0.162  -3.769  11.369  0.00  0.00    -0.483 OA
BRANCH   8   9
ATOM      9  C   UNL     1       0.183  -5.083  11.713  0.00  0.00    +0.121 A 
ATOM     10  C   UNL     1       0.192  -6.059  10.727  0.00  0.00    +0.048 A 
ATOM     11  C   UNL     1       0.214  -7.395  11.080  0.00  0.00    +0.036 A 
ATOM     12  C   UNL     1       0.226  -7.759  12.414  0.00  0.00    +0.126 A 
ATOM     13  C   UNL     1       0.216  -6.788  13.398  0.00  0.00    +0.036 A 
ATOM     14  C   UNL     1       0.201  -5.451  13.051  0.00  0.00    +0.048 A 
BRANCH  12  15
ATOM     15  N   UNL     1       0.249  -9.191  12.789  0.00  0.00    +0.056 N 
ATOM     16  O   UNL     1       0.257 -10.040  11.929  0.00  0.00    -0.126 OA
ATOM     17  O   UNL     1       0.260  -9.510  13.955  0.00  0.00    -0.126 OA
ENDBRANCH  12  15
ENDBRANCH   8   9
ENDBRANCH   7   8
ENDBRANCH   4   7
ENDBRANCH   1   3
BRANCH   1  18
ATOM     18  N   UNL     1       0.066   0.415   7.133  0.00  0.00    -0.245 N 
ATOM     19  H   UNL     1       0.052   1.377   7.013  0.00  0.00    +0.172 HD
BRANCH  18  22
ATOM     20  C   UNL     1       0.047   0.092   4.775  0.00  0.00    +0.267 C 
ATOM     21  O   UNL     1       0.030   1.295   4.624  0.00  0.00    -0.271 OA
ATOM     22  N   UNL     1       0.066  -0.431   6.017  0.00  0.00    -0.232 N 
ATOM     23  H   UNL     1       0.080  -1.394   6.138  0.00  0.00    +0.173 HD
BRANCH  20  24
ATOM     24  C   UNL     1       0.048  -0.819   3.574  0.00  0.00    +0.326 C 
BRANCH  24  25
ATOM     25  O   UNL     1       0.025  -0.033   2.381  0.00  0.00    -0.482 OA
BRANCH  25  32
ATOM     26  C   UNL     1      -0.018   1.503   0.010  0.00  0.00    +0.047 C 
ATOM     27  C   UNL     1       0.002  -0.004   0.002  0.00  0.00    -0.007 A 
ATOM     28  C   UNL     1       0.006  -0.689  -1.198  0.00  0.00    +0.027 A 
ATOM     29  C   UNL     1       0.024  -2.072  -1.206  0.00  0.00    +0.041 A 
ATOM     30  C   UNL     1       0.040  -2.773  -0.013  0.00  0.00    +0.023 A 
ATOM     31  C   UNL     1       0.036  -2.092   1.189  0.00  0.00    +0.047 A 
ATOM     32  C   UNL     1       0.023  -0.704   1.199  0.00  0.00    +0.124 A 
ATOM     33 CL   UNL     1       0.028  -2.930  -2.715  0.00  0.00    -0.084 Cl
ENDBRANCH  25  32
ENDBRANCH  24  25
ENDBRANCH  20  24
ENDBRANCH  18  22
ENDBRANCH   1  18
TORSDOF 10
