REMARK  Name = ZINC01119139
REMARK  7 active torsions:
REMARK  status: ('A' for Active; 'I' for Inactive)
REMARK    1  A    between atoms: C_3  and  N_31
REMARK    2  A    between atoms: C_6  and  C_7
REMARK    3  A    between atoms: C_7  and  O_8
REMARK    4  A    between atoms: O_8  and  C_9
REMARK    5  A    between atoms: C_12  and  C_16
REMARK    6  A    between atoms: C_18  and  C_29
REMARK    7  A    between atoms: C_19  and  N_28
REMARK                            x       y       z     vdW  Elec       q    Type
REMARK                         _______ _______ _______ _____ _____    ______ ____
ROOT
ATOM      1  C   UNL     1      -1.237   3.136   0.030  0.00  0.00    +0.135 A 
ATOM      2  C   UNL     1      -1.219   1.749   0.017  0.00  0.00    +0.047 A 
ATOM      3  C   UNL     1      -0.013   1.076   0.008  0.00  0.00    +0.008 A 
ATOM      4  C   UNL     1       1.176   1.783   0.000  0.00  0.00    -0.033 A 
ATOM      5  C   UNL     1       1.161   3.165   0.007  0.00  0.00    +0.023 A 
ATOM      6  C   UNL     1      -0.043   3.844   0.023  0.00  0.00    +0.060 A 
ATOM      7 BR   UNL     1      -0.063   5.735   0.034  0.00  0.00    -0.047 Br
ENDROOT
BRANCH   4   8
ATOM      8  C   UNL     1       2.490   1.045  -0.016  0.00  0.00    +0.101 C 
ATOM      9  C   UNL     1       3.283   1.412   1.206  0.00  0.00    +0.098 C 
ATOM     10  C   UNL     1       4.303   2.301   1.120  0.00  0.00    +0.198 C 
ATOM     11  O   UNL     1       4.629   2.881  -0.045  0.00  0.00    -0.445 OA
ATOM     12  C   UNL     1       4.267   2.303  -1.206  0.00  0.00    +0.115 C 
ATOM     13  C   UNL     1       3.257   1.416  -1.262  0.00  0.00    +0.046 C 
ATOM     14  C   UNL     1       2.884   0.806  -2.476  0.00  0.00    +0.163 C 
ATOM     15  O   UNL     1       1.956   0.023  -2.490  0.00  0.00    -0.292 OA
ATOM     16  C   UNL     1       3.615   1.108  -3.756  0.00  0.00    +0.080 C 
ATOM     17  C   UNL     1       5.059   1.499  -3.421  0.00  0.00    +0.016 C 
ATOM     18  C   UNL     1       5.027   2.684  -2.455  0.00  0.00    +0.075 C 
BRANCH  10  19
ATOM     19  N   UNL     1       5.017   2.616   2.249  0.00  0.00    -0.328 N 
ATOM     20  H   UNL     1       4.791   2.203   3.097  0.00  0.00    +0.145 HD
ATOM     21  H   UNL     1       5.749   3.251   2.200  0.00  0.00    +0.145 HD
ENDBRANCH  10  19
BRANCH   9  22
ATOM     22  C   UNL     1       2.961   0.819   2.469  0.00  0.00    +0.101 C 
ATOM     23  N   UNL     1       2.705   0.349   3.471  0.00  0.00    -0.191 NA
ENDBRANCH   9  22
ENDBRANCH   4   8
BRANCH   1  24
ATOM     24  O   UNL     1      -2.422   3.801   0.046  0.00  0.00    -0.486 OA
BRANCH  24  25
ATOM     25  C   UNL     1      -3.611   3.008   0.053  0.00  0.00    +0.264 C 
BRANCH  25  31
ATOM     26  C   UNL     1      -5.362   4.314   1.274  0.00  0.00    +0.009 A 
ATOM     27  C   UNL     1      -6.466   5.146   1.290  0.00  0.00    +0.033 A 
ATOM     28  C   UNL     1      -7.031   5.567   0.101  0.00  0.00    +0.126 A 
ATOM     29  C   UNL     1      -6.489   5.161  -1.104  0.00  0.00    +0.033 A 
ATOM     30  C   UNL     1      -5.382   4.332  -1.120  0.00  0.00    +0.009 A 
ATOM     31  C   UNL     1      -4.817   3.911   0.070  0.00  0.00    -0.010 A 
BRANCH  28  32
ATOM     32  N   UNL     1      -8.216   6.455   0.117  0.00  0.00    +0.056 N 
ATOM     33  O   UNL     1      -8.713   6.826  -0.931  0.00  0.00    -0.126 OA
ATOM     34  O   UNL     1      -8.694   6.813   1.179  0.00  0.00    -0.126 OA
ENDBRANCH  28  32
ENDBRANCH  25  31
ENDBRANCH  24  25
ENDBRANCH   1  24
TORSDOF 7
