REMARK  Name = ZINC39893669
REMARK  8 active torsions:
REMARK  status: ('A' for Active; 'I' for Inactive)
REMARK    1  A    between atoms: C_1  and  C_2
REMARK    2  A    between atoms: C_3  and  C_33
REMARK    3  A    between atoms: N_6  and  C_24
REMARK    4  A    between atoms: C_10  and  N_11
REMARK    5  A    between atoms: N_11  and  C_12
REMARK    6  A    between atoms: C_15  and  C_18
REMARK    7  A    between atoms: C_24  and  C_26
REMARK    8  A    between atoms: C_24  and  C_27
REMARK                            x       y       z     vdW  Elec       q    Type
REMARK                         _______ _______ _______ _____ _____    ______ ____
ROOT
ATOM      1  C   UNL     1      -3.189   0.423   1.930  0.00  0.00    +0.046 C 
ATOM      2  C   UNL     1      -2.290  -0.648   1.368  0.00  0.00    -0.015 C 
ATOM      3  C   UNL     1      -1.697  -0.493   0.124  0.00  0.00    +0.118 C 
ATOM      4  C   UNL     1      -0.828  -1.549  -0.400  0.00  0.00    +0.264 C 
ATOM      5  O   UNL     1      -0.307  -1.412  -1.492  0.00  0.00    -0.269 OA
ATOM      6  N   UNL     1      -0.598  -2.666   0.311  0.00  0.00    -0.226 N 
ATOM      7  C   UNL     1      -1.155  -2.854   1.521  0.00  0.00    +0.255 C 
ATOM      8  O   UNL     1      -0.928  -3.877   2.140  0.00  0.00    -0.269 OA
ATOM      9  C   UNL     1      -2.031  -1.827   2.102  0.00  0.00    +0.055 C 
ATOM     10  C   UNL     1      -2.603  -2.017   3.356  0.00  0.00    +0.085 C 
ENDROOT
BRANCH  10  11
ATOM     11  N   UNL     1      -2.213  -3.052   4.124  0.00  0.00    -0.320 N 
ATOM     12  H   UNL     1      -1.568  -3.691   3.785  0.00  0.00    +0.152 HD
BRANCH  11  13
ATOM     13  C   UNL     1      -2.738  -3.204   5.408  0.00  0.00    +0.031 A 
ATOM     14  C   UNL     1      -3.668  -2.290   5.891  0.00  0.00    +0.024 A 
ATOM     15  C   UNL     1      -4.187  -2.438   7.160  0.00  0.00    +0.010 A 
ATOM     16  C   UNL     1      -3.780  -3.506   7.958  0.00  0.00    -0.018 A 
ATOM     17  C   UNL     1      -2.848  -4.422   7.471  0.00  0.00    +0.010 A 
ATOM     18  C   UNL     1      -2.335  -4.273   6.201  0.00  0.00    +0.024 A 
BRANCH  16  19
ATOM     19  C   UNL     1      -4.337  -3.668   9.323  0.00  0.00    -0.018 A 
ATOM     20  C   UNL     1      -5.272  -2.756   9.809  0.00  0.00    +0.008 A 
ATOM     21  C   UNL     1      -5.788  -2.912  11.080  0.00  0.00    +0.001 A 
ATOM     22  C   UNL     1      -5.378  -3.970  11.871  0.00  0.00    +0.000 A 
ATOM     23  C   UNL     1      -4.449  -4.878  11.394  0.00  0.00    +0.001 A 
ATOM     24  C   UNL     1      -3.931  -4.735  10.122  0.00  0.00    +0.008 A 
ENDBRANCH  16  19
ENDBRANCH  11  13
ENDBRANCH  10  11
BRANCH   6  25
ATOM     25  C   UNL     1       0.278  -3.702  -0.244  0.00  0.00    +0.112 C 
ATOM     26  C   UNL     1       0.038  -3.818  -1.751  0.00  0.00    +0.033 C 
BRANCH  25  27
ATOM     27  C   UNL     1       1.716  -3.332   0.009  0.00  0.00    -0.027 A 
ATOM     28  C   UNL     1       2.163  -2.056  -0.279  0.00  0.00    +0.005 A 
ATOM     29  C   UNL     1       3.483  -1.717  -0.047  0.00  0.00    +0.000 A 
ATOM     30  C   UNL     1       4.356  -2.654   0.474  0.00  0.00    +0.000 A 
ATOM     31  C   UNL     1       3.909  -3.929   0.763  0.00  0.00    +0.000 A 
ATOM     32  C   UNL     1       2.588  -4.267   0.535  0.00  0.00    +0.005 A 
ENDBRANCH  25  27
ENDBRANCH   6  25
BRANCH   3  33
ATOM     33  C   UNL     1      -1.933   0.692  -0.644  0.00  0.00    +0.105 C 
ATOM     34  N   UNL     1      -2.121   1.633  -1.254  0.00  0.00    -0.191 NA
ENDBRANCH   3  33
TORSDOF 6
