REMARK  Name = ZINC66528543
REMARK  8 active torsions:
REMARK  status: ('A' for Active; 'I' for Inactive)
REMARK    1  A    between atoms: C_1  and  C_2
REMARK    2  A    between atoms: C_2  and  C_22
REMARK    3  A    between atoms: N_8  and  C_9
REMARK    4  A    between atoms: C_9  and  C_10
REMARK    5  A    between atoms: C_11  and  C_12
REMARK    6  A    between atoms: C_12  and  N_13
REMARK    7  A    between atoms: C_19  and  C_20
REMARK    8  A    between atoms: C_19  and  C_21
REMARK                            x       y       z     vdW  Elec       q    Type
REMARK                         _______ _______ _______ _____ _____    ______ ____
ROOT
ATOM      1  C   UNL     1       2.843  -0.536   2.360  0.00  0.00    -0.048 C 
ATOM      2  C   UNL     1       3.885  -1.328   2.318  0.00  0.00    -0.018 C 
ENDROOT
BRANCH   1   3
ATOM      3  C   UNL     1       2.138  -0.149   1.086  0.00  0.00    -0.050 C 
BRANCH   3  11
ATOM      4  C   UNL     1      -0.019   1.526   0.010  0.00  0.00    -0.000 C 
ATOM      5  C   UNL     1       0.002  -0.004   0.002  0.00  0.00    +0.007 C 
ATOM      6  C   UNL     1      -1.408  -0.521  -0.004  0.00  0.00    +0.202 C 
ATOM      7  O   UNL     1      -2.226   0.028  -0.712  0.00  0.00    -0.277 OA
ATOM      8  N   UNL     1      -1.799  -1.563   0.739  0.00  0.00    -0.318 N 
ATOM      9  C   UNL     1      -0.893  -2.271   1.640  0.00  0.00    +0.085 C 
ATOM     10  C   UNL     1       0.558  -1.948   1.278  0.00  0.00    -0.058 C 
ATOM     11  N   UNL     1       0.713  -0.488   1.192  0.00  0.00    +0.392 N 
ATOM     12  C   UNL     1       0.725  -0.495  -1.254  0.00  0.00    -0.000 C 
ATOM     13  H   UNL     1      -2.720  -1.861   0.676  0.00  0.00    +0.149 HD
ATOM     14  H   UNL     1       0.322  -0.057   2.017  0.00  0.00    -0.080 HD
ENDBRANCH   3  11
ENDBRANCH   1   3
BRANCH   2  15
ATOM     15  C   UNL     1       4.590  -1.715   3.592  0.00  0.00    +0.112 C 
BRANCH  15  16
ATOM     16  N   UNL     1       4.653  -3.180   3.692  0.00  0.00    -0.284 NA
ATOM     17  C   UNL     1       3.311  -3.755   3.872  0.00  0.00    +0.104 C 
ATOM     18  C   UNL     1       3.392  -5.268   3.660  0.00  0.00    +0.119 C 
ATOM     19  N   UNL     1       4.473  -5.828   4.465  0.00  0.00    -0.313 N 
ATOM     20  C   UNL     1       5.462  -5.085   4.972  0.00  0.00    +0.233 C 
ATOM     21  O   UNL     1       6.338  -5.637   5.604  0.00  0.00    -0.274 OA
ATOM     22  C   UNL     1       5.534  -3.595   4.792  0.00  0.00    +0.093 C 
ATOM     23  C   UNL     1       6.974  -3.191   4.469  0.00  0.00    +0.037 C 
ATOM     24  C   UNL     1       5.093  -2.905   6.084  0.00  0.00    +0.037 C 
ATOM     25  H   UNL     1       4.474  -6.782   4.640  0.00  0.00    +0.149 HD
ENDBRANCH  15  16
ENDBRANCH   2  15
TORSDOF 4
