REMARK  Name = ZINC03995977
REMARK  10 active torsions:
REMARK  status: ('A' for Active; 'I' for Inactive)
REMARK    1  A    between atoms: C_1  and  C_2
REMARK    2  A    between atoms: C_2  and  N_3
REMARK    3  A    between atoms: N_3  and  C_4
REMARK    4  A    between atoms: N_3  and  C_6
REMARK    5  A    between atoms: C_4  and  C_5
REMARK    6  A    between atoms: C_6  and  C_7
REMARK    7  A    between atoms: C_7  and  O_8
REMARK    8  A    between atoms: O_8  and  C_9
REMARK    9  A    between atoms: C_13  and  C_32
REMARK   10  A    between atoms: C_18  and  C_31
REMARK                            x       y       z     vdW  Elec       q    Type
REMARK                         _______ _______ _______ _____ _____    ______ ____
ROOT
ATOM      1  C   UNL     1       4.129  -1.599  -1.216  0.00  0.00    +0.122 C 
ATOM      2  C   UNL     1       5.019  -0.361  -1.340  0.00  0.00    +0.033 C 
ATOM      3  C   UNL     1       5.893  -0.476  -2.591  0.00  0.00    +0.014 C 
ATOM      4  C   UNL     1       6.821  -1.686  -2.452  0.00  0.00    -0.008 C 
ATOM      5  C   UNL     1       7.681  -1.829  -3.696  0.00  0.00    +0.003 C 
ATOM      6  C   UNL     1       6.849  -1.516  -4.945  0.00  0.00    +0.005 C 
ATOM      7  C   UNL     1       7.774  -1.556  -6.162  0.00  0.00    +0.015 C 
ATOM      8  C   UNL     1       8.431  -2.909  -6.309  0.00  0.00    +0.029 C 
ATOM      9  C   UNL     1       9.151  -3.373  -5.030  0.00  0.00    +0.006 C 
ATOM     10  C   UNL     1       8.214  -3.253  -3.824  0.00  0.00    +0.001 C 
ATOM     11  C   UNL     1       7.022  -4.202  -3.997  0.00  0.00    +0.031 C 
ATOM     12  C   UNL     1       6.079  -4.014  -2.843  0.00  0.00    -0.027 C 
ATOM     13  C   UNL     1       6.003  -2.910  -2.161  0.00  0.00    -0.065 C 
ATOM     14  C   UNL     1       5.005  -2.840  -1.018  0.00  0.00    +0.062 C 
ATOM     15  C   UNL     1       9.317  -4.896  -5.310  0.00  0.00    +0.012 C 
ATOM     16  C   UNL     1       7.995  -5.279  -6.011  0.00  0.00    +0.075 C 
ATOM     17  C   UNL     1       7.443  -4.006  -6.627  0.00  0.00    +0.139 C 
ATOM     18  O   UNL     1       6.415  -3.893  -7.250  0.00  0.00    -0.297 OA
ATOM     19  C   UNL     1       9.461  -2.836  -7.437  0.00  0.00    +0.019 C 
ATOM     20  C   UNL     1       7.755  -1.439  -1.265  0.00  0.00    +0.016 C 
ENDROOT
BRANCH   1  21
ATOM     21  O   UNL     1       3.257  -1.448  -0.095  0.00  0.00    -0.378 OA
BRANCH  21  22
ATOM     22  C   UNL     1       2.002  -2.116  -0.240  0.00  0.00    +0.142 C 
BRANCH  22  23
ATOM     23  C   UNL     1       1.154  -1.888   1.012  0.00  0.00    -0.050 C 
BRANCH  23  24
ATOM     24  N   UNL     1       0.823  -0.461   1.126  0.00  0.00    +0.381 N 
ATOM     25  H   UNL     1       1.672   0.084   1.110  0.00  0.00    -0.082 HD
BRANCH  24  27
ATOM     26  C   UNL     1      -0.264   1.446   0.039  0.00  0.00    -0.017 C 
ATOM     27  C   UNL     1      -0.033  -0.066  -0.001  0.00  0.00    -0.082 C 
ENDBRANCH  24  27
BRANCH  24  28
ATOM     28  C   UNL     1       0.111  -0.222   2.389  0.00  0.00    -0.082 C 
ATOM     29  C   UNL     1       1.053  -0.495   3.563  0.00  0.00    -0.017 C 
ENDBRANCH  24  28
ENDBRANCH  23  24
ENDBRANCH  22  23
ENDBRANCH  21  22
ENDBRANCH   1  21
TORSDOF 6
