REMARK  Name = ZINC66556320
REMARK  6 active torsions:
REMARK  status: ('A' for Active; 'I' for Inactive)
REMARK    1  A    between atoms: C_1  and  C_2
REMARK    2  A    between atoms: C_6  and  C_7
REMARK    3  A    between atoms: N_9  and  N_10
REMARK    4  A    between atoms: C_11  and  C_13
REMARK    5  A    between atoms: C_19  and  C_21
REMARK    6  A    between atoms: C_21  and  C_22
REMARK                            x       y       z     vdW  Elec       q    Type
REMARK                         _______ _______ _______ _____ _____    ______ ____
ROOT
ATOM      1  N   UNL     1       0.059  -0.732   4.900  0.00  0.00    -0.233 N 
ATOM      2  C   UNL     1       0.081  -1.625   5.909  0.00  0.00    +0.250 C 
ATOM      3  O   UNL     1       0.094  -2.813   5.667  0.00  0.00    -0.272 OA
ATOM      4  H   UNL     1       0.048   0.219   5.094  0.00  0.00    +0.173 HD
ENDROOT
BRANCH   2   5
ATOM      5  C   UNL     1       0.088  -1.147   7.338  0.00  0.00    +0.163 C 
ATOM      6  C   UNL     1      -1.198  -0.345   7.630  0.00  0.00    +0.033 C 
ATOM      7  C   UNL     1      -2.119  -1.399   8.301  0.00  0.00    +0.021 C 
ATOM      8  C   UNL     1      -1.097  -2.237   9.108  0.00  0.00    +0.108 C 
ATOM      9  N   UNL     1       0.105  -2.300   8.251  0.00  0.00    -0.290 N 
ATOM     10  C   UNL     1       1.056  -3.253   8.295  0.00  0.00    +0.221 C 
ATOM     11  O   UNL     1       2.002  -3.201   7.537  0.00  0.00    -0.275 OA
BRANCH  10  12
ATOM     12  C   UNL     1       0.946  -4.383   9.286  0.00  0.00    +0.131 C 
BRANCH  12  13
ATOM     13  C   UNL     1       2.127  -5.305   9.130  0.00  0.00    -0.039 A 
ATOM     14  C   UNL     1       2.062  -6.370   8.251  0.00  0.00    +0.004 A 
ATOM     15  C   UNL     1       3.147  -7.215   8.109  0.00  0.00    +0.000 A 
ATOM     16  C   UNL     1       4.296  -6.996   8.845  0.00  0.00    +0.000 A 
ATOM     17  C   UNL     1       4.361  -5.931   9.724  0.00  0.00    +0.000 A 
ATOM     18  C   UNL     1       3.279  -5.083   9.863  0.00  0.00    +0.004 A 
ENDBRANCH  12  13
ENDBRANCH  10  12
ENDBRANCH   2   5
BRANCH   1  21
ATOM     19  C   UNL     1       0.031  -0.283   2.562  0.00  0.00    +0.267 C 
ATOM     20  O   UNL     1       0.017   0.910   2.805  0.00  0.00    -0.268 OA
ATOM     21  N   UNL     1       0.052  -1.176   3.571  0.00  0.00    -0.230 N 
ATOM     22  H   UNL     1       0.063  -2.126   3.378  0.00  0.00    +0.173 HD
BRANCH  19  28
ATOM     23  C   UNL     1      -0.018   1.503   0.010  0.00  0.00    +0.045 C 
ATOM     24  C   UNL     1       0.002  -0.004   0.002  0.00  0.00    -0.031 A 
ATOM     25  C   UNL     1       0.007  -0.729  -1.166  0.00  0.00    +0.011 A 
ATOM     26  C   UNL     1       0.025  -2.083  -1.101  0.00  0.00    +0.046 A 
ATOM     27  S   UNL     1       0.037  -2.416   0.545  0.00  0.00    -0.092 S 
ATOM     28  C   UNL     1       0.023  -0.748   1.172  0.00  0.00    +0.078 A 
ENDBRANCH  19  28
ENDBRANCH   1  21
TORSDOF 5
