REMARK  Name = ZINC44019953
REMARK  6 active torsions:
REMARK  status: ('A' for Active; 'I' for Inactive)
REMARK    1  A    between atoms: C_1  and  C_2
REMARK    2  A    between atoms: C_3  and  C_4
REMARK    3  A    between atoms: C_4  and  O_33
REMARK    4  A    between atoms: C_9  and  C_32
REMARK    5  A    between atoms: C_11  and  C_25
REMARK    6  A    between atoms: C_28  and  N_31
REMARK                            x       y       z     vdW  Elec       q    Type
REMARK                         _______ _______ _______ _____ _____    ______ ____
ROOT
ATOM      1  C   UNL     1       0.049  -2.885  -0.249  0.00  0.00    +0.132 C 
ATOM      2  C   UNL     1       0.564  -3.502  -1.572  0.00  0.00    +0.049 C 
ATOM      3  C   UNL     1      -0.561  -4.449  -2.074  0.00  0.00    +0.008 C 
ATOM      4  C   UNL     1      -1.348  -4.751  -0.789  0.00  0.00    +0.006 C 
ATOM      5  C   UNL     1      -1.412  -3.351  -0.138  0.00  0.00    +0.012 C 
ATOM      6  C   UNL     1      -1.972  -3.402   1.253  0.00  0.00    +0.023 C 
ATOM      7  C   UNL     1      -2.860  -4.595   1.562  0.00  0.00    +0.046 C 
ATOM      8  C   UNL     1      -3.364  -5.406   0.403  0.00  0.00    -0.055 C 
ATOM      9  C   UNL     1      -4.383  -6.252   0.586  0.00  0.00    -0.044 C 
ATOM     10  C   UNL     1      -5.194  -6.212   1.862  0.00  0.00    +0.043 C 
ATOM     11  C   UNL     1      -5.492  -7.647   2.309  0.00  0.00    +0.083 C 
ATOM     12  C   UNL     1      -6.074  -8.428   1.163  0.00  0.00    +0.157 C 
ATOM     13  O   UNL     1      -6.902  -9.290   1.385  0.00  0.00    -0.293 OA
ATOM     14  C   UNL     1      -5.664  -8.192  -0.160  0.00  0.00    +0.050 C 
ATOM     15  C   UNL     1      -4.806  -7.189  -0.459  0.00  0.00    -0.041 C 
ATOM     16  C   UNL     1      -4.249  -7.043  -1.856  0.00  0.00    +0.036 C 
ATOM     17  C   UNL     1      -2.796  -6.571  -1.747  0.00  0.00    +0.013 C 
ATOM     18  C   UNL     1      -2.758  -5.255  -0.980  0.00  0.00    +0.020 C 
ATOM     19  C   UNL     1      -2.263  -2.385  -0.981  0.00  0.00    +0.015 C 
ENDROOT
BRANCH   7  20
ATOM     20  C   UNL     1      -2.115  -5.504   2.504  0.00  0.00    -0.040 A 
ATOM     21  C   UNL     1      -2.244  -5.338   3.870  0.00  0.00    +0.006 A 
ATOM     22  C   UNL     1      -1.563  -6.170   4.737  0.00  0.00    +0.023 A 
ATOM     23  C   UNL     1      -0.747  -7.175   4.234  0.00  0.00    +0.025 A 
ATOM     24  C   UNL     1      -0.619  -7.340   2.861  0.00  0.00    +0.023 A 
ATOM     25  C   UNL     1      -1.308  -6.508   2.000  0.00  0.00    +0.006 A 
BRANCH  23  26
ATOM     26  N   UNL     1      -0.056  -8.018   5.107  0.00  0.00    -0.358 N 
ATOM     27  H   UNL     1      -0.145  -7.901   6.066  0.00  0.00    +0.142 HD
ATOM     28  H   UNL     1       0.514  -8.719   4.755  0.00  0.00    +0.142 HD
ENDBRANCH  23  26
ENDBRANCH   7  20
BRANCH   1  31
ATOM     29  C   UNL     1       0.219   1.225  -0.411  0.00  0.00    +0.106 C 
ATOM     30  C   UNL     1       0.158  -0.245  -0.353  0.00  0.00    -0.103 C 
ATOM     31  C   UNL     1       0.109  -1.417  -0.307  0.00  0.00    -0.067 C 
ENDBRANCH   1  31
BRANCH   1  32
ATOM     32  O   UNL     1       0.804  -3.383   0.853  0.00  0.00    -0.376 OA
ATOM     33  H   UNL     1       1.740  -3.142   0.829  0.00  0.00    +0.211 HD
ENDBRANCH   1  32
TORSDOF 4
