REMARK  Name = ZINC57627937
REMARK  7 active torsions:
REMARK  status: ('A' for Active; 'I' for Inactive)
REMARK    1  A    between atoms: C_1  and  C_2
REMARK    2  A    between atoms: C_2  and  C_3
REMARK    3  A    between atoms: C_2  and  C_4
REMARK    4  A    between atoms: C_4  and  C_6
REMARK    5  A    between atoms: C_4  and  N_13
REMARK    6  A    between atoms: N_13  and  C_14
REMARK    7  A    between atoms: C_14  and  C_15
REMARK                            x       y       z     vdW  Elec       q    Type
REMARK                         _______ _______ _______ _____ _____    ______ ____
ROOT
ATOM      1  N   UNL     1      -1.901  -0.032   1.330  0.00  0.00    +0.386 N 
ATOM      2  H   UNL     1      -2.817  -0.446   1.422  0.00  0.00    -0.085 HD
ATOM      3  H   UNL     1      -1.332  -0.294   2.121  0.00  0.00    -0.085 HD
ENDROOT
BRANCH   1   4
ATOM      4  C   UNL     1      -1.270  -0.512   0.093  0.00  0.00    -0.038 C 
BRANCH   4   5
ATOM      5  C   UNL     1      -2.182  -0.237  -1.075  0.00  0.00    -0.061 A 
ATOM      6  C   UNL     1      -3.546  -0.416  -0.944  0.00  0.00    +0.005 A 
ATOM      7  C   UNL     1      -4.383  -0.164  -2.014  0.00  0.00    +0.038 A 
ATOM      8  C   UNL     1      -3.855   0.268  -3.219  0.00  0.00    +0.123 A 
ATOM      9  C   UNL     1      -2.488   0.448  -3.349  0.00  0.00    +0.038 A 
ATOM     10  C   UNL     1      -1.653   0.200  -2.276  0.00  0.00    +0.005 A 
ATOM     11  F   UNL     1      -4.672   0.515  -4.266  0.00  0.00    -0.205 F 
ENDBRANCH   4   5
BRANCH   4  13
ATOM     12  C   UNL     1      -0.431  -2.530  -1.117  0.00  0.00    +0.006 C 
ATOM     13  C   UNL     1      -1.018  -2.017   0.200  0.00  0.00    -0.027 C 
ATOM     14  C   UNL     1      -0.032  -2.289   1.338  0.00  0.00    +0.006 C 
ENDBRANCH   4  13
ENDBRANCH   1   4
BRANCH   1  15
ATOM     15  C   UNL     1      -2.027   1.431   1.280  0.00  0.00    -0.042 C 
BRANCH  15  16
ATOM     16  C   UNL     1      -2.732   1.917   2.520  0.00  0.00    -0.021 A 
ATOM     17  C   UNL     1      -4.079   2.222   2.474  0.00  0.00    +0.025 A 
ATOM     18  C   UNL     1      -4.726   2.669   3.611  0.00  0.00    +0.042 A 
ATOM     19  C   UNL     1      -4.027   2.812   4.796  0.00  0.00    +0.029 A 
ATOM     20  C   UNL     1      -2.679   2.508   4.846  0.00  0.00    +0.022 A 
ATOM     21  C   UNL     1      -2.030   2.052   3.709  0.00  0.00    +0.130 A 
ATOM     22  O   UNL     1      -0.708   1.736   3.749  0.00  0.00    -0.466 OA
ATOM     23  C   UNL     1       0.040   2.224   4.866  0.00  0.00    +0.394 C 
ATOM     24  O   UNL     1      -0.692   1.944   6.065  0.00  0.00    -0.339 OA
ATOM     25  C   UNL     1      -1.926   2.671   6.142  0.00  0.00    +0.202 C 
ATOM     26 CL   UNL     1      -6.419   3.052   3.552  0.00  0.00    -0.084 Cl
ENDBRANCH  15  16
ENDBRANCH   1  15
TORSDOF 5
