REMARK  Name = ZINC36058003
REMARK  8 active torsions:
REMARK  status: ('A' for Active; 'I' for Inactive)
REMARK    1  A    between atoms: C_1  and  N_2
REMARK    2  A    between atoms: C_5  and  C_8
REMARK    3  A    between atoms: C_5  and  N_26
REMARK    4  A    between atoms: N_10  and  C_11
REMARK    5  A    between atoms: C_11  and  C_13
REMARK    6  A    between atoms: C_11  and  C_20
REMARK    7  A    between atoms: C_13  and  C_14
REMARK    8  A    between atoms: C_27  and  C_32
REMARK                            x       y       z     vdW  Elec       q    Type
REMARK                         _______ _______ _______ _____ _____    ______ ____
ROOT
ATOM      1  C   UNL     1      -0.446   2.075  -0.518  0.00  0.00    -0.096 C 
ATOM      2  N   UNL     1      -0.271   0.617  -0.463  0.00  0.00    +0.378 N 
ATOM      3  C   UNL     1       0.615   0.191  -1.553  0.00  0.00    -0.077 C 
ATOM      4  C   UNL     1       0.736  -1.334  -1.550  0.00  0.00    +0.017 C 
ATOM      5  C   UNL     1       1.316  -1.792  -0.209  0.00  0.00    +0.110 C 
ATOM      6  C   UNL     1       0.423  -1.279   0.924  0.00  0.00    +0.017 C 
ATOM      7  C   UNL     1       0.314   0.244   0.830  0.00  0.00    -0.077 C 
ATOM      8  H   UNL     1      -1.169   0.168  -0.568  0.00  0.00    -0.082 HD
ENDROOT
BRANCH   5   9
ATOM      9  N   UNL     1       2.669  -1.252  -0.050  0.00  0.00    -0.280 N 
ATOM     10  C   UNL     1       3.323  -0.499   1.012  0.00  0.00    +0.116 C 
ATOM     11  C   UNL     1       4.585  -0.496   0.158  0.00  0.00    +0.123 C 
ATOM     12  C   UNL     1       3.760  -1.274  -0.824  0.00  0.00    +0.219 C 
ATOM     13  O   UNL     1       3.996  -1.748  -1.915  0.00  0.00    -0.275 OA
BRANCH  10  14
ATOM     14  C   UNL     1       3.468  -1.274   2.296  0.00  0.00    -0.027 A 
ATOM     15  C   UNL     1       3.930  -2.576   2.269  0.00  0.00    +0.005 A 
ATOM     16  C   UNL     1       4.063  -3.287   3.447  0.00  0.00    +0.000 A 
ATOM     17  C   UNL     1       3.734  -2.696   4.652  0.00  0.00    +0.000 A 
ATOM     18  C   UNL     1       3.272  -1.393   4.680  0.00  0.00    +0.000 A 
ATOM     19  C   UNL     1       3.143  -0.681   3.502  0.00  0.00    +0.005 A 
ENDBRANCH  10  14
ENDBRANCH   5   9
BRANCH   5  20
ATOM     20  C   UNL     1       1.365  -3.298  -0.169  0.00  0.00    +0.237 C 
ATOM     21  O   UNL     1       2.434  -3.869  -0.121  0.00  0.00    -0.273 OA
ATOM     22  N   UNL     1       0.221  -4.010  -0.187  0.00  0.00    -0.306 N 
ATOM     23  H   UNL     1      -0.630  -3.558  -0.299  0.00  0.00    +0.149 HD
BRANCH  22  24
ATOM     24  C   UNL     1       0.263  -5.467  -0.039  0.00  0.00    +0.107 C 
BRANCH  24  25
ATOM     25  C   UNL     1       0.430  -6.106  -1.393  0.00  0.00    -0.027 A 
ATOM     26  C   UNL     1      -0.202  -5.562  -2.497  0.00  0.00    +0.005 A 
ATOM     27  C   UNL     1      -0.048  -6.148  -3.739  0.00  0.00    +0.000 A 
ATOM     28  C   UNL     1       0.738  -7.277  -3.879  0.00  0.00    +0.000 A 
ATOM     29  C   UNL     1       1.371  -7.819  -2.776  0.00  0.00    +0.000 A 
ATOM     30  C   UNL     1       1.220  -7.231  -1.534  0.00  0.00    +0.005 A 
ENDBRANCH  24  25
BRANCH  24  31
ATOM     31  C   UNL     1      -1.042  -5.953   0.596  0.00  0.00    +0.062 C 
BRANCH  31  32
ATOM     32  C   UNL     1      -1.139  -5.432   2.007  0.00  0.00    -0.045 A 
ATOM     33  C   UNL     1      -0.619  -6.170   3.053  0.00  0.00    +0.004 A 
ATOM     34  C   UNL     1      -0.707  -5.692   4.347  0.00  0.00    +0.000 A 
ATOM     35  C   UNL     1      -1.315  -4.476   4.595  0.00  0.00    +0.000 A 
ATOM     36  C   UNL     1      -1.835  -3.737   3.548  0.00  0.00    +0.000 A 
ATOM     37  C   UNL     1      -1.742  -4.213   2.254  0.00  0.00    +0.004 A 
ENDBRANCH  31  32
ENDBRANCH  24  31
ENDBRANCH  22  24
ENDBRANCH   5  20
TORSDOF 7
