REMARK  Name = ZINC64158188
REMARK  11 active torsions:
REMARK  status: ('A' for Active; 'I' for Inactive)
REMARK    1  A    between atoms: C_1  and  C_2
REMARK    2  A    between atoms: C_3  and  C_18
REMARK    3  A    between atoms: C_5  and  C_8
REMARK    4  A    between atoms: C_11  and  O_16
REMARK    5  A    between atoms: C_13  and  O_14
REMARK    6  A    between atoms: O_14  and  C_15
REMARK    7  A    between atoms: O_16  and  C_17
REMARK    8  A    between atoms: C_18  and  N_19
REMARK    9  A    between atoms: C_32  and  C_34
REMARK   10  A    between atoms: C_34  and  C_35
REMARK   11  A    between atoms: C_34  and  C_36
REMARK                            x       y       z     vdW  Elec       q    Type
REMARK                         _______ _______ _______ _____ _____    ______ ____
ROOT
ATOM      1  C   UNL     1       1.661   3.742  -1.646  0.00  0.00    +0.138 C 
ENDROOT
BRANCH   1   2
ATOM      2  N   UNL     1       1.215   4.946  -0.932  0.00  0.00    -0.291 NA
ATOM      3  C   UNL     1      -0.240   5.098  -1.015  0.00  0.00    +0.089 C 
ATOM      4  C   UNL     1      -0.716   6.202  -0.054  0.00  0.00    +0.049 C 
ATOM      5  C   UNL     1       0.155   7.402  -0.329  0.00  0.00    -0.036 C 
ATOM      6  C   UNL     1      -0.126   8.677  -0.557  0.00  0.00    -0.001 A 
ATOM      7  C   UNL     1      -1.389   9.430  -0.494  0.00  0.00    +0.010 A 
ATOM      8  C   UNL     1      -1.319  10.747  -0.823  0.00  0.00    +0.001 A 
ATOM      9  C   UNL     1      -0.134  11.383  -1.204  0.00  0.00    +0.002 A 
ATOM     10  C   UNL     1       1.075  10.771  -1.279  0.00  0.00    +0.026 A 
ATOM     11  C   UNL     1       1.131   9.387  -0.946  0.00  0.00    +0.043 A 
ATOM     12  N   UNL     1       2.145   8.572  -0.903  0.00  0.00    -0.376 N 
ATOM     13  C   UNL     1       1.674   7.278  -0.414  0.00  0.00    +0.124 C 
ATOM     14  C   UNL     1       1.952   6.135  -1.392  0.00  0.00    +0.086 C 
ATOM     15  H   UNL     1       3.057   8.787  -1.154  0.00  0.00    +0.160 HD
BRANCH  14  16
ATOM     16  C   UNL     1       1.478   6.526  -2.793  0.00  0.00    +0.002 C 
ATOM     17  C   UNL     1       2.343   7.672  -3.322  0.00  0.00    +0.009 C 
ATOM     18  C   UNL     1       1.600   5.321  -3.728  0.00  0.00    +0.009 C 
ENDBRANCH  14  16
ENDBRANCH   1   2
BRANCH   1  21
ATOM     19  C   UNL     1       3.021   0.731  -0.965  0.00  0.00    +0.044 C 
ATOM     20  C   UNL     1       1.560   1.086  -1.250  0.00  0.00    +0.163 C 
ATOM     21  C   UNL     1       1.279   2.518  -0.854  0.00  0.00    +0.059 C 
ATOM     22  N   UNL     1       0.663   2.517   0.268  0.00  0.00    -0.253 NA
ATOM     23  C   UNL     1       0.475   1.136   0.728  0.00  0.00    +0.270 C 
ATOM     24  O   UNL     1       0.681   0.296  -0.424  0.00  0.00    -0.342 OA
BRANCH  23  25
ATOM     25  C   UNL     1      -0.923   0.953   1.260  0.00  0.00    +0.045 A 
ATOM     26  C   UNL     1      -1.889   1.908   1.005  0.00  0.00    +0.015 A 
ATOM     27  C   UNL     1      -3.172   1.743   1.492  0.00  0.00    +0.046 A 
ATOM     28  C   UNL     1      -3.493   0.618   2.238  0.00  0.00    +0.124 A 
ATOM     29  C   UNL     1      -2.526  -0.342   2.494  0.00  0.00    +0.091 A 
ATOM     30  C   UNL     1      -1.241  -0.177   2.000  0.00  0.00    +0.131 A 
BRANCH  30  31
ATOM     31  O   UNL     1      -0.292  -1.118   2.246  0.00  0.00    -0.495 OA
ATOM     32  C   UNL     1      -0.690  -2.255   3.015  0.00  0.00    +0.277 C 
ENDBRANCH  30  31
BRANCH  28  33
ATOM     33  O   UNL     1      -4.755   0.457   2.716  0.00  0.00    -0.495 OA
ATOM     34  C   UNL     1      -5.700   1.485   2.413  0.00  0.00    +0.277 C 
ENDBRANCH  28  33
ENDBRANCH  23  25
ENDBRANCH   1  21
TORSDOF 6
