REMARK  Name = ZINC12134770
REMARK  9 active torsions:
REMARK  status: ('A' for Active; 'I' for Inactive)
REMARK    1  A    between atoms: C_1  and  C_2
REMARK    2  A    between atoms: C_2  and  C_4
REMARK    3  A    between atoms: C_2  and  N_14
REMARK    4  A    between atoms: C_15  and  C_17
REMARK    5  A    between atoms: C_17  and  S_18
REMARK    6  A    between atoms: S_18  and  C_19
REMARK    7  A    between atoms: C_22  and  C_30
REMARK    8  A    between atoms: N_23  and  C_24
REMARK    9  A    between atoms: C_30  and  N_63
REMARK                            x       y       z     vdW  Elec       q    Type
REMARK                         _______ _______ _______ _____ _____    ______ ____
ROOT
ATOM      1  S   UNL     1      -1.377   2.102   3.308  0.00  0.00    -0.076 S 
ENDROOT
BRANCH   1   2
ATOM      2  C   UNL     1      -2.921   2.950   3.279  0.00  0.00    +0.197 A 
ATOM      3  N   UNL     1      -3.440   3.594   2.260  0.00  0.00    -0.122 NA
ATOM      4  N   UNL     1      -4.579   4.091   2.589  0.00  0.00    -0.135 NA
ATOM      5  C   UNL     1      -4.851   3.805   3.831  0.00  0.00    +0.122 A 
ATOM      6  N   UNL     1      -3.804   3.068   4.317  0.00  0.00    -0.276 N 
BRANCH   6   7
ATOM      7  C   UNL     1      -3.666   2.543   5.611  0.00  0.00    +0.050 A 
ATOM      8  C   UNL     1      -4.547   1.571   6.064  0.00  0.00    +0.026 A 
ATOM      9  C   UNL     1      -4.406   1.052   7.337  0.00  0.00    +0.002 A 
ATOM     10  C   UNL     1      -3.395   1.508   8.162  0.00  0.00    +0.000 A 
ATOM     11  C   UNL     1      -2.519   2.480   7.715  0.00  0.00    +0.002 A 
ATOM     12  C   UNL     1      -2.652   2.999   6.442  0.00  0.00    +0.026 A 
ENDBRANCH   6   7
BRANCH   5  13
ATOM     13  C   UNL     1      -6.087   4.212   4.591  0.00  0.00    -0.001 C 
BRANCH  13  18
ATOM     14  C   UNL     1      -5.373   6.517   4.266  0.00  0.00    -0.078 C 
ATOM     15  C   UNL     1      -5.691   7.865   4.962  0.00  0.00    -0.020 C 
ATOM     16  C   UNL     1      -7.044   7.585   5.655  0.00  0.00    -0.020 C 
ATOM     17  C   UNL     1      -7.114   6.054   5.797  0.00  0.00    -0.078 C 
ATOM     18  N   UNL     1      -5.861   5.535   5.247  0.00  0.00    +0.384 N 
ATOM     19  H   UNL     1      -5.171   5.424   5.999  0.00  0.00    -0.081 HD
ENDBRANCH  13  18
ENDBRANCH   5  13
ENDBRANCH   1   2
BRANCH   1  20
ATOM     20  C   UNL     1      -0.826   2.395   1.608  0.00  0.00    +0.173 C 
BRANCH  20  22
ATOM     21  N   UNL     1       1.121   1.824   0.194  0.00  0.00    -0.308 N 
ATOM     22  C   UNL     1       0.515   1.741   1.395  0.00  0.00    +0.224 C 
ATOM     23  O   UNL     1       1.046   1.137   2.303  0.00  0.00    -0.275 OA
ATOM     24  H   UNL     1       0.697   2.307  -0.531  0.00  0.00    +0.149 HD
BRANCH  21  26
ATOM     25  C   UNL     1       2.615   0.895  -1.505  0.00  0.00    +0.033 C 
ATOM     26  C   UNL     1       2.422   1.183  -0.015  0.00  0.00    +0.101 C 
BRANCH  26  27
ATOM     27  C   UNL     1       3.517   2.101   0.466  0.00  0.00    -0.020 A 
ATOM     28  C   UNL     1       3.302   3.443   0.539  0.00  0.00    +0.006 A 
ATOM     29  C   UNL     1       4.300   4.306   0.985  0.00  0.00    +0.001 A 
ATOM     30  C   UNL     1       5.523   3.833   1.352  0.00  0.00    +0.008 A 
ATOM     31  C   UNL     1       5.784   2.454   1.284  0.00  0.00    -0.018 A 
ATOM     32  C   UNL     1       4.767   1.576   0.835  0.00  0.00    -0.013 A 
ATOM     33  C   UNL     1       5.028   0.196   0.768  0.00  0.00    +0.009 A 
ATOM     34  C   UNL     1       6.250  -0.276   1.136  0.00  0.00    +0.001 A 
ATOM     35  C   UNL     1       7.251   0.588   1.577  0.00  0.00    +0.001 A 
ATOM     36  C   UNL     1       7.034   1.929   1.655  0.00  0.00    +0.008 A 
ENDBRANCH  26  27
ENDBRANCH  21  26
ENDBRANCH  20  22
ENDBRANCH   1  20
TORSDOF 8
