REMARK  Name = ZINC36308969
REMARK  16 active torsions:
REMARK  status: ('A' for Active; 'I' for Inactive)
REMARK    1  A    between atoms: C_1  and  O_2
REMARK    2  A    between atoms: O_2  and  C_3
REMARK    3  A    between atoms: C_7  and  O_9
REMARK    4  A    between atoms: O_9  and  C_10
REMARK    5  A    between atoms: C_10  and  C_11
REMARK    6  A    between atoms: C_21  and  C_23
REMARK    7  A    between atoms: C_23  and  N_24
REMARK    8  A    between atoms: N_24  and  C_25
REMARK    9  A    between atoms: N_24  and  C_28
REMARK   10  A    between atoms: C_25  and  C_26
REMARK   11  A    between atoms: C_28  and  C_29
REMARK   12  A    between atoms: C_29  and  C_31
REMARK   13  A    between atoms: C_29  and  O_36
REMARK   14  A    between atoms: C_31  and  O_32
REMARK   15  A    between atoms: O_32  and  C_33
REMARK   16  A    between atoms: C_33  and  C_34
REMARK                            x       y       z     vdW  Elec       q    Type
REMARK                         _______ _______ _______ _____ _____    ______ ____
ROOT
ATOM      1  C   UNL     1       1.538  -7.001  -2.782  0.00  0.00    +0.144 C 
ATOM      2  C   UNL     1       0.250  -7.733  -2.413  0.00  0.00    -0.014 A 
ATOM      3  C   UNL     1      -0.803  -7.924  -3.306  0.00  0.00    +0.013 A 
ATOM      4  C   UNL     1      -1.918  -8.579  -2.908  0.00  0.00    +0.046 A 
ATOM      5  S   UNL     1      -1.527  -8.971  -1.209  0.00  0.00    -0.101 S 
ATOM      6  C   UNL     1       0.086  -8.237  -1.159  0.00  0.00    -0.004 A 
ATOM      7  C   UNL     1       1.047  -8.185  -0.016  0.00  0.00    +0.061 C 
ATOM      8  C   UNL     1       2.114  -7.121  -0.318  0.00  0.00    +0.113 C 
ATOM      9  N   UNL     1       2.523  -7.261  -1.724  0.00  0.00    -0.292 N 
ATOM     10  C   UNL     1       3.783  -7.625  -2.037  0.00  0.00    +0.200 C 
ATOM     11  O   UNL     1       4.110  -7.739  -3.200  0.00  0.00    -0.278 OA
ENDROOT
BRANCH   1  12
ATOM     12  C   UNL     1       1.270  -5.498  -2.882  0.00  0.00    +0.256 C 
BRANCH  12  13
ATOM     13  O   UNL     1       0.669  -5.040  -1.668  0.00  0.00    -0.490 OA
BRANCH  13  18
ATOM     14  C   UNL     1      -0.530  -1.857  -0.367  0.00  0.00    +0.124 A 
ATOM     15  C   UNL     1      -0.255  -1.022  -1.441  0.00  0.00    +0.046 A 
ATOM     16  C   UNL     1       0.328  -1.534  -2.584  0.00  0.00    +0.007 A 
ATOM     17  C   UNL     1       0.638  -2.879  -2.662  0.00  0.00    +0.046 A 
ATOM     18  C   UNL     1       0.365  -3.718  -1.591  0.00  0.00    +0.124 A 
ATOM     19  C   UNL     1      -0.214  -3.205  -0.440  0.00  0.00    +0.091 A 
BRANCH  14  21
ATOM     20  C   UNL     1      -1.401   0.045   0.762  0.00  0.00    +0.277 C 
ATOM     21  O   UNL     1      -1.103  -1.353   0.757  0.00  0.00    -0.495 OA
ENDBRANCH  14  21
ENDBRANCH  13  18
ENDBRANCH  12  13
ENDBRANCH   1  12
BRANCH  10  22
ATOM     22  C   UNL     1       4.785  -7.889  -0.943  0.00  0.00    +0.019 C 
BRANCH  22  23
ATOM     23  N   UNL     1       6.073  -8.267  -1.540  0.00  0.00    +0.389 N 
ATOM     24  H   UNL     1       5.939  -9.050  -2.161  0.00  0.00    -0.081 HD
BRANCH  23  25
ATOM     25  C   UNL     1       6.614  -7.129  -2.296  0.00  0.00    -0.051 C 
BRANCH  25  26
ATOM     26  C   UNL     1       6.750  -5.938  -1.383  0.00  0.00    -0.053 C 
ATOM     27  C   UNL     1       7.913  -5.352  -1.239  0.00  0.00    +0.002 C 
ENDBRANCH  25  26
ENDBRANCH  23  25
BRANCH  23  28
ATOM     28  C   UNL     1       7.015  -8.640  -0.476  0.00  0.00    -0.044 C 
BRANCH  28  29
ATOM     29  C   UNL     1       8.300  -9.187  -1.102  0.00  0.00    +0.124 C 
BRANCH  29  30
ATOM     30  O   UNL     1       8.008 -10.391  -1.814  0.00  0.00    -0.391 OA
ATOM     31  H   UNL     1       7.638 -11.094  -1.262  0.00  0.00    +0.210 HD
ENDBRANCH  29  30
BRANCH  29  32
ATOM     32  C   UNL     1       9.319  -9.480   0.001  0.00  0.00    +0.189 C 
BRANCH  32  33
ATOM     33  O   UNL     1      10.558  -9.880  -0.589  0.00  0.00    -0.373 OA
BRANCH  33  34
ATOM     34  C   UNL     1      11.584 -10.179   0.360  0.00  0.00    +0.186 C 
BRANCH  34  35
ATOM     35  C   UNL     1      12.838 -10.586  -0.369  0.00  0.00    -0.007 C 
ATOM     36  C   UNL     1      13.997 -10.100  -0.000  0.00  0.00    +0.006 C 
ENDBRANCH  34  35
ENDBRANCH  33  34
ENDBRANCH  32  33
ENDBRANCH  29  32
ENDBRANCH  28  29
ENDBRANCH  23  28
ENDBRANCH  22  23
ENDBRANCH  10  22
TORSDOF 15
