REMARK  Name = ZINC38564753
REMARK  8 active torsions:
REMARK  status: ('A' for Active; 'I' for Inactive)
REMARK    1  A    between atoms: C_1  and  C_2
REMARK    2  A    between atoms: C_2  and  C_3
REMARK    3  A    between atoms: C_3  and  C_4
REMARK    4  A    between atoms: C_4  and  C_5
REMARK    5  A    between atoms: C_5  and  C_6
REMARK    6  A    between atoms: C_6  and  N_7
REMARK    7  A    between atoms: C_8  and  O_32
REMARK    8  A    between atoms: C_10  and  C_17
REMARK                            x       y       z     vdW  Elec       q    Type
REMARK                         _______ _______ _______ _____ _____    ______ ____
ROOT
ATOM      1  N   UNL     1       2.162  -4.523  -3.738  0.00  0.00    -0.257 N 
ATOM      2  C   UNL     1       1.397  -4.764  -4.965  0.00  0.00    +0.220 C 
ATOM      3  C   UNL     1       2.252  -4.376  -6.174  0.00  0.00    +0.147 C 
ATOM      4  C   UNL     1       3.636  -4.949  -6.010  0.00  0.00    +0.249 C 
ATOM      5  O   UNL     1       4.331  -5.334  -7.092  0.00  0.00    -0.273 OA
ATOM      6  N   UNL     1       4.164  -5.073  -4.825  0.00  0.00    -0.128 NA
ATOM      7  C   UNL     1       3.490  -4.728  -3.715  0.00  0.00    +0.331 C 
ATOM      8  O   UNL     1       4.094  -4.603  -2.666  0.00  0.00    -0.250 OA
ENDROOT
BRANCH   3   9
ATOM      9  C   UNL     1       2.338  -2.851  -6.270  0.00  0.00    +0.117 C 
ATOM     10  C   UNL     1       3.084  -2.463  -7.525  0.00  0.00    +0.038 A 
ATOM     11  H   UNL     1       2.322  -3.712  -9.008  0.00  0.00    +0.166 HD
ATOM     12  C   UNL     1       4.027  -1.493  -7.551  0.00  0.00    -0.016 A 
ATOM     13  C   UNL     1       4.516  -1.408  -8.909  0.00  0.00    +0.003 A 
ATOM     14  C   UNL     1       5.477  -0.602  -9.524  0.00  0.00    +0.010 A 
ATOM     15  C   UNL     1       5.688  -0.800 -10.867  0.00  0.00    +0.001 A 
ATOM     16  C   UNL     1       4.987  -1.752 -11.588  0.00  0.00    +0.002 A 
ATOM     17  C   UNL     1       4.029  -2.563 -11.005  0.00  0.00    +0.026 A 
ATOM     18  C   UNL     1       3.794  -2.385  -9.644  0.00  0.00    +0.047 A 
ATOM     19  N   UNL     1       2.939  -3.000  -8.775  0.00  0.00    -0.356 N 
ATOM     20  C   UNL     1       4.431  -0.693  -6.338  0.00  0.00    +0.052 C 
ATOM     21  C   UNL     1       3.355  -0.888  -5.261  0.00  0.00    +0.086 C 
ATOM     22  N   UNL     1       3.066  -2.322  -5.106  0.00  0.00    -0.307 NA
ATOM     23  H   UNL     1       2.561  -2.502  -4.251  0.00  0.00    +0.123 HD
ENDBRANCH   3   9
BRANCH   2  24
ATOM     24  O   UNL     1       1.051  -6.148  -5.048  0.00  0.00    -0.373 OA
ATOM     25  H   UNL     1       0.512  -6.464  -4.310  0.00  0.00    +0.212 HD
ENDBRANCH   2  24
BRANCH   1  26
ATOM     26  C   UNL     1       1.476  -4.051  -2.532  0.00  0.00    +0.112 C 
BRANCH  26  27
ATOM     27  C   UNL     1       1.455  -2.521  -2.524  0.00  0.00    +0.019 C 
BRANCH  27  28
ATOM     28  C   UNL     1       0.739  -2.027  -1.265  0.00  0.00    +0.002 C 
BRANCH  28  29
ATOM     29  C   UNL     1       0.718  -0.497  -1.257  0.00  0.00    -0.000 C 
BRANCH  29  31
ATOM     30  C   UNL     1      -0.019   1.526   0.010  0.00  0.00    +0.004 C 
ATOM     31  C   UNL     1       0.002  -0.004   0.002  0.00  0.00    -0.003 C 
ENDBRANCH  29  31
ENDBRANCH  28  29
ENDBRANCH  27  28
ENDBRANCH  26  27
ENDBRANCH   1  26
TORSDOF 7
