REMARK  Name = ZINC40284492
REMARK  5 active torsions:
REMARK  status: ('A' for Active; 'I' for Inactive)
REMARK    1  A    between atoms: C_1  and  O_2
REMARK    2  A    between atoms: O_2  and  C_3
REMARK    3  A    between atoms: C_3  and  C_5
REMARK    4  A    between atoms: C_10  and  N_11
REMARK    5  A    between atoms: C_23  and  C_25
REMARK                            x       y       z     vdW  Elec       q    Type
REMARK                         _______ _______ _______ _____ _____    ______ ____
ROOT
ATOM      1  N   UNL     1      -3.690  -1.529   0.108  0.00  0.00    -0.269 N 
ATOM      2  C   UNL     1      -4.805  -2.241   0.366  0.00  0.00    +0.307 C 
ATOM      3  O   UNL     1      -4.724  -3.430   0.609  0.00  0.00    -0.252 OA
ATOM      4  N   UNL     1      -6.009  -1.636   0.356  0.00  0.00    -0.272 N 
ATOM      5  C   UNL     1      -6.119  -0.181   0.171  0.00  0.00    +0.116 C 
ATOM      6  C   UNL     1      -6.857   0.103  -1.144  0.00  0.00    +0.074 C 
ATOM      7  C   UNL     1      -8.060  -0.800  -1.229  0.00  0.00    +0.040 A 
ATOM      8  C   UNL     1      -8.239  -1.919  -0.495  0.00  0.00    +0.062 A 
ATOM      9  N   UNL     1      -9.409  -2.460  -0.840  0.00  0.00    -0.348 N 
ATOM     10  C   UNL     1      -9.969  -1.718  -1.760  0.00  0.00    +0.171 A 
ATOM     11  N   UNL     1      -9.155  -0.670  -2.029  0.00  0.00    -0.349 N 
ATOM     12  H   UNL     1      -9.321   0.038  -2.670  0.00  0.00    +0.166 HD
ATOM     13  C   UNL     1      -7.248  -2.416   0.525  0.00  0.00    +0.159 C 
ATOM     14  H   UNL     1      -3.747  -0.570  -0.020  0.00  0.00    +0.156 HD
ATOM     15  H   UNL     1      -9.785  -3.273  -0.468  0.00  0.00    +0.167 HD
ENDROOT
BRANCH  13  16
ATOM     16  C   UNL     1      -7.799  -2.210   1.912  0.00  0.00    +0.014 A 
ATOM     17  C   UNL     1      -8.876  -1.367   2.110  0.00  0.00    +0.010 A 
ATOM     18  C   UNL     1      -9.383  -1.177   3.381  0.00  0.00    +0.020 A 
ATOM     19  C   UNL     1      -8.812  -1.831   4.459  0.00  0.00    +0.044 A 
ATOM     20  C   UNL     1      -7.734  -2.676   4.263  0.00  0.00    +0.058 A 
ATOM     21  C   UNL     1      -7.230  -2.870   2.988  0.00  0.00    +0.130 A 
ATOM     22  F   UNL     1      -6.181  -3.698   2.795  0.00  0.00    -0.205 F 
ATOM     23 CL   UNL     1      -9.448  -1.592   6.056  0.00  0.00    -0.083 Cl
ENDBRANCH  13  16
BRANCH   1  29
ATOM     24  C   UNL     1      -1.442  -1.646  -0.790  0.00  0.00    +0.083 A 
ATOM     25  C   UNL     1      -0.207  -2.297  -0.861  0.00  0.00    +0.055 A 
ATOM     26  C   UNL     1       0.004  -3.452  -0.137  0.00  0.00    +0.124 A 
ATOM     27  C   UNL     1      -1.004  -3.971   0.663  0.00  0.00    +0.040 A 
ATOM     28  C   UNL     1      -2.228  -3.338   0.742  0.00  0.00    +0.027 A 
ATOM     29  C   UNL     1      -2.457  -2.172   0.024  0.00  0.00    +0.049 A 
ATOM     30  F   UNL     1       1.198  -4.080  -0.207  0.00  0.00    -0.205 F 
BRANCH  24  31
ATOM     31  C   UNL     1      -1.675  -0.412  -1.561  0.00  0.00    +0.341 C 
ATOM     32  O   UNL     1      -2.781   0.091  -1.583  0.00  0.00    -0.245 OA
BRANCH  31  34
ATOM     33  C   UNL     1      -0.959   1.354  -2.966  0.00  0.00    +0.280 C 
ATOM     34  O   UNL     1      -0.662   0.159  -2.241  0.00  0.00    -0.464 OA
ENDBRANCH  31  34
ENDBRANCH  24  31
ENDBRANCH   1  29
TORSDOF 4
