REMARK  Name = ZINC16840422
REMARK  10 active torsions:
REMARK  status: ('A' for Active; 'I' for Inactive)
REMARK    1  A    between atoms: C_1  and  C_2
REMARK    2  A    between atoms: C_2  and  O_3
REMARK    3  A    between atoms: O_3  and  C_4
REMARK    4  A    between atoms: C_7  and  N_10
REMARK    5  A    between atoms: C_17  and  S_19
REMARK    6  A    between atoms: S_19  and  C_20
REMARK    7  A    between atoms: C_20  and  C_21
REMARK    8  A    between atoms: N_23  and  C_24
REMARK    9  A    between atoms: C_26  and  C_31
REMARK   10  A    between atoms: C_29  and  C_30
REMARK                            x       y       z     vdW  Elec       q    Type
REMARK                         _______ _______ _______ _____ _____    ______ ____
ROOT
ATOM      1  N   UNL     1      -1.071  -0.861   0.062  0.00  0.00    -0.282 N 
ATOM      2  C   UNL     1       0.001  -0.005   0.050  0.00  0.00    +0.161 A 
ATOM      3  C   UNL     1       1.264  -0.602   0.039  0.00  0.00    +0.122 A 
ATOM      4  C   UNL     1       2.431   0.149   0.026  0.00  0.00    +0.268 A 
ATOM      5  O   UNL     1       3.525  -0.393   0.018  0.00  0.00    -0.267 OA
ATOM      6  N   UNL     1       2.324   1.500   0.023  0.00  0.00    -0.301 N 
ATOM      7  H   UNL     1       3.118   2.057   0.014  0.00  0.00    +0.171 HD
ATOM      8  C   UNL     1       1.082   2.063   0.034  0.00  0.00    +0.172 A 
ATOM      9  N   UNL     1      -0.017   1.351   0.046  0.00  0.00    -0.204 NA
ATOM     10  S   UNL     1       0.890  -2.337   0.048  0.00  0.00    -0.055 S 
ATOM     11  C   UNL     1      -0.890  -2.197   0.065  0.00  0.00    +0.132 A 
ATOM     12  S   UNL     1      -2.067  -3.441   0.081  0.00  0.00    -0.024 S 
ENDROOT
BRANCH   1  16
ATOM     13  C   UNL     1      -4.943   0.691   0.097  0.00  0.00    +0.121 A 
ATOM     14  C   UNL     1      -4.499  -0.041  -0.995  0.00  0.00    +0.047 A 
ATOM     15  C   UNL     1      -3.217  -0.554  -1.007  0.00  0.00    +0.030 A 
ATOM     16  C   UNL     1      -2.373  -0.338   0.074  0.00  0.00    +0.050 A 
ATOM     17  C   UNL     1      -2.820   0.390   1.168  0.00  0.00    +0.030 A 
ATOM     18  C   UNL     1      -4.100   0.907   1.177  0.00  0.00    +0.047 A 
BRANCH  13  19
ATOM     19  O   UNL     1      -6.205   1.197   0.108  0.00  0.00    -0.492 OA
BRANCH  19  21
ATOM     20  C   UNL     1      -8.037   2.425   1.095  0.00  0.00    +0.048 C 
ATOM     21  C   UNL     1      -6.596   1.940   1.264  0.00  0.00    +0.225 C 
ENDBRANCH  19  21
ENDBRANCH  13  19
ENDBRANCH   1  16
BRANCH   8  22
ATOM     22  S   UNL     1       0.951   3.820   0.030  0.00  0.00    -0.078 S 
BRANCH  22  23
ATOM     23  C   UNL     1      -0.850   4.001   0.047  0.00  0.00    +0.173 C 
BRANCH  23  24
ATOM     24  C   UNL     1      -1.208   5.465   0.046  0.00  0.00    +0.227 C 
ATOM     25  O   UNL     1      -0.331   6.303   0.036  0.00  0.00    -0.275 OA
ATOM     26  N   UNL     1      -2.501   5.842   0.057  0.00  0.00    -0.285 N 
ATOM     27  H   UNL     1      -3.202   5.175  -0.015  0.00  0.00    +0.155 HD
BRANCH  26  28
ATOM     28  C   UNL     1      -2.834   7.196   0.173  0.00  0.00    +0.037 A 
ATOM     29  C   UNL     1      -1.949   8.081   0.776  0.00  0.00    +0.027 A 
ATOM     30  C   UNL     1      -2.278   9.418   0.884  0.00  0.00    -0.049 A 
ATOM     31  C   UNL     1      -3.492   9.874   0.403  0.00  0.00    +0.004 A 
ATOM     32  C   UNL     1      -4.378   8.995  -0.192  0.00  0.00    +0.005 A 
ATOM     33  C   UNL     1      -4.052   7.657  -0.308  0.00  0.00    -0.029 A 
ATOM     34  C   UNL     1      -5.018   6.699  -0.958  0.00  0.00    +0.045 C 
ATOM     35  C   UNL     1      -1.317  10.380   1.533  0.00  0.00    +0.044 C 
ENDBRANCH  26  28
ENDBRANCH  23  24
ENDBRANCH  22  23
ENDBRANCH   8  22
TORSDOF 7
