REMARK  Name = ZINC09091209
REMARK  7 active torsions:
REMARK  status: ('A' for Active; 'I' for Inactive)
REMARK    1  A    between atoms: C_3  and  N_29
REMARK    2  A    between atoms: C_6  and  C_7
REMARK    3  A    between atoms: C_10  and  C_12
REMARK    4  A    between atoms: C_12  and  O_14
REMARK    5  A    between atoms: O_14  and  C_15
REMARK    6  A    between atoms: C_15  and  C_16
REMARK    7  A    between atoms: N_18  and  C_19
REMARK                            x       y       z     vdW  Elec       q    Type
REMARK                         _______ _______ _______ _____ _____    ______ ____
ROOT
ATOM      1  C   UNL     1       1.481   3.337   0.006  0.00  0.00    +0.375 C 
ATOM      2  O   UNL     1       0.506   4.065   0.019  0.00  0.00    -0.241 OA
ENDROOT
BRANCH   1   6
ATOM      3  C   UNL     1       5.016   4.085  -0.024  0.00  0.00    +0.136 A 
ATOM      4  C   UNL     1       4.523   5.359  -0.012  0.00  0.00    +0.051 A 
ATOM      5  C   UNL     1       3.129   5.260   0.000  0.00  0.00    +0.057 A 
ATOM      6  C   UNL     1       2.825   3.915  -0.004  0.00  0.00    +0.212 A 
ATOM      7  O   UNL     1       3.985   3.224  -0.013  0.00  0.00    -0.448 OA
BRANCH   3  13
ATOM      8  C   UNL     1       7.427   4.709  -0.048  0.00  0.00    +0.014 A 
ATOM      9  C   UNL     1       8.761   4.357  -0.056  0.00  0.00    +0.033 A 
ATOM     10  C   UNL     1       9.127   3.022  -0.067  0.00  0.00    +0.126 A 
ATOM     11  C   UNL     1       8.160   2.033  -0.064  0.00  0.00    +0.033 A 
ATOM     12  C   UNL     1       6.823   2.371  -0.050  0.00  0.00    +0.014 A 
ATOM     13  C   UNL     1       6.446   3.715  -0.039  0.00  0.00    +0.017 A 
BRANCH  10  14
ATOM     14  N   UNL     1      10.560   2.652  -0.082  0.00  0.00    +0.056 N 
ATOM     15  O   UNL     1      10.886   1.478  -0.092  0.00  0.00    -0.126 OA
ATOM     16  O   UNL     1      11.414   3.521  -0.085  0.00  0.00    -0.126 OA
ENDBRANCH  10  14
ENDBRANCH   3  13
ENDBRANCH   1   6
BRANCH   1  17
ATOM     17  O   UNL     1       1.322   1.997   0.000  0.00  0.00    -0.450 OA
BRANCH  17  18
ATOM     18  C   UNL     1      -0.018   1.503   0.010  0.00  0.00    +0.328 C 
BRANCH  18  19
ATOM     19  C   UNL     1       0.002  -0.004   0.002  0.00  0.00    +0.251 C 
ATOM     20  O   UNL     1       1.060  -0.596  -0.011  0.00  0.00    -0.272 OA
ATOM     21  N   UNL     1      -1.156  -0.694   0.009  0.00  0.00    -0.307 N 
ATOM     22  H   UNL     1      -2.002  -0.220   0.020  0.00  0.00    +0.149 HD
BRANCH  21  23
ATOM     23  C   UNL     1      -1.136  -2.159   0.001  0.00  0.00    +0.035 C 
ATOM     24  C   UNL     1      -0.420  -2.652  -1.258  0.00  0.00    +0.029 C 
ATOM     25  C   UNL     1      -0.399  -4.182  -1.266  0.00  0.00    -0.008 C 
ATOM     26  C   UNL     1      -1.835  -4.711  -1.255  0.00  0.00    +0.007 C 
ATOM     27  C   UNL     1      -2.551  -4.218   0.004  0.00  0.00    -0.008 C 
ATOM     28  C   UNL     1      -2.571  -2.688   0.012  0.00  0.00    +0.029 C 
ATOM     29  C   UNL     1      -1.811  -4.725   1.243  0.00  0.00    +0.007 C 
ATOM     30  C   UNL     1      -0.375  -4.195   1.232  0.00  0.00    -0.008 C 
ATOM     31  C   UNL     1       0.341  -4.689  -0.026  0.00  0.00    +0.007 C 
ATOM     32  C   UNL     1      -0.396  -2.665   1.241  0.00  0.00    +0.029 C 
ENDBRANCH  21  23
ENDBRANCH  18  19
ENDBRANCH  17  18
ENDBRANCH   1  17
TORSDOF 7
