REMARK  Name = ZINC44942887
REMARK  6 active torsions:
REMARK  status: ('A' for Active; 'I' for Inactive)
REMARK    1  A    between atoms: C_4  and  C_7
REMARK    2  A    between atoms: C_7  and  O_8
REMARK    3  A    between atoms: O_8  and  C_9
REMARK    4  A    between atoms: C_15  and  N_17
REMARK    5  A    between atoms: C_18  and  C_20
REMARK    6  A    between atoms: C_26  and  C_28
REMARK                            x       y       z     vdW  Elec       q    Type
REMARK                         _______ _______ _______ _____ _____    ______ ____
ROOT
ATOM      1  C   UNL     1       2.701  -4.929   3.760  0.00  0.00    +0.087 C 
ATOM      2  C   UNL     1       1.509  -4.284   3.051  0.00  0.00    +0.013 C 
ATOM      3  C   UNL     1       0.338  -5.268   3.026  0.00  0.00    +0.001 C 
ATOM      4  C   UNL     1      -0.056  -5.630   4.459  0.00  0.00    +0.001 C 
ATOM      5  C   UNL     1       1.137  -6.275   5.168  0.00  0.00    +0.013 C 
ATOM      6  C   UNL     1       2.308  -5.291   5.193  0.00  0.00    +0.087 C 
ENDROOT
BRANCH   6   7
ATOM      7  C   UNL     1       3.483  -5.926   5.891  0.00  0.00    +0.219 C 
ATOM      8  O   UNL     1       4.249  -6.631   5.269  0.00  0.00    -0.275 OA
ATOM      9  N   UNL     1       3.683  -5.711   7.207  0.00  0.00    -0.298 N 
ATOM     10  C   UNL     1       2.695  -4.966   8.001  0.00  0.00    +0.126 C 
ATOM     11  C   UNL     1       2.271  -5.832   9.193  0.00  0.00    +0.125 C 
ATOM     12  N   UNL     1       3.479  -6.339   9.859  0.00  0.00    -0.314 N 
ATOM     13  C   UNL     1       4.466  -7.084   9.065  0.00  0.00    +0.125 C 
ATOM     14  C   UNL     1       4.888  -6.222   7.874  0.00  0.00    +0.126 C 
ATOM     15  C   UNL     1       3.685  -6.117  11.216  0.00  0.00    +0.099 A 
ATOM     16  C   UNL     1       2.686  -5.517  11.976  0.00  0.00    +0.042 A 
ATOM     17  C   UNL     1       2.904  -5.302  13.324  0.00  0.00    +0.005 A 
ATOM     18  C   UNL     1       4.119  -5.695  13.870  0.00  0.00    +0.018 A 
ATOM     19  C   UNL     1       5.066  -6.285  13.058  0.00  0.00    +0.084 A 
ATOM     20  N   UNL     1       4.828  -6.482  11.775  0.00  0.00    -0.350 N 
ATOM     21  H   UNL     1       5.510  -6.902  11.227  0.00  0.00    +0.166 HD
ENDBRANCH   6   7
BRANCH   1  23
ATOM     22  N   UNL     1       4.373  -3.498   2.630  0.00  0.00    -0.310 N 
ATOM     23  C   UNL     1       3.855  -3.959   3.785  0.00  0.00    +0.217 C 
ATOM     24  O   UNL     1       4.317  -3.594   4.845  0.00  0.00    -0.275 OA
ATOM     25  H   UNL     1       4.004  -3.790   1.782  0.00  0.00    +0.149 HD
BRANCH  22  31
ATOM     26  C   UNL     1       5.495  -1.730   1.366  0.00  0.00    +0.139 C 
ATOM     27  C   UNL     1       6.666  -0.746   1.392  0.00  0.00    +0.033 C 
ATOM     28  C   UNL     1       7.981  -1.520   1.502  0.00  0.00    +0.003 C 
ATOM     29  C   UNL     1       7.981  -2.346   2.790  0.00  0.00    +0.002 C 
ATOM     30  C   UNL     1       6.809  -3.330   2.764  0.00  0.00    +0.025 C 
ATOM     31  C   UNL     1       5.495  -2.556   2.654  0.00  0.00    +0.102 C 
BRANCH  26  32
ATOM     32  O   UNL     1       4.267  -1.007   1.263  0.00  0.00    -0.370 OA
BRANCH  32  33
ATOM     33  C   UNL     1       3.844  -0.769  -0.081  0.00  0.00    +0.195 C 
BRANCH  33  37
ATOM     34  C   UNL     1       0.165   1.402  -0.053  0.00  0.00    +0.000 A 
ATOM     35  C   UNL     1       1.368   2.082  -0.065  0.00  0.00    +0.000 A 
ATOM     36  C   UNL     1       2.559   1.379  -0.074  0.00  0.00    +0.006 A 
ATOM     37  C   UNL     1       2.546  -0.003  -0.070  0.00  0.00    -0.022 A 
ATOM     38  C   UNL     1       1.342  -0.683  -0.056  0.00  0.00    +0.006 A 
ATOM     39  C   UNL     1       0.152   0.019  -0.049  0.00  0.00    +0.000 A 
ENDBRANCH  33  37
ENDBRANCH  32  33
ENDBRANCH  26  32
ENDBRANCH  22  31
ENDBRANCH   1  23
TORSDOF 6
