REMARK  Name = ZINC04236825
REMARK  12 active torsions:
REMARK  status: ('A' for Active; 'I' for Inactive)
REMARK    1  A    between atoms: C_1  and  C_2
REMARK    2  A    between atoms: C_5  and  O_30
REMARK    3  A    between atoms: C_7  and  C_27
REMARK    4  A    between atoms: C_7  and  C_28
REMARK    5  A    between atoms: C_12  and  O_26
REMARK    6  A    between atoms: C_14  and  C_16
REMARK    7  A    between atoms: C_16  and  C_17
REMARK    8  A    between atoms: N_19  and  C_20
REMARK    9  A    between atoms: C_20  and  C_21
REMARK   10  A    between atoms: C_28  and  O_29
REMARK   11  A    between atoms: O_30  and  C_31
REMARK   12  A    between atoms: N_33  and  C_34
REMARK                            x       y       z     vdW  Elec       q    Type
REMARK                         _______ _______ _______ _____ _____    ______ ____
ROOT
ATOM      1  C   UNL     1      -3.384  -6.019   1.781  0.00  0.00    +0.012 C 
ATOM      2  C   UNL     1      -4.241  -5.305   0.734  0.00  0.00    -0.023 C 
ATOM      3  C   UNL     1      -4.509  -3.869   1.186  0.00  0.00    +0.011 C 
ATOM      4  C   UNL     1      -3.179  -3.128   1.348  0.00  0.00    +0.046 C 
ATOM      5  C   UNL     1      -2.439  -3.112   0.009  0.00  0.00    +0.186 C 
ATOM      6  C   UNL     1      -2.171  -4.548  -0.444  0.00  0.00    +0.031 C 
ATOM      7  C   UNL     1      -3.500  -5.288  -0.605  0.00  0.00    +0.007 C 
ATOM      8  C   UNL     1      -4.357  -4.575  -1.653  0.00  0.00    +0.007 C 
ATOM      9  C   UNL     1      -5.686  -5.315  -1.815  0.00  0.00    +0.032 C 
ATOM     10  C   UNL     1      -6.427  -5.332  -0.476  0.00  0.00    +0.119 C 
ATOM     11  C   UNL     1      -5.570  -6.045   0.572  0.00  0.00    +0.032 C 
ATOM     12  C   UNL     1      -1.431  -4.532  -1.782  0.00  0.00    +0.017 C 
ENDROOT
BRANCH  10  13
ATOM     13  O   UNL     1      -7.668  -6.023  -0.627  0.00  0.00    -0.391 OA
ATOM     14  H   UNL     1      -8.264  -5.625  -1.277  0.00  0.00    +0.210 HD
ENDBRANCH  10  13
BRANCH  11  15
ATOM     15  C   UNL     1      -5.302  -7.482   0.119  0.00  0.00    +0.102 C 
BRANCH  15  16
ATOM     16  C   UNL     1      -6.536  -8.317   0.342  0.00  0.00    +0.214 C 
ATOM     17  O   UNL     1      -7.476  -7.859   0.956  0.00  0.00    -0.276 OA
ATOM     18  N   UNL     1      -6.596  -9.574  -0.142  0.00  0.00    -0.311 N 
ATOM     19  H   UNL     1      -5.844  -9.941  -0.633  0.00  0.00    +0.149 HD
BRANCH  18  20
ATOM     20  C   UNL     1      -7.796 -10.386   0.075  0.00  0.00    +0.146 C 
BRANCH  20  21
ATOM     21  C   UNL     1      -7.608 -11.739  -0.561  0.00  0.00    +0.007 A 
ATOM     22  C   UNL     1      -7.092 -12.871  -0.022  0.00  0.00    +0.013 A 
ATOM     23  C   UNL     1      -7.017 -14.011  -0.801  0.00  0.00    +0.008 A 
ATOM     24  C   UNL     1      -7.460 -13.962  -2.081  0.00  0.00    +0.045 A 
ATOM     25  S   UNL     1      -8.014 -12.270  -2.216  0.00  0.00    -0.100 S 
ENDBRANCH  20  21
ENDBRANCH  18  20
ENDBRANCH  15  16
ENDBRANCH  11  15
BRANCH   6  26
ATOM     26  C   UNL     1      -1.314  -5.262   0.604  0.00  0.00    +0.166 C 
BRANCH  26  27
ATOM     27  O   UNL     1      -0.008  -4.682   0.626  0.00  0.00    -0.394 OA
ATOM     28  H   UNL     1       0.591  -5.086   1.270  0.00  0.00    +0.209 HD
ENDBRANCH  26  27
ENDBRANCH   6  26
BRANCH   5  29
ATOM     29  O   UNL     1      -1.177  -2.409   0.162  0.00  0.00    -0.446 OA
BRANCH  29  30
ATOM     30  C   UNL     1      -1.186  -1.081  -0.059  0.00  0.00    +0.405 C 
ATOM     31  O   UNL     1      -2.220  -0.524  -0.371  0.00  0.00    -0.226 OA
ATOM     32  N   UNL     1      -0.049  -0.369   0.067  0.00  0.00    -0.251 N 
ATOM     33  H   UNL     1       0.788  -0.822   0.254  0.00  0.00    +0.158 HD
BRANCH  32  34
ATOM     34  C   UNL     1      -0.075   1.024  -0.074  0.00  0.00    +0.038 A 
ATOM     35  C   UNL     1      -0.933   1.614  -0.993  0.00  0.00    +0.025 A 
ATOM     36  C   UNL     1      -0.962   2.988  -1.126  0.00  0.00    +0.023 A 
ATOM     37  C   UNL     1      -0.129   3.777  -0.353  0.00  0.00    +0.059 A 
ATOM     38  C   UNL     1       0.732   3.191   0.561  0.00  0.00    +0.061 A 
ATOM     39  C   UNL     1       0.760   1.816   0.701  0.00  0.00    +0.044 A 
ATOM     40 CL   UNL     1       1.776   4.184   1.529  0.00  0.00    -0.082 Cl
ATOM     41 CL   UNL     1      -0.163   5.504  -0.528  0.00  0.00    -0.082 Cl
ENDBRANCH  32  34
ENDBRANCH  29  30
ENDBRANCH   5  29
TORSDOF 10
