REMARK  Name = ZINC35887274
REMARK  9 active torsions:
REMARK  status: ('A' for Active; 'I' for Inactive)
REMARK    1  A    between atoms: C_4  and  C_7
REMARK    2  A    between atoms: C_7  and  C_9
REMARK    3  A    between atoms: C_7  and  O_41
REMARK    4  A    between atoms: C_9  and  N_10
REMARK    5  A    between atoms: C_12  and  C_27
REMARK    6  A    between atoms: C_14  and  C_17
REMARK    7  A    between atoms: C_21  and  C_23
REMARK    8  A    between atoms: C_27  and  N_28
REMARK    9  A    between atoms: N_31  and  C_34
REMARK                            x       y       z     vdW  Elec       q    Type
REMARK                         _______ _______ _______ _____ _____    ______ ____
ROOT
ATOM      1  N   UNL     1       5.436  -1.544   1.751  0.00  0.00    +0.382 N 
ATOM      2  C   UNL     1       5.964  -2.287   2.923  0.00  0.00    -0.073 C 
ATOM      3  C   UNL     1       7.468  -2.468   2.624  0.00  0.00    -0.008 C 
ATOM      4  C   UNL     1       7.821  -1.330   1.645  0.00  0.00    +0.005 C 
ATOM      5  C   UNL     1       6.501  -0.558   1.434  0.00  0.00    -0.070 C 
ATOM      6  H   UNL     1       5.290  -2.168   0.972  0.00  0.00    -0.082 HD
ENDROOT
BRANCH   4   7
ATOM      7  C   UNL     1       8.868  -0.428   2.246  0.00  0.00    -0.045 A 
ATOM      8  C   UNL     1       8.541   0.404   3.301  0.00  0.00    +0.004 A 
ATOM      9  C   UNL     1       9.501   1.231   3.852  0.00  0.00    +0.001 A 
ATOM     10  C   UNL     1      10.788   1.228   3.349  0.00  0.00    +0.012 A 
ATOM     11  C   UNL     1      11.116   0.396   2.295  0.00  0.00    +0.055 A 
ATOM     12  C   UNL     1      10.156  -0.435   1.746  0.00  0.00    +0.016 A 
BRANCH  11  13
ATOM     13  C   UNL     1      12.519   0.392   1.746  0.00  0.00    +0.417 C 
ATOM     14  F   UNL     1      13.302   1.306   2.460  0.00  0.00    -0.166 F 
ATOM     15  F   UNL     1      13.066  -0.889   1.872  0.00  0.00    -0.166 F 
ATOM     16  F   UNL     1      12.492   0.757   0.395  0.00  0.00    -0.166 F 
ENDBRANCH  11  13
ENDBRANCH   4   7
BRANCH   1  17
ATOM     17  C   UNL     1       4.186  -0.855   2.099  0.00  0.00    -0.042 C 
BRANCH  17  18
ATOM     18  C   UNL     1       3.647  -0.122   0.869  0.00  0.00    +0.128 C 
BRANCH  18  22
ATOM     19  C   UNL     1       0.206   2.161   1.963  0.00  0.00    +0.000 A 
ATOM     20  C   UNL     1       1.436   2.780   1.838  0.00  0.00    +0.000 A 
ATOM     21  C   UNL     1       2.549   2.041   1.484  0.00  0.00    +0.006 A 
ATOM     22  C   UNL     1       2.433   0.683   1.256  0.00  0.00    -0.021 A 
ATOM     23  C   UNL     1       1.204   0.063   1.382  0.00  0.00    +0.006 A 
ATOM     24  C   UNL     1       0.090   0.802   1.734  0.00  0.00    +0.000 A 
ENDBRANCH  18  22
BRANCH  18  25
ATOM     25  O   UNL     1       3.287  -1.075  -0.133  0.00  0.00    -0.389 OA
ATOM     26  H   UNL     1       2.606  -1.702   0.147  0.00  0.00    +0.210 HD
ENDBRANCH  18  25
ENDBRANCH  17  18
ENDBRANCH   1  17
BRANCH   3  27
ATOM     27  C   UNL     1       8.285  -2.337   3.911  0.00  0.00    +0.086 C 
BRANCH  27  28
ATOM     28  N   UNL     1       9.702  -2.594   3.620  0.00  0.00    -0.299 NA
ATOM     29  C   UNL     1       9.896  -3.959   3.112  0.00  0.00    +0.103 C 
ATOM     30  C   UNL     1      11.347  -4.128   2.652  0.00  0.00    +0.120 C 
ATOM     31  N   UNL     1      12.236  -3.744   3.759  0.00  0.00    -0.327 N 
ATOM     32  C   UNL     1      12.015  -2.444   4.411  0.00  0.00    +0.120 C 
ATOM     33  C   UNL     1      10.537  -2.341   4.802  0.00  0.00    +0.103 C 
BRANCH  31  34
ATOM     34  C   UNL     1      13.264  -4.592   4.181  0.00  0.00    +0.030 A 
ATOM     35  C   UNL     1      13.386  -5.863   3.635  0.00  0.00    +0.026 A 
ATOM     36  C   UNL     1      14.402  -6.699   4.053  0.00  0.00    +0.040 A 
ATOM     37  C   UNL     1      15.300  -6.271   5.016  0.00  0.00    +0.124 A 
ATOM     38  C   UNL     1      15.182  -5.004   5.562  0.00  0.00    +0.040 A 
ATOM     39  C   UNL     1      14.169  -4.163   5.143  0.00  0.00    +0.026 A 
ATOM     40  F   UNL     1      16.294  -7.091   5.424  0.00  0.00    -0.205 F 
ENDBRANCH  31  34
ENDBRANCH  27  28
ENDBRANCH   3  27
TORSDOF 9
