REMARK  Name = ZINC47221461
REMARK  4 active torsions:
REMARK  status: ('A' for Active; 'I' for Inactive)
REMARK    1  A    between atoms: C_6  and  N_7
REMARK    2  A    between atoms: N_7  and  N_8
REMARK    3  A    between atoms: C_9  and  C_11
REMARK    4  A    between atoms: C_12  and  C_13
REMARK                            x       y       z     vdW  Elec       q    Type
REMARK                         _______ _______ _______ _____ _____    ______ ____
ROOT
ATOM      1  N   UNL     1      -1.178  -2.121   0.002  0.00  0.00    -0.233 N 
ATOM      2  C   UNL     1      -2.336  -2.812   0.010  0.00  0.00    +0.253 C 
ATOM      3  O   UNL     1      -3.398  -2.219   0.024  0.00  0.00    -0.269 OA
ATOM      4  H   UNL     1      -0.331  -2.594  -0.009  0.00  0.00    +0.173 HD
ENDROOT
BRANCH   1   5
ATOM      5  N   UNL     1      -1.198  -0.721   0.010  0.00  0.00    -0.264 N 
ATOM      6  H   UNL     1      -2.046  -0.248   0.021  0.00  0.00    +0.170 HD
BRANCH   5  12
ATOM      7  C   UNL     1      -0.017   1.385   0.010  0.00  0.00    +0.027 A 
ATOM      8  C   UNL     1       1.171   2.090   0.002  0.00  0.00    +0.040 A 
ATOM      9  C   UNL     1       2.379   1.414  -0.013  0.00  0.00    +0.124 A 
ATOM     10  C   UNL     1       2.400   0.030  -0.021  0.00  0.00    +0.040 A 
ATOM     11  C   UNL     1       1.215  -0.680  -0.014  0.00  0.00    +0.027 A 
ATOM     12  C   UNL     1       0.002  -0.004   0.002  0.00  0.00    +0.045 A 
ATOM     13  F   UNL     1       3.539   2.107  -0.020  0.00  0.00    -0.205 F 
ENDBRANCH   5  12
ENDBRANCH   1   5
BRANCH   2  14
ATOM     14  C   UNL     1      -2.315  -4.274   0.002  0.00  0.00    +0.069 C 
ATOM     15  C   UNL     1      -3.474  -4.966   0.010  0.00  0.00    +0.013 C 
BRANCH  15  16
ATOM     16  C   UNL     1      -3.452  -6.436   0.002  0.00  0.00    -0.020 A 
ATOM     17  C   UNL     1      -4.652  -7.156   0.004  0.00  0.00    +0.057 A 
ATOM     18  C   UNL     1      -4.629  -8.538  -0.004  0.00  0.00    +0.164 A 
ATOM     19  C   UNL     1      -3.410  -9.213  -0.017  0.00  0.00    +0.180 A 
ATOM     20  C   UNL     1      -2.217  -8.499  -0.017  0.00  0.00    +0.087 A 
ATOM     21  C   UNL     1      -2.232  -7.121  -0.014  0.00  0.00    +0.031 A 
ATOM     22 CL   UNL     1      -0.702  -9.346  -0.028  0.00  0.00    -0.080 Cl
ATOM     23  O   UNL     1      -3.370 -10.573  -0.033  0.00  0.00    -0.483 OA
ATOM     24  C   UNL     1      -4.570 -11.257   0.345  0.00  0.00    +0.270 C 
ATOM     25  C   UNL     1      -5.749 -10.601  -0.386  0.00  0.00    +0.270 C 
ATOM     26  O   UNL     1      -5.805  -9.223   0.002  0.00  0.00    -0.485 OA
ENDBRANCH  15  16
ENDBRANCH   2  14
TORSDOF 4
