REMARK  Name = ZINC06600905
REMARK  14 active torsions:
REMARK  status: ('A' for Active; 'I' for Inactive)
REMARK    1  A    between atoms: C_1  and  C_2
REMARK    2  A    between atoms: C_2  and  O_3
REMARK    3  A    between atoms: O_3  and  C_4
REMARK    4  A    between atoms: C_7  and  N_10
REMARK    5  A    between atoms: N_10  and  C_11
REMARK    6  A    between atoms: C_11  and  C_12
REMARK    7  A    between atoms: N_14  and  C_15
REMARK    8  A    between atoms: C_15  and  C_16
REMARK    9  A    between atoms: C_16  and  C_17
REMARK   10  A    between atoms: C_17  and  C_18
REMARK   11  A    between atoms: C_17  and  C_19
REMARK   12  A    between atoms: C_20  and  C_22
REMARK   13  A    between atoms: C_22  and  N_23
REMARK   14  A    between atoms: C_25  and  C_28
REMARK                            x       y       z     vdW  Elec       q    Type
REMARK                         _______ _______ _______ _____ _____    ______ ____
ROOT
ATOM      1  N   UNL     1      -0.016   1.344   0.009  0.00  0.00    -0.261 N 
ATOM      2  C   UNL     1      -0.013   0.018   0.253  0.00  0.00    +0.243 C 
ATOM      3  O   UNL     1      -1.039  -0.541   0.580  0.00  0.00    -0.273 OA
ENDROOT
BRANCH   1   7
ATOM      4  C   UNL     1      -3.603   3.469   0.077  0.00  0.00    +0.121 A 
ATOM      5  C   UNL     1      -2.642   3.700   1.050  0.00  0.00    +0.047 A 
ATOM      6  C   UNL     1      -1.454   2.997   1.028  0.00  0.00    +0.027 A 
ATOM      7  C   UNL     1      -1.222   2.057   0.032  0.00  0.00    +0.037 A 
ATOM      8  C   UNL     1      -2.182   1.830  -0.944  0.00  0.00    +0.027 A 
ATOM      9  C   UNL     1      -3.372   2.530  -0.918  0.00  0.00    +0.047 A 
BRANCH   4  10
ATOM     10  O   UNL     1      -4.773   4.162   0.099  0.00  0.00    -0.492 OA
BRANCH  10  12
ATOM     11  C   UNL     1      -6.962   4.743  -0.744  0.00  0.00    +0.048 C 
ATOM     12  C   UNL     1      -5.718   3.872  -0.933  0.00  0.00    +0.225 C 
ENDBRANCH  10  12
ENDBRANCH   4  10
ENDBRANCH   1   7
BRANCH   1  13
ATOM     13  C   UNL     1       1.240   2.037  -0.285  0.00  0.00    +0.209 C 
BRANCH  13  14
ATOM     14  C   UNL     1       1.487   2.020  -1.771  0.00  0.00    +0.231 C 
ATOM     15  O   UNL     1       0.692   1.482  -2.512  0.00  0.00    -0.274 OA
ATOM     16  N   UNL     1       2.592   2.603  -2.278  0.00  0.00    -0.314 N 
ATOM     17  H   UNL     1       3.228   3.034  -1.685  0.00  0.00    +0.149 HD
BRANCH  16  18
ATOM     18  C   UNL     1       2.832   2.587  -3.723  0.00  0.00    +0.104 C 
BRANCH  18  19
ATOM     19  C   UNL     1       4.144   3.311  -4.030  0.00  0.00    +0.022 C 
BRANCH  19  20
ATOM     20  C   UNL     1       4.394   3.294  -5.540  0.00  0.00    -0.016 C 
ATOM     21  C   UNL     1       3.308   4.107  -6.246  0.00  0.00    +0.007 C 
ATOM     22  C   UNL     1       5.764   3.907  -5.836  0.00  0.00    +0.007 C 
ENDBRANCH  19  20
ENDBRANCH  18  19
ENDBRANCH  16  18
ENDBRANCH  13  14
ENDBRANCH   1  13
BRANCH   2  23
ATOM     23  C   UNL     1       1.264  -0.770   0.118  0.00  0.00    +0.264 C 
BRANCH  23  24
ATOM     24  N   UNL     1       1.006  -2.177   0.433  0.00  0.00    -0.154 N 
ATOM     25  N   UNL     1       1.100  -2.708   1.604  0.00  0.00    -0.130 NA
ATOM     26  C   UNL     1       0.791  -3.985   1.494  0.00  0.00    +0.205 A 
ATOM     27  N   UNL     1       0.512  -4.202   0.200  0.00  0.00    -0.108 NA
ATOM     28  N   UNL     1       0.654  -3.078  -0.416  0.00  0.00    -0.045 NA
BRANCH  26  29
ATOM     29  C   UNL     1       0.762  -4.988   2.588  0.00  0.00    +0.023 A 
ATOM     30  C   UNL     1       1.084  -4.611   3.889  0.00  0.00    +0.014 A 
ATOM     31  C   UNL     1       1.050  -5.545   4.904  0.00  0.00    +0.039 A 
ATOM     32  C   UNL     1       0.708  -6.859   4.628  0.00  0.00    +0.123 A 
ATOM     33  C   UNL     1       0.392  -7.239   3.334  0.00  0.00    +0.039 A 
ATOM     34  C   UNL     1       0.418  -6.310   2.314  0.00  0.00    +0.014 A 
ATOM     35  F   UNL     1       0.682  -7.772   5.624  0.00  0.00    -0.205 F 
ENDBRANCH  26  29
ENDBRANCH  23  24
ENDBRANCH   2  23
TORSDOF 11
