REMARK  Name = ZINC36548394
REMARK  14 active torsions:
REMARK  status: ('A' for Active; 'I' for Inactive)
REMARK    1  A    between atoms: C_1  and  C_2
REMARK    2  A    between atoms: C_2  and  C_3
REMARK    3  A    between atoms: C_2  and  C_4
REMARK    4  A    between atoms: C_2  and  C_5
REMARK    5  A    between atoms: C_5  and  C_6
REMARK    6  A    between atoms: C_6  and  C_7
REMARK    7  A    between atoms: C_6  and  C_8
REMARK    8  A    between atoms: C_6  and  N_9
REMARK    9  A    between atoms: C_10  and  C_12
REMARK   10  A    between atoms: C_12  and  C_14
REMARK   11  A    between atoms: C_12  and  N_21
REMARK   12  A    between atoms: C_19  and  O_20
REMARK   13  A    between atoms: N_21  and  C_22
REMARK   14  A    between atoms: C_29  and  C_31
REMARK                            x       y       z     vdW  Elec       q    Type
REMARK                         _______ _______ _______ _____ _____    ______ ____
ROOT
ATOM      1  C   UNL     1       5.392  -0.581  -4.297  0.00  0.00    +0.201 C 
ENDROOT
BRANCH   1   2
ATOM      2  C   UNL     1       4.883   0.327  -5.386  0.00  0.00    +0.024 A 
ATOM      3  C   UNL     1       4.188   1.476  -5.060  0.00  0.00    +0.009 A 
ATOM      4  C   UNL     1       3.720   2.309  -6.059  0.00  0.00    +0.001 A 
ATOM      5  C   UNL     1       3.945   1.995  -7.386  0.00  0.00    +0.004 A 
ATOM      6  C   UNL     1       4.639   0.847  -7.718  0.00  0.00    +0.046 A 
ATOM      7  C   UNL     1       5.115   0.012  -6.717  0.00  0.00    +0.122 A 
BRANCH   7   8
ATOM      8  O   UNL     1       5.803  -1.114  -7.040  0.00  0.00    -0.506 OA
ATOM      9  H   UNL     1       5.255  -1.910  -7.084  0.00  0.00    +0.292 HD
ENDBRANCH   7   8
ENDBRANCH   1   2
BRANCH   1  11
ATOM     10  N   UNL     1       3.274  -0.945  -3.072  0.00  0.00    -0.308 N 
ATOM     11  C   UNL     1       4.523  -0.437  -3.075  0.00  0.00    +0.239 C 
ATOM     12  O   UNL     1       4.946   0.136  -2.093  0.00  0.00    -0.273 OA
ATOM     13  H   UNL     1       2.956  -1.454  -3.835  0.00  0.00    +0.149 HD
BRANCH  10  14
ATOM     14  C   UNL     1       2.398  -0.730  -1.918  0.00  0.00    +0.030 C 
ATOM     15  C   UNL     1       2.322   0.766  -1.608  0.00  0.00    +0.031 C 
ATOM     16  C   UNL     1       2.959  -1.474  -0.705  0.00  0.00    +0.031 C 
BRANCH  14  17
ATOM     17  C   UNL     1       0.997  -1.257  -2.236  0.00  0.00    +0.031 C 
BRANCH  17  19
ATOM     18  C   UNL     1       1.246  -1.778  -4.667  0.00  0.00    +0.010 C 
ATOM     19  C   UNL     1       0.602  -0.832  -3.652  0.00  0.00    -0.036 C 
ATOM     20  C   UNL     1       1.083   0.597  -3.909  0.00  0.00    +0.010 C 
ATOM     21  C   UNL     1      -0.921  -0.890  -3.795  0.00  0.00    +0.010 C 
ENDBRANCH  17  19
ENDBRANCH  14  17
ENDBRANCH  10  14
ENDBRANCH   1  11
BRANCH   1  22
ATOM     22  N   UNL     1       6.771  -0.215  -3.961  0.00  0.00    -0.252 N 
ATOM     23  C   UNL     1       7.773  -1.088  -4.185  0.00  0.00    +0.241 C 
ATOM     24  O   UNL     1       7.535  -2.176  -4.664  0.00  0.00    -0.273 OA
BRANCH  22  25
ATOM     25  C   UNL     1       7.046   1.041  -3.408  0.00  0.00    +0.056 A 
ATOM     26  C   UNL     1       7.135   1.190  -2.030  0.00  0.00    +0.025 A 
ATOM     27  C   UNL     1       7.407   2.431  -1.488  0.00  0.00    +0.002 A 
ATOM     28  C   UNL     1       7.591   3.524  -2.314  0.00  0.00    +0.002 A 
ATOM     29  C   UNL     1       7.503   3.380  -3.686  0.00  0.00    +0.022 A 
ATOM     30  C   UNL     1       7.238   2.140  -4.237  0.00  0.00    +0.062 A 
ATOM     31 CL   UNL     1       7.136   1.957  -5.960  0.00  0.00    -0.082 Cl
ENDBRANCH  22  25
BRANCH  23  32
ATOM     32  C   UNL     1       9.191  -0.711  -3.840  0.00  0.00    +0.160 C 
ATOM     33  C   UNL     1       9.801   0.160  -4.960  0.00  0.00    +0.041 C 
ATOM     34  C   UNL     1      10.506  -0.901  -5.836  0.00  0.00    +0.098 C 
ATOM     35  C   UNL     1      10.779  -2.046  -4.884  0.00  0.00    +0.214 C 
ATOM     36  O   UNL     1      11.557  -2.952  -5.093  0.00  0.00    -0.276 OA
ATOM     37  N   UNL     1      10.033  -1.911  -3.772  0.00  0.00    -0.304 N 
ATOM     38  H   UNL     1      10.050  -2.526  -3.022  0.00  0.00    +0.149 HD
ENDBRANCH  23  32
ENDBRANCH   1  22
TORSDOF 9
