REMARK  Name = ZINC09547211
REMARK  6 active torsions:
REMARK  status: ('A' for Active; 'I' for Inactive)
REMARK    1  A    between atoms: C_1  and  N_2
REMARK    2  A    between atoms: C_5  and  C_21
REMARK    3  A    between atoms: C_8  and  C_13
REMARK    4  A    between atoms: C_16  and  O_20
REMARK    5  A    between atoms: C_17  and  O_19
REMARK    6  A    between atoms: N_31  and  C_34
REMARK                            x       y       z     vdW  Elec       q    Type
REMARK                         _______ _______ _______ _____ _____    ______ ____
ROOT
ATOM      1  C   UNL     1      -2.972   0.790  -0.422  0.00  0.00    +0.154 C 
ATOM      2  N   UNL     1      -1.603   1.287  -0.580  0.00  0.00    -0.294 N 
ATOM      3  C   UNL     1      -1.304   2.619  -0.272  0.00  0.00    +0.083 A 
ATOM      4  C   UNL     1       0.086   3.070  -0.454  0.00  0.00    +0.089 A 
ATOM      5  C   UNL     1       0.115   4.406  -0.090  0.00  0.00    +0.065 A 
ATOM      6  N   UNL     1      -1.142   4.759   0.285  0.00  0.00    -0.337 N 
ATOM      7  C   UNL     1      -1.992   3.679   0.174  0.00  0.00    +0.077 A 
ATOM      8  C   UNL     1      -3.461   3.751   0.522  0.00  0.00    +0.197 C 
ATOM      9  O   UNL     1      -3.675   4.957   1.268  0.00  0.00    -0.364 OA
ATOM     10  C   UNL     1      -3.121   6.125   0.657  0.00  0.00    +0.182 C 
ATOM     11  C   UNL     1      -1.591   6.081   0.748  0.00  0.00    +0.150 C 
ATOM     12  C   UNL     1       1.061   2.091  -0.940  0.00  0.00    +0.266 A 
ATOM     13  O   UNL     1       2.225   2.402  -1.111  0.00  0.00    -0.267 OA
ATOM     14  N   UNL     1       0.637   0.835  -1.195  0.00  0.00    -0.263 N 
ATOM     15  C   UNL     1      -0.637   0.460  -1.017  0.00  0.00    +0.332 A 
ATOM     16  O   UNL     1      -0.937  -0.691  -1.270  0.00  0.00    -0.246 OA
ATOM     17  C   UNL     1       1.603  -0.153  -1.681  0.00  0.00    +0.157 C 
ENDROOT
BRANCH   5  18
ATOM     18  C   UNL     1       1.298   5.287  -0.108  0.00  0.00    +0.018 A 
ATOM     19  C   UNL     1       2.112   5.391   1.023  0.00  0.00    +0.013 A 
ATOM     20  C   UNL     1       3.216   6.217   1.000  0.00  0.00    +0.021 A 
ATOM     21  C   UNL     1       3.520   6.942  -0.140  0.00  0.00    +0.042 A 
ATOM     22  C   UNL     1       2.718   6.845  -1.265  0.00  0.00    +0.040 A 
ATOM     23  C   UNL     1       1.613   6.017  -1.258  0.00  0.00    +0.051 A 
ATOM     24 CL   UNL     1       0.612   5.890  -2.671  0.00  0.00    -0.083 Cl
ATOM     25 CL   UNL     1       4.912   7.979  -0.160  0.00  0.00    -0.083 Cl
ENDBRANCH   5  18
BRANCH   8  26
ATOM     26  C   UNL     1      -3.847   2.558   1.359  0.00  0.00    -0.009 A 
ATOM     27  C   UNL     1      -4.956   1.807   1.018  0.00  0.00    +0.010 A 
ATOM     28  C   UNL     1      -5.311   0.708   1.778  0.00  0.00    +0.049 A 
ATOM     29  C   UNL     1      -4.561   0.365   2.892  0.00  0.00    +0.158 A 
ATOM     30  C   UNL     1      -3.448   1.125   3.238  0.00  0.00    +0.159 A 
ATOM     31  C   UNL     1      -3.095   2.221   2.468  0.00  0.00    +0.055 A 
BRANCH  30  32
ATOM     32  O   UNL     1      -2.709   0.792   4.330  0.00  0.00    -0.503 OA
ATOM     33  H   UNL     1      -3.006   1.214   5.149  0.00  0.00    +0.292 HD
ENDBRANCH  30  32
BRANCH  29  34
ATOM     34  O   UNL     1      -4.912  -0.712   3.644  0.00  0.00    -0.503 OA
ATOM     35  H   UNL     1      -5.524  -0.506   4.365  0.00  0.00    +0.292 HD
ENDBRANCH  29  34
ENDBRANCH   8  26
TORSDOF 4
