REMARK  Name = ZINC12037296
REMARK  8 active torsions:
REMARK  status: ('A' for Active; 'I' for Inactive)
REMARK    1  A    between atoms: C_1  and  N_60
REMARK    2  A    between atoms: C_2  and  N_60
REMARK    3  A    between atoms: C_3  and  C_4
REMARK    4  A    between atoms: C_3  and  N_60
REMARK    5  A    between atoms: C_4  and  N_5
REMARK    6  A    between atoms: C_9  and  C_12
REMARK    7  A    between atoms: C_9  and  C_25
REMARK    8  A    between atoms: C_12  and  C_13
REMARK                            x       y       z     vdW  Elec       q    Type
REMARK                         _______ _______ _______ _____ _____    ______ ____
ROOT
ATOM      1  N   UNL     1      -3.320   1.118   0.705  0.00  0.00    -0.243 N 
ATOM      2  C   UNL     1      -3.415   1.115  -0.630  0.00  0.00    +0.223 C 
ATOM      3  O   UNL     1      -4.349   0.677  -1.266  0.00  0.00    -0.275 OA
ATOM      4  C   UNL     1      -2.171   1.744  -1.220  0.00  0.00    +0.117 C 
ATOM      5  C   UNL     1      -1.332   2.115   0.020  0.00  0.00    +0.090 C 
ATOM      6  C   UNL     1      -2.189   1.657   1.179  0.00  0.00    +0.233 C 
ATOM      7  O   UNL     1      -1.899   1.761   2.352  0.00  0.00    -0.274 OA
ENDROOT
BRANCH   5   8
ATOM      8  C   UNL     1      -0.017   1.379   0.010  0.00  0.00    -0.013 A 
ATOM      9  C   UNL     1       1.171   2.086   0.002  0.00  0.00    +0.006 A 
ATOM     10  C   UNL     1       2.377   1.411  -0.013  0.00  0.00    +0.000 A 
ATOM     11  C   UNL     1       2.397   0.029  -0.021  0.00  0.00    +0.001 A 
ATOM     12  C   UNL     1       1.210  -0.679  -0.013  0.00  0.00    +0.020 A 
ATOM     13  C   UNL     1       0.002  -0.004   0.002  0.00  0.00    +0.045 A 
ATOM     14 CL   UNL     1      -1.489  -0.893   0.011  0.00  0.00    -0.083 Cl
ENDBRANCH   5   8
BRANCH   1  15
ATOM     15  C   UNL     1      -4.366   0.577   1.576  0.00  0.00    +0.098 C 
BRANCH  15  16
ATOM     16  C   UNL     1      -4.096  -0.906   1.837  0.00  0.00    -0.060 C 
BRANCH  16  19
ATOM     17  C   UNL     1      -5.058  -2.913   2.792  0.00  0.00    -0.097 C 
ATOM     18  C   UNL     1      -5.084  -0.842   4.047  0.00  0.00    -0.097 C 
ATOM     19  N   UNL     1      -5.171  -1.442   2.699  0.00  0.00    +0.377 N 
ATOM     20  H   UNL     1      -6.080  -1.203   2.285  0.00  0.00    -0.083 HD
ENDBRANCH  16  19
ENDBRANCH  15  16
ENDBRANCH   1  15
BRANCH   5  21
ATOM     21  C   UNL     1      -1.101   3.626   0.081  0.00  0.00    +0.117 C 
BRANCH  21  22
ATOM     22  C   UNL     1      -0.325   3.966   1.327  0.00  0.00    +0.217 C 
ATOM     23  O   UNL     1       0.011   3.086   2.091  0.00  0.00    -0.276 OA
ATOM     24  N   UNL     1      -0.003   5.248   1.592  0.00  0.00    -0.297 N 
ATOM     25  C   UNL     1       0.749   5.613   2.804  0.00  0.00    +0.113 C 
ATOM     26  C   UNL     1       2.095   6.193   2.357  0.00  0.00    +0.054 C 
ATOM     27  C   UNL     1       1.903   7.216   1.268  0.00  0.00    -0.041 A 
ATOM     28  C   UNL     1       2.934   8.121   1.046  0.00  0.00    +0.004 A 
ATOM     29  C   UNL     1       2.832   9.069   0.049  0.00  0.00    +0.000 A 
ATOM     30  C   UNL     1       1.696   9.121  -0.737  0.00  0.00    +0.000 A 
ATOM     31  C   UNL     1       0.669   8.226  -0.515  0.00  0.00    +0.005 A 
ATOM     32  C   UNL     1       0.769   7.274   0.491  0.00  0.00    -0.027 A 
ATOM     33  C   UNL     1      -0.394   6.335   0.688  0.00  0.00    +0.143 C 
ENDBRANCH  21  22
ENDBRANCH   5  21
TORSDOF 6
