REMARK  Name = ZINC43241580
REMARK  9 active torsions:
REMARK  status: ('A' for Active; 'I' for Inactive)
REMARK    1  A    between atoms: C_1  and  C_2
REMARK    2  A    between atoms: C_5  and  C_7
REMARK    3  A    between atoms: C_7  and  C_9
REMARK    4  A    between atoms: C_7  and  N_13
REMARK    5  A    between atoms: C_9  and  C_11
REMARK    6  A    between atoms: C_9  and  N_12
REMARK    7  A    between atoms: N_13  and  C_14
REMARK    8  A    between atoms: N_13  and  C_15
REMARK    9  A    between atoms: C_15  and  C_16
REMARK                            x       y       z     vdW  Elec       q    Type
REMARK                         _______ _______ _______ _____ _____    ______ ____
ROOT
ATOM      1  C   UNL     1       1.518  -4.332  -0.090  0.00  0.00    +0.079 C 
ENDROOT
BRANCH   1   6
ATOM      2  C   UNL     1       0.258   0.892   1.704  0.00  0.00    +0.051 C 
ATOM      3  C   UNL     1       0.377  -0.570   1.358  0.00  0.00    -0.013 A 
ATOM      4  C   UNL     1      -0.431  -1.599   1.711  0.00  0.00    +0.011 A 
ATOM      5  C   UNL     1      -0.124  -2.874   1.273  0.00  0.00    +0.013 A 
ATOM      6  C   UNL     1       0.977  -3.057   0.504  0.00  0.00    +0.006 A 
ATOM      7  S   UNL     1       1.616  -1.395   0.372  0.00  0.00    -0.097 S 
ENDBRANCH   1   6
BRANCH   1   8
ATOM      8  C   UNL     1       1.542  -4.213  -1.616  0.00  0.00    -0.056 C 
ATOM      9  C   UNL     1       0.123  -3.960  -2.130  0.00  0.00    -0.012 C 
BRANCH   8  10
ATOM     10  N   UNL     1       2.057  -5.461  -2.196  0.00  0.00    +0.381 N 
ATOM     11  H   UNL     1       1.393  -6.204  -2.038  0.00  0.00    -0.090 HD
ATOM     12  H   UNL     1       2.196  -5.338  -3.188  0.00  0.00    -0.090 HD
ATOM     13  H   UNL     1       2.936  -5.697  -1.760  0.00  0.00    -0.090 HD
ENDBRANCH   8  10
ENDBRANCH   1   8
BRANCH   1  14
ATOM     14  N   UNL     1       2.882  -4.562   0.404  0.00  0.00    -0.295 NA
ATOM     15  C   UNL     1       2.869  -4.967   1.816  0.00  0.00    +0.105 C 
BRANCH  14  16
ATOM     16  C   UNL     1       3.722  -3.373   0.205  0.00  0.00    +0.121 C 
BRANCH  16  17
ATOM     17  C   UNL     1       5.166  -3.732   0.442  0.00  0.00    -0.019 A 
ATOM     18  C   UNL     1       5.764  -3.432   1.651  0.00  0.00    +0.006 A 
ATOM     19  C   UNL     1       7.088  -3.762   1.869  0.00  0.00    +0.000 A 
ATOM     20  C   UNL     1       7.816  -4.393   0.877  0.00  0.00    +0.001 A 
ATOM     21  C   UNL     1       7.219  -4.694  -0.333  0.00  0.00    +0.015 A 
ATOM     22  C   UNL     1       5.892  -4.368  -0.549  0.00  0.00    +0.022 A 
ATOM     23 BR   UNL     1       5.073  -4.785  -2.202  0.00  0.00    -0.050 Br
ENDBRANCH  16  17
ENDBRANCH  14  16
ENDBRANCH   1  14
TORSDOF 6
