REMARK  Name = ZINC02569051
REMARK  9 active torsions:
REMARK  status: ('A' for Active; 'I' for Inactive)
REMARK    1  A    between atoms: C_1  and  C_2
REMARK    2  A    between atoms: C_2  and  C_3
REMARK    3  A    between atoms: C_10  and  C_17
REMARK    4  A    between atoms: C_12  and  C_13
REMARK    5  A    between atoms: N_15  and  N_16
REMARK    6  A    between atoms: C_20  and  C_23
REMARK    7  A    between atoms: C_23  and  C_25
REMARK    8  A    between atoms: C_23  and  C_26
REMARK    9  A    between atoms: C_26  and  C_27
REMARK                            x       y       z     vdW  Elec       q    Type
REMARK                         _______ _______ _______ _____ _____    ______ ____
ROOT
ATOM      1  C   UNL     1      -7.947   5.304   6.256  0.00  0.00    -0.022 A 
ATOM      2  C   UNL     1      -8.659   5.839   7.285  0.00  0.00    +0.006 A 
ATOM      3  C   UNL     1      -8.265   5.650   8.608  0.00  0.00    +0.001 A 
ATOM      4  C   UNL     1      -7.153   4.920   8.908  0.00  0.00    +0.011 A 
ATOM      5  C   UNL     1      -6.398   4.355   7.875  0.00  0.00    +0.013 A 
ATOM      6  C   UNL     1      -6.793   4.545   6.527  0.00  0.00    +0.076 A 
ATOM      7  N   UNL     1      -6.076   4.007   5.539  0.00  0.00    -0.246 NA
ATOM      8  C   UNL     1      -4.993   3.293   5.764  0.00  0.00    +0.072 A 
ATOM      9  C   UNL     1      -4.518   3.040   7.059  0.00  0.00    +0.042 A 
ATOM     10  C   UNL     1      -5.197   3.565   8.149  0.00  0.00    +0.049 A 
ENDROOT
BRANCH   8  11
ATOM     11  C   UNL     1      -4.254   2.732   4.608  0.00  0.00    +0.000 A 
ATOM     12  C   UNL     1      -4.706   2.962   3.309  0.00  0.00    +0.010 A 
ATOM     13  C   UNL     1      -4.013   2.437   2.237  0.00  0.00    +0.004 A 
ATOM     14  C   UNL     1      -2.873   1.683   2.449  0.00  0.00    -0.045 A 
ATOM     15  C   UNL     1      -2.423   1.447   3.735  0.00  0.00    +0.004 A 
ATOM     16  C   UNL     1      -3.104   1.971   4.815  0.00  0.00    +0.010 A 
BRANCH  14  17
ATOM     17  C   UNL     1      -2.122   1.112   1.274  0.00  0.00    +0.016 C 
ATOM     18  C   UNL     1      -2.084  -0.413   1.385  0.00  0.00    +0.012 C 
BRANCH  17  19
ATOM     19  C   UNL     1      -0.693   1.659   1.268  0.00  0.00    +0.004 C 
ATOM     20  C   UNL     1       0.032   1.178   0.009  0.00  0.00    +0.004 C 
ENDBRANCH  17  19
ENDBRANCH  14  17
ENDBRANCH   8  11
BRANCH  10  21
ATOM     21  C   UNL     1      -4.731   3.329   9.533  0.00  0.00    +0.258 C 
ATOM     22  O   UNL     1      -5.282   3.884  10.463  0.00  0.00    -0.269 OA
ATOM     23  N   UNL     1      -3.695   2.498   9.763  0.00  0.00    -0.250 N 
ATOM     24  H   UNL     1      -3.255   2.054   9.020  0.00  0.00    +0.169 HD
BRANCH  23  25
ATOM     25  N   UNL     1      -3.264   2.280  11.040  0.00  0.00    -0.254 NA
ATOM     26  H   UNL     1      -2.486   1.638  11.055  0.00  0.00    +0.140 HD
ATOM     27  H   UNL     1      -3.026   3.149  11.495  0.00  0.00    +0.140 HD
ENDBRANCH  23  25
ENDBRANCH  10  21
BRANCH   1  29
ATOM     28  C   UNL     1      -9.246   4.336   4.378  0.00  0.00    +0.009 C 
ATOM     29  C   UNL     1      -8.393   5.522   4.833  0.00  0.00    +0.034 C 
ENDBRANCH   1  29
TORSDOF 6
