REMARK  Name = ZINC39760839
REMARK  8 active torsions:
REMARK  status: ('A' for Active; 'I' for Inactive)
REMARK    1  A    between atoms: C_1  and  C_2
REMARK    2  A    between atoms: C_12  and  C_14
REMARK    3  A    between atoms: C_14  and  S_15
REMARK    4  A    between atoms: S_15  and  C_16
REMARK    5  A    between atoms: C_19  and  C_27
REMARK    6  A    between atoms: N_20  and  C_21
REMARK    7  A    between atoms: C_27  and  N_28
REMARK    8  A    between atoms: C_29  and  C_31
REMARK                            x       y       z     vdW  Elec       q    Type
REMARK                         _______ _______ _______ _____ _____    ______ ____
ROOT
ATOM      1  C   UNL     1       4.813  -1.077   4.445  0.00  0.00    +0.197 A 
ATOM      2  N   UNL     1       4.091  -1.831   5.241  0.00  0.00    -0.122 NA
ATOM      3  N   UNL     1       4.796  -2.206   6.248  0.00  0.00    -0.132 NA
ATOM      4  C   UNL     1       6.001  -1.720   6.158  0.00  0.00    +0.156 A 
ATOM      5  N   UNL     1       6.059  -0.987   5.002  0.00  0.00    -0.273 N 
ENDROOT
BRANCH   5   6
ATOM      6  C   UNL     1       7.165  -0.287   4.497  0.00  0.00    +0.050 A 
ATOM      7  C   UNL     1       8.298  -0.978   4.089  0.00  0.00    +0.026 A 
ATOM      8  C   UNL     1       9.385  -0.286   3.591  0.00  0.00    +0.002 A 
ATOM      9  C   UNL     1       9.346   1.093   3.500  0.00  0.00    +0.000 A 
ATOM     10  C   UNL     1       8.219   1.783   3.905  0.00  0.00    +0.002 A 
ATOM     11  C   UNL     1       7.126   1.097   4.398  0.00  0.00    +0.026 A 
ENDBRANCH   5   6
BRANCH   1  12
ATOM     12  S   UNL     1       4.281  -0.330   2.940  0.00  0.00    -0.076 S 
BRANCH  12  13
ATOM     13  C   UNL     1       2.547  -0.841   2.786  0.00  0.00    +0.173 C 
BRANCH  13  24
ATOM     14  C   UNL     1      -0.019   1.526   0.010  0.00  0.00    +0.029 C 
ATOM     15  C   UNL     1       0.002  -0.004   0.002  0.00  0.00    +0.083 C 
ATOM     16  C   UNL     1      -1.430  -0.557   0.082  0.00  0.00    +0.059 C 
ATOM     17  C   UNL     1      -1.457  -1.361   1.363  0.00  0.00    -0.024 A 
ATOM     18  C   UNL     1      -2.472  -2.086   1.957  0.00  0.00    +0.005 A 
ATOM     19  C   UNL     1      -2.247  -2.747   3.150  0.00  0.00    +0.000 A 
ATOM     20  C   UNL     1      -1.003  -2.681   3.749  0.00  0.00    +0.002 A 
ATOM     21  C   UNL     1       0.013  -1.959   3.160  0.00  0.00    +0.024 A 
ATOM     22  C   UNL     1      -0.206  -1.288   1.955  0.00  0.00    +0.040 A 
ATOM     23  N   UNL     1       0.679  -0.510   1.199  0.00  0.00    -0.267 N 
ATOM     24  C   UNL     1       1.964  -0.262   1.523  0.00  0.00    +0.230 C 
ATOM     25  O   UNL     1       2.650   0.428   0.799  0.00  0.00    -0.274 OA
ENDBRANCH  13  24
ENDBRANCH  12  13
ENDBRANCH   1  12
BRANCH   4  26
ATOM     26  C   UNL     1       7.125  -1.930   7.139  0.00  0.00    +0.181 C 
BRANCH  26  27
ATOM     27  N   UNL     1       7.890  -3.120   6.759  0.00  0.00    -0.304 N 
ATOM     28  C   UNL     1       8.949  -3.505   7.498  0.00  0.00    +0.244 C 
ATOM     29  O   UNL     1       9.270  -2.865   8.480  0.00  0.00    -0.270 OA
ATOM     30  H   UNL     1       7.634  -3.631   5.975  0.00  0.00    +0.149 HD
BRANCH  28  31
ATOM     31  C   UNL     1       9.721  -4.706   7.114  0.00  0.00    +0.037 A 
ATOM     32  C   UNL     1       9.358  -5.440   5.983  0.00  0.00    +0.014 A 
ATOM     33  C   UNL     1      10.082  -6.559   5.630  0.00  0.00    +0.021 A 
ATOM     34  C   UNL     1      11.167  -6.955   6.394  0.00  0.00    +0.041 A 
ATOM     35  C   UNL     1      11.532  -6.231   7.517  0.00  0.00    +0.021 A 
ATOM     36  C   UNL     1      10.819  -5.107   7.877  0.00  0.00    +0.014 A 
ATOM     37 CL   UNL     1      12.073  -8.366   5.944  0.00  0.00    -0.084 Cl
ENDBRANCH  28  31
ENDBRANCH  26  27
ENDBRANCH   4  26
TORSDOF 7
