REMARK  Name = ZINC01082737
REMARK  3 active torsions:
REMARK  status: ('A' for Active; 'I' for Inactive)
REMARK    1  A    between atoms: C_4  and  C_7
REMARK    2  A    between atoms: C_12  and  C_22
REMARK    3  A    between atoms: C_25  and  N_28
REMARK                            x       y       z     vdW  Elec       q    Type
REMARK                         _______ _______ _______ _____ _____    ______ ____
ROOT
ATOM      1  C   UNL     1      -4.929   5.624  -1.455  0.00  0.00    +0.032 C 
ATOM      2  C   UNL     1      -4.237   4.330  -1.033  0.00  0.00    +0.059 C 
ATOM      3  C   UNL     1      -2.772   4.601  -0.732  0.00  0.00    +0.017 C 
ATOM      4  C   UNL     1      -2.102   5.546  -1.410  0.00  0.00    +0.036 C 
ATOM      5  C   UNL     1      -0.643   5.899  -1.233  0.00  0.00    +0.136 C 
ATOM      6  N   UNL     1      -0.025   5.314  -0.063  0.00  0.00    -0.331 N 
ATOM      7  C   UNL     1       0.118   3.933   0.061  0.00  0.00    +0.049 A 
ATOM      8  C   UNL     1       1.367   3.332   0.045  0.00  0.00    +0.025 A 
ATOM      9  C   UNL     1       1.460   1.953   0.109  0.00  0.00    +0.002 A 
ATOM     10  C   UNL     1       0.317   1.176   0.173  0.00  0.00    +0.002 A 
ATOM     11  C   UNL     1      -0.932   1.773   0.187  0.00  0.00    +0.025 A 
ATOM     12  C   UNL     1      -1.025   3.154   0.155  0.00  0.00    +0.052 A 
ATOM     13  N   UNL     1      -2.243   3.820   0.245  0.00  0.00    -0.316 N 
ATOM     14  C   UNL     1      -2.762   6.322  -2.392  0.00  0.00    +0.163 C 
ATOM     15  O   UNL     1      -2.126   7.160  -3.001  0.00  0.00    -0.292 OA
ATOM     16  C   UNL     1      -4.217   6.148  -2.708  0.00  0.00    +0.088 C 
ATOM     17  H   UNL     1       0.295   5.892   0.647  0.00  0.00    +0.147 HD
ATOM     18  H   UNL     1      -2.751   3.720   1.065  0.00  0.00    +0.152 HD
ENDROOT
BRANCH   1  22
ATOM     19  C   UNL     1      -9.035   4.848  -2.342  0.00  0.00    +0.000 A 
ATOM     20  C   UNL     1      -8.701   5.767  -1.366  0.00  0.00    +0.000 A 
ATOM     21  C   UNL     1      -7.372   6.018  -1.079  0.00  0.00    +0.004 A 
ATOM     22  C   UNL     1      -6.378   5.350  -1.768  0.00  0.00    -0.044 A 
ATOM     23  C   UNL     1      -6.712   4.435  -2.749  0.00  0.00    +0.004 A 
ATOM     24  C   UNL     1      -8.040   4.180  -3.032  0.00  0.00    +0.000 A 
ENDBRANCH   1  22
BRANCH   5  25
ATOM     25  C   UNL     1       0.109   5.435  -2.454  0.00  0.00    -0.023 A 
ATOM     26  C   UNL     1       0.699   6.361  -3.295  0.00  0.00    +0.008 A 
ATOM     27  C   UNL     1       1.393   5.935  -4.412  0.00  0.00    +0.033 A 
ATOM     28  C   UNL     1       1.489   4.585  -4.694  0.00  0.00    +0.126 A 
ATOM     29  C   UNL     1       0.894   3.660  -3.856  0.00  0.00    +0.033 A 
ATOM     30  C   UNL     1       0.204   4.085  -2.736  0.00  0.00    +0.008 A 
BRANCH  28  31
ATOM     31  N   UNL     1       2.229   4.130  -5.892  0.00  0.00    +0.056 N 
ATOM     32  O   UNL     1       2.314   2.941  -6.140  0.00  0.00    -0.126 OA
ATOM     33  O   UNL     1       2.753   4.945  -6.630  0.00  0.00    -0.126 OA
ENDBRANCH  28  31
ENDBRANCH   5  25
TORSDOF 3
