REMARK  Name = ZINC02624218
REMARK  12 active torsions:
REMARK  status: ('A' for Active; 'I' for Inactive)
REMARK    1  A    between atoms: C_1  and  C_2
REMARK    2  A    between atoms: C_4  and  O_12
REMARK    3  A    between atoms: C_5  and  C_9
REMARK    4  A    between atoms: C_9  and  C_10
REMARK    5  A    between atoms: C_9  and  C_11
REMARK    6  A    between atoms: O_12  and  C_13
REMARK    7  A    between atoms: C_13  and  C_14
REMARK    8  A    between atoms: C_14  and  C_16
REMARK    9  A    between atoms: C_14  and  O_29
REMARK   10  A    between atoms: C_16  and  N_60
REMARK   11  A    between atoms: N_19  and  C_22
REMARK   12  A    between atoms: C_27  and  O_28
REMARK                            x       y       z     vdW  Elec       q    Type
REMARK                         _______ _______ _______ _____ _____    ______ ____
ROOT
ATOM      1  C   UNL     1       0.748   5.653   3.768  0.00  0.00    +0.135 C 
ENDROOT
BRANCH   1   2
ATOM      2  O   UNL     1       1.479   5.955   2.578  0.00  0.00    -0.390 OA
ATOM      3  H   UNL     1       2.436   5.847   2.667  0.00  0.00    +0.210 HD
ENDBRANCH   1   2
BRANCH   1   4
ATOM      4  C   UNL     1       1.002   4.199   4.169  0.00  0.00    +0.258 C 
BRANCH   4   5
ATOM      5  O   UNL     1       0.471   3.329   3.167  0.00  0.00    -0.489 OA
BRANCH   5   9
ATOM      6  C   UNL     1       2.092  -0.333   5.958  0.00  0.00    +0.045 C 
ATOM      7  C   UNL     1       1.399   0.171   4.719  0.00  0.00    -0.029 A 
ATOM      8  C   UNL     1       1.254   1.530   4.513  0.00  0.00    +0.050 A 
ATOM      9  C   UNL     1       0.615   1.993   3.372  0.00  0.00    +0.124 A 
ATOM     10  C   UNL     1       0.123   1.091   2.440  0.00  0.00    -0.002 A 
ATOM     11  C   UNL     1       0.265  -0.267   2.652  0.00  0.00    +0.027 A 
ATOM     12  C   UNL     1       0.907  -0.727   3.788  0.00  0.00    +0.044 A 
ATOM     13 CL   UNL     1       1.090  -2.433   4.050  0.00  0.00    -0.083 Cl
BRANCH  10  14
ATOM     14  C   UNL     1      -0.572   1.591   1.200  0.00  0.00    +0.016 C 
ATOM     15  C   UNL     1       0.183   1.106  -0.039  0.00  0.00    +0.012 C 
ATOM     16  C   UNL     1      -2.005   1.055   1.166  0.00  0.00    +0.012 C 
ENDBRANCH  10  14
ENDBRANCH   5   9
ENDBRANCH   4   5
ENDBRANCH   1   4
BRANCH   1  17
ATOM     17  C   UNL     1       1.204   6.581   4.896  0.00  0.00    -0.044 C 
BRANCH  17  23
ATOM     18  C   UNL     1       1.762   8.898   5.324  0.00  0.00    -0.060 C 
ATOM     19  C   UNL     1       1.534  10.333   4.842  0.00  0.00    +0.086 C 
ATOM     20  N   UNL     1       0.105  10.660   4.945  0.00  0.00    -0.331 N 
ATOM     21  C   UNL     1      -0.703   9.739   4.134  0.00  0.00    +0.086 C 
ATOM     22  C   UNL     1      -0.475   8.304   4.616  0.00  0.00    -0.060 C 
ATOM     23  N   UNL     1       0.962   7.981   4.486  0.00  0.00    +0.383 N 
ATOM     24  H   UNL     1       1.242   8.095   3.505  0.00  0.00    -0.082 HD
BRANCH  20  25
ATOM     25  C   UNL     1      -0.133  11.990   4.580  0.00  0.00    +0.072 A 
ATOM     26  C   UNL     1       0.875  12.741   3.992  0.00  0.00    +0.027 A 
ATOM     27  C   UNL     1       0.636  14.052   3.628  0.00  0.00    +0.002 A 
ATOM     28  C   UNL     1      -0.602  14.623   3.858  0.00  0.00    +0.004 A 
ATOM     29  C   UNL     1      -1.610  13.882   4.449  0.00  0.00    +0.047 A 
ATOM     30  C   UNL     1      -1.380  12.566   4.812  0.00  0.00    +0.138 A 
BRANCH  30  31
ATOM     31  O   UNL     1      -2.370  11.837   5.394  0.00  0.00    -0.505 OA
ATOM     32  H   UNL     1      -2.338  11.832   6.361  0.00  0.00    +0.292 HD
ENDBRANCH  30  31
ENDBRANCH  20  25
ENDBRANCH  17  23
ENDBRANCH   1  17
TORSDOF 9
