REMARK  Name = ZINC28058322
REMARK  4 active torsions:
REMARK  status: ('A' for Active; 'I' for Inactive)
REMARK    1  A    between atoms: C_1  and  O_2
REMARK    2  A    between atoms: O_2  and  C_3
REMARK    3  A    between atoms: C_8  and  C_9
REMARK    4  A    between atoms: C_20  and  C_22
REMARK                            x       y       z     vdW  Elec       q    Type
REMARK                         _______ _______ _______ _____ _____    ______ ____
ROOT
ATOM      1  C   UNL     1      -0.334   5.425   0.032  0.00  0.00    +0.177 C 
ATOM      2  C   UNL     1      -0.927   5.913  -1.266  0.00  0.00    +0.026 C 
ATOM      3  C   UNL     1      -2.122   6.505  -1.328  0.00  0.00    +0.050 C 
ATOM      4  C   UNL     1      -2.618   6.958  -2.650  0.00  0.00    +0.039 A 
ATOM      5  C   UNL     1      -3.957   7.264  -2.858  0.00  0.00    +0.033 A 
ATOM      6  C   UNL     1      -4.372   7.689  -4.107  0.00  0.00    +0.042 A 
ATOM      7  C   UNL     1      -3.460   7.809  -5.143  0.00  0.00    +0.023 A 
ATOM      8  C   UNL     1      -2.126   7.506  -4.942  0.00  0.00    +0.048 A 
ATOM      9  C   UNL     1      -1.698   7.079  -3.699  0.00  0.00    +0.131 A 
ATOM     10  O   UNL     1      -0.397   6.769  -3.463  0.00  0.00    -0.479 OA
ATOM     11  C   UNL     1      -0.139   5.711  -2.540  0.00  0.00    +0.234 C 
ATOM     12 CL   UNL     1      -6.043   8.073  -4.377  0.00  0.00    -0.084 Cl
ATOM     13  N   UNL     1      -2.911   6.717  -0.191  0.00  0.00    -0.282 N 
ATOM     14  C   UNL     1      -2.303   6.555   1.043  0.00  0.00    +0.240 A 
ATOM     15  N   UNL     1      -1.089   5.955   1.159  0.00  0.00    -0.201 N 
ATOM     16  N   UNL     1      -0.792   5.979   2.521  0.00  0.00    -0.042 NA
ATOM     17  N   UNL     1      -1.793   6.552   3.106  0.00  0.00    -0.021 NA
ATOM     18  N   UNL     1      -2.686   6.892   2.240  0.00  0.00    -0.092 NA
ATOM     19  H   UNL     1      -3.968   7.000  -0.301  0.00  0.00    +0.155 HD
ENDROOT
BRANCH   1  25
ATOM     20  C   UNL     1       0.800   3.193   0.181  0.00  0.00    +0.126 A 
ATOM     21  C   UNL     1       0.757   1.807   0.211  0.00  0.00    +0.046 A 
ATOM     22  C   UNL     1      -0.456   1.153   0.127  0.00  0.00    +0.004 A 
ATOM     23  C   UNL     1      -1.627   1.878   0.007  0.00  0.00    +0.001 A 
ATOM     24  C   UNL     1      -1.588   3.260  -0.018  0.00  0.00    +0.009 A 
ATOM     25  C   UNL     1      -0.377   3.919   0.066  0.00  0.00    +0.023 A 
BRANCH  20  27
ATOM     26  C   UNL     1       3.163   3.029   0.382  0.00  0.00    +0.277 C 
ATOM     27  O   UNL     1       1.992   3.840   0.265  0.00  0.00    -0.495 OA
ENDBRANCH  20  27
ENDBRANCH   1  25
BRANCH  11  28
ATOM     28  C   UNL     1      -0.534   4.398  -3.166  0.00  0.00    -0.003 A 
ATOM     29  C   UNL     1      -1.757   4.273  -3.797  0.00  0.00    +0.007 A 
ATOM     30  C   UNL     1      -2.117   3.070  -4.375  0.00  0.00    +0.000 A 
ATOM     31  C   UNL     1      -1.258   1.989  -4.313  0.00  0.00    +0.000 A 
ATOM     32  C   UNL     1      -0.037   2.112  -3.678  0.00  0.00    +0.000 A 
ATOM     33  C   UNL     1       0.326   3.317  -3.104  0.00  0.00    +0.007 A 
ENDBRANCH  11  28
TORSDOF 3
