REMARK  Name = ZINC06182208
REMARK  4 active torsions:
REMARK  status: ('A' for Active; 'I' for Inactive)
REMARK    1  A    between atoms: C_1  and  S_2
REMARK    2  A    between atoms: S_2  and  C_5
REMARK    3  A    between atoms: C_15  and  C_17
REMARK    4  A    between atoms: C_19  and  C_27
REMARK                            x       y       z     vdW  Elec       q    Type
REMARK                         _______ _______ _______ _____ _____    ______ ____
ROOT
ATOM      1  C   UNL     1       0.843  -0.456  -1.479  0.00  0.00    +0.089 A 
ATOM      2  C   UNL     1       0.140  -0.607  -2.666  0.00  0.00    +0.029 A 
ATOM      3  C   UNL     1       0.772  -0.938  -3.836  0.00  0.00    +0.031 A 
ATOM      4  C   UNL     1       2.172  -1.136  -3.869  0.00  0.00    +0.080 A 
ATOM      5  C   UNL     1       2.855  -0.974  -2.643  0.00  0.00    +0.043 A 
ATOM      6  C   UNL     1       2.214  -0.637  -1.477  0.00  0.00    +0.044 A 
ATOM      7  S   UNL     1       4.540  -1.299  -3.102  0.00  0.00    -0.052 S 
ATOM      8  C   UNL     1       4.243  -1.619  -4.835  0.00  0.00    +0.166 A 
ATOM      9  N   UNL     1       2.943  -1.462  -4.929  0.00  0.00    -0.225 NA
ATOM     10  N   UNL     1       5.152  -1.949  -5.825  0.00  0.00    -0.261 N 
ATOM     11  C   UNL     1       4.727  -2.154  -7.088  0.00  0.00    +0.250 C 
ATOM     12  O   UNL     1       3.547  -2.050  -7.357  0.00  0.00    -0.270 OA
ATOM     13  H   UNL     1       6.094  -2.032  -5.611  0.00  0.00    +0.157 HD
ENDROOT
BRANCH  11  14
ATOM     14  C   UNL     1       5.698  -2.506  -8.146  0.00  0.00    +0.048 A 
ATOM     15  C   UNL     1       7.062  -2.512  -7.893  0.00  0.00    +0.042 A 
ATOM     16  C   UNL     1       7.954  -2.852  -8.921  0.00  0.00    +0.072 A 
ATOM     17  N   UNL     1       7.529  -3.166 -10.128  0.00  0.00    -0.247 NA
ATOM     18  C   UNL     1       6.232  -3.178 -10.436  0.00  0.00    +0.072 A 
ATOM     19  C   UNL     1       5.264  -2.854  -9.452  0.00  0.00    +0.013 A 
ATOM     20  C   UNL     1       3.903  -2.875  -9.783  0.00  0.00    +0.011 A 
ATOM     21  C   UNL     1       3.522  -3.214 -11.047  0.00  0.00    +0.001 A 
ATOM     22  C   UNL     1       4.469  -3.540 -12.016  0.00  0.00    +0.002 A 
ATOM     23  C   UNL     1       5.800  -3.516 -11.732  0.00  0.00    +0.028 A 
BRANCH  16  24
ATOM     24  C   UNL     1       9.411  -2.856  -8.642  0.00  0.00    +0.003 A 
ATOM     25  C   UNL     1       9.900  -2.534  -7.373  0.00  0.00    +0.030 A 
ATOM     26  C   UNL     1      11.263  -2.551  -7.157  0.00  0.00    +0.111 A 
ATOM     27  N   UNL     1      12.099  -2.865  -8.127  0.00  0.00    -0.263 NA
ATOM     28  C   UNL     1      11.679  -3.175  -9.339  0.00  0.00    +0.111 A 
ATOM     29  C   UNL     1      10.332  -3.188  -9.640  0.00  0.00    +0.030 A 
ENDBRANCH  16  24
ENDBRANCH  11  14
BRANCH   1  31
ATOM     30  C   UNL     1       0.001   1.784   0.042  0.00  0.00    +0.200 C 
ATOM     31  S   UNL     1      -0.001  -0.030   0.008  0.00  0.00    -0.006 S 
ATOM     32  O   UNL     1       0.820  -0.540   1.050  0.00  0.00    -0.170 OA
ATOM     33  O   UNL     1      -1.324  -0.515  -0.175  0.00  0.00    -0.170 OA
ENDBRANCH   1  31
TORSDOF 3
