REMARK  Name = ZINC09585917
REMARK  9 active torsions:
REMARK  status: ('A' for Active; 'I' for Inactive)
REMARK    1  A    between atoms: C_1  and  C_2
REMARK    2  A    between atoms: C_5  and  C_17
REMARK    3  A    between atoms: C_8  and  C_10
REMARK    4  A    between atoms: C_21  and  O_27
REMARK    5  A    between atoms: C_22  and  O_23
REMARK    6  A    between atoms: O_23  and  C_24
REMARK    7  A    between atoms: C_24  and  C_26
REMARK    8  A    between atoms: O_27  and  C_28
REMARK    9  A    between atoms: C_28  and  C_30
REMARK                            x       y       z     vdW  Elec       q    Type
REMARK                         _______ _______ _______ _____ _____    ______ ____
ROOT
ATOM      1  C   UNL     1       2.883  -4.123   1.636  0.00  0.00    +0.111 C 
ATOM      2  C   UNL     1       3.024  -2.635   1.448  0.00  0.00    +0.235 C 
ATOM      3  O   UNL     1       2.709  -1.878   2.344  0.00  0.00    -0.274 OA
ATOM      4  N   UNL     1       3.499  -2.143   0.287  0.00  0.00    -0.146 N 
ATOM      5  C   UNL     1       3.702  -0.728  -0.068  0.00  0.00    +0.323 C 
ATOM      6  O   UNL     1       4.222  -0.770  -1.404  0.00  0.00    -0.447 OA
ATOM      7  C   UNL     1       4.307  -2.069  -1.772  0.00  0.00    +0.240 C 
ATOM      8  N   UNL     1       3.906  -2.872  -0.840  0.00  0.00    -0.135 NA
ENDROOT
BRANCH   7   9
ATOM      9  C   UNL     1       4.800  -2.520  -3.090  0.00  0.00    +0.038 A 
ATOM     10  C   UNL     1       5.208  -1.585  -4.043  0.00  0.00    +0.014 A 
ATOM     11  C   UNL     1       5.674  -2.013  -5.269  0.00  0.00    +0.016 A 
ATOM     12  C   UNL     1       5.725  -3.365  -5.560  0.00  0.00    +0.018 A 
ATOM     13  C   UNL     1       5.316  -4.297  -4.621  0.00  0.00    +0.016 A 
ATOM     14  C   UNL     1       4.855  -3.883  -3.389  0.00  0.00    +0.014 A 
ATOM     15 BR   UNL     1       6.356  -3.943  -7.247  0.00  0.00    -0.050 Br
ENDBRANCH   7   9
BRANCH   5  16
ATOM     16  C   UNL     1       2.393   0.017  -0.035  0.00  0.00    +0.059 A 
ATOM     17  C   UNL     1       1.200  -0.682  -0.012  0.00  0.00    +0.013 A 
ATOM     18  C   UNL     1      -0.003  -0.002   0.018  0.00  0.00    +0.004 A 
ATOM     19  C   UNL     1      -0.020   1.380   0.025  0.00  0.00    +0.050 A 
ATOM     20  C   UNL     1       1.172   2.087   0.002  0.00  0.00    +0.174 A 
ATOM     21  C   UNL     1       2.383   1.403  -0.028  0.00  0.00    +0.182 A 
BRANCH  21  22
ATOM     22  O   UNL     1       3.555   2.092  -0.050  0.00  0.00    -0.422 OA
BRANCH  22  23
ATOM     23  C   UNL     1       4.055   2.406  -1.256  0.00  0.00    +0.309 C 
ATOM     24  O   UNL     1       3.466   2.078  -2.258  0.00  0.00    -0.251 OA
ATOM     25  C   UNL     1       5.350   3.170  -1.359  0.00  0.00    +0.136 C 
ENDBRANCH  22  23
ENDBRANCH  21  22
BRANCH  20  26
ATOM     26  O   UNL     1       1.157   3.447   0.009  0.00  0.00    -0.422 OA
BRANCH  26  27
ATOM     27  C   UNL     1       1.265   4.052   1.203  0.00  0.00    +0.309 C 
ATOM     28  O   UNL     1       1.462   3.394   2.197  0.00  0.00    -0.251 OA
ATOM     29  C   UNL     1       1.141   5.550   1.302  0.00  0.00    +0.136 C 
ENDBRANCH  26  27
ENDBRANCH  20  26
ENDBRANCH   5  16
TORSDOF 6
