REMARK  Name = ZINC28294210
REMARK  4 active torsions:
REMARK  status: ('A' for Active; 'I' for Inactive)
REMARK    1  A    between atoms: C_1  and  C_2
REMARK    2  A    between atoms: C_3  and  S_12
REMARK    3  A    between atoms: S_12  and  N_15
REMARK    4  A    between atoms: N_15  and  C_16
REMARK                            x       y       z     vdW  Elec       q    Type
REMARK                         _______ _______ _______ _____ _____    ______ ____
ROOT
ATOM      1  C   UNL     1       3.507   1.375   2.122  0.00  0.00    +0.065 C 
ATOM      2  C   UNL     1       2.576   2.552   2.268  0.00  0.00    +0.049 A 
ATOM      3  C   UNL     1       1.510   2.679   1.450  0.00  0.00    +0.193 A 
ATOM      4  C   UNL     1       0.653   3.795   1.604  0.00  0.00    +0.281 A 
ATOM      5  O   UNL     1      -0.313   3.934   0.875  0.00  0.00    -0.266 OA
ATOM      6  N   UNL     1       0.913   4.702   2.568  0.00  0.00    -0.273 N 
ATOM      7  H   UNL     1       0.250   5.569   2.701  0.00  0.00    +0.173 HD
ATOM      8  C   UNL     1       1.984   4.550   3.370  0.00  0.00    +0.327 A 
ATOM      9  O   UNL     1       2.208   5.378   4.232  0.00  0.00    -0.247 OA
ATOM     10  N   UNL     1       2.808   3.496   3.231  0.00  0.00    -0.310 N 
ATOM     11  H   UNL     1       3.675   3.397   3.901  0.00  0.00    +0.170 HD
ENDROOT
BRANCH   3  12
ATOM     12  S   UNL     1       1.192   1.475   0.203  0.00  0.00    +0.098 S 
ATOM     13  O   UNL     1       2.432   0.837  -0.070  0.00  0.00    -0.148 OA
ATOM     14  O   UNL     1       0.432   2.126  -0.806  0.00  0.00    -0.148 OA
BRANCH  12  15
ATOM     15  N   UNL     1       0.206   0.326   0.872  0.00  0.00    -0.097 NA
BRANCH  15  16
ATOM     16  C   UNL     1      -1.060   0.681   1.345  0.00  0.00    +0.087 A 
ATOM     17  C   UNL     1      -1.807   1.644   0.679  0.00  0.00    +0.028 A 
ATOM     18  C   UNL     1      -3.059   1.990   1.147  0.00  0.00    +0.002 A 
ATOM     19  C   UNL     1      -3.566   1.385   2.283  0.00  0.00    +0.001 A 
ATOM     20  C   UNL     1      -2.824   0.430   2.952  0.00  0.00    +0.016 A 
ATOM     21  C   UNL     1      -1.572   0.076   2.486  0.00  0.00    +0.038 A 
ATOM     22  I   UNL     1      -0.446  -1.371   3.501  0.00  0.00    -0.042 I 
ENDBRANCH  15  16
ENDBRANCH  12  15
ENDBRANCH   3  12
TORSDOF 3
