REMARK  Name = ZINC23631609
REMARK  10 active torsions:
REMARK  status: ('A' for Active; 'I' for Inactive)
REMARK    1  A    between atoms: C_1  and  C_2
REMARK    2  A    between atoms: C_2  and  C_3
REMARK    3  A    between atoms: C_7  and  C_36
REMARK    4  A    between atoms: C_8  and  N_9
REMARK    5  A    between atoms: C_10  and  C_30
REMARK    6  A    between atoms: C_13  and  S_14
REMARK    7  A    between atoms: S_14  and  C_15
REMARK    8  A    between atoms: C_15  and  C_17
REMARK    9  A    between atoms: C_15  and  C_18
REMARK   10  A    between atoms: C_36  and  C_37
REMARK                            x       y       z     vdW  Elec       q    Type
REMARK                         _______ _______ _______ _____ _____    ______ ____
ROOT
ATOM      1  N   UNL     1       2.979  -5.584   1.126  0.00  0.00    -0.270 N 
ATOM      2  C   UNL     1       2.246  -6.737   0.946  0.00  0.00    +0.171 A 
ATOM      3  N   UNL     1       1.092  -6.382   0.430  0.00  0.00    -0.128 NA
ATOM      4  N   UNL     1       1.050  -5.106   0.281  0.00  0.00    -0.122 NA
ATOM      5  C   UNL     1       2.175  -4.566   0.694  0.00  0.00    +0.197 A 
ENDROOT
BRANCH   1  11
ATOM      6  C   UNL     1       5.374  -5.543   0.798  0.00  0.00    -0.023 A 
ATOM      7  C   UNL     1       6.651  -5.431   1.313  0.00  0.00    +0.005 A 
ATOM      8  C   UNL     1       6.837  -5.267   2.673  0.00  0.00    +0.001 A 
ATOM      9  C   UNL     1       5.747  -5.208   3.522  0.00  0.00    +0.005 A 
ATOM     10  C   UNL     1       4.467  -5.313   3.012  0.00  0.00    -0.023 A 
ATOM     11  C   UNL     1       4.277  -5.478   1.647  0.00  0.00    +0.057 A 
BRANCH   6  13
ATOM     12  C   UNL     1       4.930  -4.368  -1.340  0.00  0.00    +0.009 C 
ATOM     13  C   UNL     1       5.172  -5.728  -0.683  0.00  0.00    +0.034 C 
ENDBRANCH   6  13
BRANCH  10  14
ATOM     14  C   UNL     1       3.279  -5.248   3.937  0.00  0.00    +0.034 C 
ATOM     15  C   UNL     1       2.852  -6.667   4.317  0.00  0.00    +0.009 C 
ENDBRANCH  10  14
ENDBRANCH   1  11
BRANCH   2  16
ATOM     16  C   UNL     1       2.679  -8.113   1.268  0.00  0.00    +0.038 A 
ATOM     17  C   UNL     1       1.986  -9.216   0.754  0.00  0.00    +0.014 A 
ATOM     18  C   UNL     1       2.432 -10.483   1.086  0.00  0.00    +0.020 A 
ATOM     19  C   UNL     1       3.537 -10.619   1.907  0.00  0.00    +0.111 A 
ATOM     20  N   UNL     1       4.170  -9.561   2.377  0.00  0.00    -0.263 NA
ATOM     21  C   UNL     1       3.788  -8.335   2.086  0.00  0.00    +0.122 A 
ENDBRANCH   2  16
BRANCH   5  22
ATOM     22  S   UNL     1       2.576  -2.850   0.683  0.00  0.00    -0.075 S 
BRANCH  22  23
ATOM     23  C   UNL     1       1.050  -2.175  -0.020  0.00  0.00    +0.117 C 
ATOM     24  C   UNL     1       0.889  -2.671  -1.458  0.00  0.00    +0.027 C 
BRANCH  23  25
ATOM     25  C   UNL     1       1.117  -0.670  -0.012  0.00  0.00    +0.124 A 
ATOM     26  N   UNL     1       2.340  -0.078  -0.020  0.00  0.00    -0.309 N 
ATOM     27  H   UNL     1       3.250  -0.697  -0.032  0.00  0.00    +0.170 HD
ATOM     28  C   UNL     1       2.453   1.270  -0.014  0.00  0.00    +0.259 A 
ATOM     29  O   UNL     1       3.543   1.813  -0.021  0.00  0.00    -0.267 OA
ATOM     30  C   UNL     1       1.209   2.054   0.002  0.00  0.00    +0.065 A 
ATOM     31  C   UNL     1       1.216   3.447   0.009  0.00  0.00    +0.015 A 
ATOM     32  C   UNL     1       0.021   4.132   0.025  0.00  0.00    +0.001 A 
ATOM     33  C   UNL     1      -1.187   3.445   0.032  0.00  0.00    +0.002 A 
ATOM     34  C   UNL     1      -1.215   2.069   0.030  0.00  0.00    +0.028 A 
ATOM     35  C   UNL     1      -0.016   1.352   0.009  0.00  0.00    +0.078 A 
ATOM     36  N   UNL     1       0.002  -0.004   0.002  0.00  0.00    -0.233 NA
ENDBRANCH  23  25
ENDBRANCH  22  23
ENDBRANCH   5  22
TORSDOF 7
