REMARK  Name = ZINC62362430
REMARK  6 active torsions:
REMARK  status: ('A' for Active; 'I' for Inactive)
REMARK    1  A    between atoms: C_1  and  C_2
REMARK    2  A    between atoms: N_5  and  C_8
REMARK    3  A    between atoms: C_8  and  C_10
REMARK    4  A    between atoms: C_8  and  C_21
REMARK    5  A    between atoms: C_10  and  N_11
REMARK    6  A    between atoms: N_14  and  C_15
REMARK                            x       y       z     vdW  Elec       q    Type
REMARK                         _______ _______ _______ _____ _____    ______ ____
ROOT
ATOM      1  C   UNL     1      -0.749  -3.951   1.434  0.00  0.00    -0.020 C 
ENDROOT
BRANCH   1   6
ATOM      2  C   UNL     1      -0.068   1.426  -0.340  0.00  0.00    +0.007 C 
ATOM      3  C   UNL     1      -0.042  -0.101  -0.250  0.00  0.00    -0.018 C 
ATOM      4  C   UNL     1      -1.475  -0.634  -0.164  0.00  0.00    -0.015 C 
ATOM      5  C   UNL     1      -1.439  -2.154   0.005  0.00  0.00    -0.078 C 
ATOM      6  N   UNL     1      -0.714  -2.496   1.235  0.00  0.00    +0.385 N 
ATOM      7  C   UNL     1       0.681  -2.051   1.131  0.00  0.00    -0.078 C 
ATOM      8  C   UNL     1       0.727  -0.527   1.004  0.00  0.00    -0.015 C 
ATOM      9  H   UNL     1      -1.153  -2.040   2.021  0.00  0.00    -0.081 HD
ENDBRANCH   1   6
BRANCH   1  10
ATOM     10  C   UNL     1       0.036  -4.308   2.670  0.00  0.00    -0.059 A 
ATOM     11  C   UNL     1      -0.054  -3.514   3.799  0.00  0.00    +0.003 A 
ATOM     12  C   UNL     1       0.666  -3.841   4.933  0.00  0.00    +0.020 A 
ATOM     13  C   UNL     1       1.476  -4.962   4.939  0.00  0.00    +0.041 A 
ATOM     14  C   UNL     1       1.565  -5.756   3.809  0.00  0.00    +0.020 A 
ATOM     15  C   UNL     1       0.841  -5.431   2.678  0.00  0.00    +0.003 A 
ATOM     16 CL   UNL     1       2.380  -5.373   6.362  0.00  0.00    -0.084 Cl
ENDBRANCH   1  10
BRANCH   1  17
ATOM     17  C   UNL     1      -2.199  -4.408   1.601  0.00  0.00    +0.095 C 
BRANCH  17  18
ATOM     18  N   UNL     1      -2.242  -5.869   1.705  0.00  0.00    -0.301 N 
ATOM     19  C   UNL     1      -3.428  -6.505   1.770  0.00  0.00    +0.300 C 
ATOM     20  O   UNL     1      -4.463  -5.867   1.742  0.00  0.00    -0.253 OA
ATOM     21  N   UNL     1      -3.467  -7.849   1.865  0.00  0.00    -0.296 N 
ATOM     22  H   UNL     1      -1.417  -6.378   1.727  0.00  0.00    +0.150 HD
ATOM     23  H   UNL     1      -2.642  -8.358   1.887  0.00  0.00    +0.151 HD
BRANCH  21  24
ATOM     24  C   UNL     1      -4.757  -8.541   1.936  0.00  0.00    +0.079 C 
ATOM     25  C   UNL     1      -5.238  -8.581   3.389  0.00  0.00    +0.050 C 
ATOM     26  C   UNL     1      -6.546  -9.374   3.464  0.00  0.00    +0.161 C 
ATOM     27  O   UNL     1      -6.335 -10.688   2.943  0.00  0.00    -0.380 OA
ATOM     28  C   UNL     1      -5.930 -10.714   1.573  0.00  0.00    +0.161 C 
ATOM     29  C   UNL     1      -4.597  -9.975   1.423  0.00  0.00    +0.050 C 
ENDBRANCH  21  24
ENDBRANCH  17  18
ENDBRANCH   1  17
TORSDOF 5
