REMARK  Name = ZINC06001802
REMARK  8 active torsions:
REMARK  status: ('A' for Active; 'I' for Inactive)
REMARK    1  A    between atoms: C_4  and  O_25
REMARK    2  A    between atoms: C_5  and  C_7
REMARK    3  A    between atoms: N_8  and  N_17
REMARK    4  A    between atoms: C_9  and  C_10
REMARK    5  A    between atoms: C_15  and  O_16
REMARK    6  A    between atoms: N_17  and  C_18
REMARK    7  A    between atoms: C_18  and  C_19
REMARK    8  A    between atoms: C_19  and  O_20
REMARK                            x       y       z     vdW  Elec       q    Type
REMARK                         _______ _______ _______ _____ _____    ______ ____
ROOT
ATOM      1  C   UNL     1      -3.784   5.266  -1.193  0.00  0.00    +0.119 C 
ATOM      2  N   UNL     1      -3.379   3.999  -0.853  0.00  0.00    -0.270 N 
ATOM      3  C   UNL     1      -3.915   3.380   0.250  0.00  0.00    +0.119 C 
ENDROOT
BRANCH   2   4
ATOM      4  N   UNL     1      -2.494   3.390  -1.568  0.00  0.00    -0.211 N 
ATOM      5  C   UNL     1      -1.326   2.936  -0.984  0.00  0.00    +0.175 C 
ATOM      6  C   UNL     1       0.283   2.566   0.574  0.00  0.00    +0.134 C 
ATOM      7  C   UNL     1       0.709   1.883  -0.741  0.00  0.00    +0.125 C 
ATOM      8  N   UNL     1      -0.399   2.191  -1.660  0.00  0.00    -0.316 N 
ATOM      9  H   UNL     1      -0.462   1.913  -2.587  0.00  0.00    +0.149 HD
ATOM     10  N   UNL     1      -1.020   3.181   0.249  0.00  0.00    -0.358 N 
ATOM     11  H   UNL     1      -1.596   3.722   0.904  0.00  0.00    +0.162 HD
BRANCH   4  12
ATOM     12  C   UNL     1      -2.728   3.180  -2.999  0.00  0.00    +0.161 C 
BRANCH  12  13
ATOM     13  C   UNL     1      -3.301   1.780  -3.222  0.00  0.00    +0.177 C 
BRANCH  13  14
ATOM     14  O   UNL     1      -4.591   1.690  -2.614  0.00  0.00    -0.393 OA
ATOM     15  H   UNL     1      -5.015   0.827  -2.716  0.00  0.00    +0.209 HD
ENDBRANCH  13  14
ENDBRANCH  12  13
ENDBRANCH   4  12
ENDBRANCH   2   4
BRANCH   1  20
ATOM     16  C   UNL     1      -1.093   6.395  -3.434  0.00  0.00    +0.001 A 
ATOM     17  C   UNL     1      -1.753   7.370  -4.168  0.00  0.00    +0.004 A 
ATOM     18  C   UNL     1      -3.085   7.657  -3.925  0.00  0.00    +0.046 A 
ATOM     19  C   UNL     1      -3.774   6.969  -2.943  0.00  0.00    +0.125 A 
ATOM     20  C   UNL     1      -3.105   5.972  -2.191  0.00  0.00    +0.034 A 
ATOM     21  C   UNL     1      -1.746   5.704  -2.454  0.00  0.00    +0.013 A 
BRANCH  19  22
ATOM     22  O   UNL     1      -5.080   7.247  -2.701  0.00  0.00    -0.506 OA
ATOM     23  H   UNL     1      -5.218   7.987  -2.095  0.00  0.00    +0.292 HD
ENDBRANCH  19  22
ENDBRANCH   1  20
BRANCH   3  24
ATOM     24  C   UNL     1      -4.956   3.989   0.957  0.00  0.00    +0.034 A 
ATOM     25  C   UNL     1      -4.721   4.547   2.231  0.00  0.00    +0.013 A 
ATOM     26  C   UNL     1      -5.742   5.144   2.911  0.00  0.00    +0.001 A 
ATOM     27  C   UNL     1      -7.017   5.200   2.364  0.00  0.00    +0.004 A 
ATOM     28  C   UNL     1      -7.274   4.655   1.118  0.00  0.00    +0.046 A 
ATOM     29  C   UNL     1      -6.258   4.048   0.403  0.00  0.00    +0.125 A 
BRANCH  29  30
ATOM     30  O   UNL     1      -6.506   3.513  -0.819  0.00  0.00    -0.506 OA
ATOM     31  H   UNL     1      -6.849   2.609  -0.790  0.00  0.00    +0.292 HD
ENDBRANCH  29  30
ENDBRANCH   3  24
TORSDOF 8
