REMARK  Name = ZINC04945328
REMARK  9 active torsions:
REMARK  status: ('A' for Active; 'I' for Inactive)
REMARK    1  A    between atoms: C_1  and  C_2
REMARK    2  A    between atoms: C_3  and  C_29
REMARK    3  A    between atoms: C_4  and  C_24
REMARK    4  A    between atoms: C_10  and  C_15
REMARK    5  A    between atoms: C_18  and  N_21
REMARK    6  A    between atoms: N_21  and  C_22
REMARK    7  A    between atoms: N_21  and  C_23
REMARK    8  A    between atoms: C_29  and  O_31
REMARK    9  A    between atoms: O_31  and  C_32
REMARK                            x       y       z     vdW  Elec       q    Type
REMARK                         _______ _______ _______ _____ _____    ______ ____
ROOT
ATOM      1  C   UNL     1       4.508   3.928  -2.479  0.00  0.00    +0.061 C 
ATOM      2  C   UNL     1       3.702   3.947  -1.206  0.00  0.00    +0.031 C 
ATOM      3  C   UNL     1       2.417   4.334  -1.235  0.00  0.00    +0.156 C 
ATOM      4  C   UNL     1       1.581   4.362   0.009  0.00  0.00    +0.109 C 
ATOM      5  C   UNL     1       2.446   4.331   1.244  0.00  0.00    +0.028 C 
ATOM      6  C   UNL     1       3.738   3.944   1.171  0.00  0.00    +0.049 C 
ATOM      7  N   UNL     1       4.284   3.571  -0.027  0.00  0.00    -0.260 NA
ATOM      8  C   UNL     1       4.611   3.913   2.401  0.00  0.00    +0.064 C 
ATOM      9  C   UNL     1       3.755   3.615   3.633  0.00  0.00    +0.032 C 
ATOM     10  C   UNL     1       2.670   4.691   3.744  0.00  0.00    +0.088 C 
ATOM     11  C   UNL     1       1.872   4.714   2.469  0.00  0.00    +0.162 C 
ATOM     12  O   UNL     1       0.711   5.070   2.497  0.00  0.00    -0.292 OA
ENDROOT
BRANCH   9  13
ATOM     13  C   UNL     1       4.619   3.638   4.867  0.00  0.00    -0.043 A 
ATOM     14  C   UNL     1       5.323   4.782   5.196  0.00  0.00    +0.006 A 
ATOM     15  C   UNL     1       6.111   4.809   6.330  0.00  0.00    +0.023 A 
ATOM     16  C   UNL     1       6.205   3.680   7.134  0.00  0.00    +0.029 A 
ATOM     17  C   UNL     1       5.501   2.531   6.798  0.00  0.00    +0.023 A 
ATOM     18  C   UNL     1       4.710   2.513   5.666  0.00  0.00    +0.006 A 
BRANCH  16  19
ATOM     19  N   UNL     1       7.006   3.701   8.278  0.00  0.00    -0.336 N 
ATOM     20  C   UNL     1       7.104   2.510   9.126  0.00  0.00    +0.129 C 
ATOM     21  C   UNL     1       7.748   4.915   8.631  0.00  0.00    +0.129 C 
ENDBRANCH  16  19
ENDBRANCH   9  13
BRANCH   4  22
ATOM     22  C   UNL     1       0.671   3.161   0.012  0.00  0.00    +0.114 A 
ATOM     23  C   UNL     1      -0.673   3.192   0.025  0.00  0.00    +0.045 A 
ATOM     24  C   UNL     1      -1.115   1.849   0.017  0.00  0.00    +0.041 A 
ATOM     25  C   UNL     1      -0.013   1.077   0.009  0.00  0.00    +0.195 A 
ATOM     26  O   UNL     1       1.066   1.877   0.003  0.00  0.00    -0.467 OA
ENDBRANCH   4  22
BRANCH   3  27
ATOM     27  C   UNL     1       1.840   4.727  -2.466  0.00  0.00    +0.317 C 
ATOM     28  O   UNL     1       2.508   4.712  -3.483  0.00  0.00    -0.250 OA
BRANCH  27  29
ATOM     29  O   UNL     1       0.549   5.117  -2.512  0.00  0.00    -0.467 OA
ATOM     30  C   UNL     1       0.032   5.500  -3.788  0.00  0.00    +0.280 C 
ENDBRANCH  27  29
ENDBRANCH   3  27
TORSDOF 5
