REMARK  Name = ZINC38828045
REMARK  4 active torsions:
REMARK  status: ('A' for Active; 'I' for Inactive)
REMARK    1  A    between atoms: C_4  and  C_7
REMARK    2  A    between atoms: C_12  and  C_20
REMARK    3  A    between atoms: CA_15  and  C_17
REMARK    4  A    between atoms: C_25  and  O_26
REMARK                            x       y       z     vdW  Elec       q    Type
REMARK                         _______ _______ _______ _____ _____    ______ ____
ROOT
ATOM      1  C   UNL     1       3.699  -0.689  -0.037  0.00  0.00    +0.183 A 
ATOM      2  N   UNL     1       4.912  -0.120  -0.041  0.00  0.00    -0.189 NA
ATOM      3  C   UNL     1       5.795  -1.090  -0.059  0.00  0.00    +0.250 A 
ATOM      4  N   UNL     1       5.101  -2.272  -0.059  0.00  0.00    -0.221 N 
ATOM      5  N   UNL     1       3.852  -2.002  -0.046  0.00  0.00    -0.147 NA
ATOM      6  C   UNL     1       5.780  -3.572  -0.058  0.00  0.00    +0.150 C 
ATOM      7  C   UNL     1       7.123  -3.405  -0.776  0.00  0.00    +0.095 C 
ATOM      8  CA  UNL     1       7.807  -2.135  -0.353  0.00  0.00    +0.135 C 
ATOM      9  N   UNL     1       7.145  -1.052  -0.055  0.00  0.00    -0.208 NA
ENDROOT
BRANCH   1  13
ATOM     10  C   UNL     1      -0.017   1.379   0.010  0.00  0.00    +0.000 A 
ATOM     11  C   UNL     1       1.169   2.092   0.002  0.00  0.00    +0.001 A 
ATOM     12  C   UNL     1       2.377   1.426  -0.013  0.00  0.00    +0.011 A 
ATOM     13  C   UNL     1       2.402   0.033  -0.021  0.00  0.00    +0.021 A 
ATOM     14  C   UNL     1       1.205  -0.680  -0.013  0.00  0.00    +0.011 A 
ATOM     15  C   UNL     1       0.002  -0.004   0.002  0.00  0.00    +0.001 A 
ENDBRANCH   1  13
BRANCH   6  16
ATOM     16  C   UNL     1       6.013  -4.024   1.361  0.00  0.00    +0.019 A 
ATOM     17  C   UNL     1       6.772  -3.250   2.217  0.00  0.00    +0.009 A 
ATOM     18  C   UNL     1       6.987  -3.664   3.519  0.00  0.00    +0.001 A 
ATOM     19  C   UNL     1       6.442  -4.853   3.967  0.00  0.00    +0.004 A 
ATOM     20  C   UNL     1       5.682  -5.631   3.115  0.00  0.00    +0.046 A 
ATOM     21  C   UNL     1       5.461  -5.215   1.810  0.00  0.00    +0.122 A 
BRANCH  21  22
ATOM     22  O   UNL     1       4.709  -5.975   0.972  0.00  0.00    -0.506 OA
ATOM     23  H   UNL     1       5.216  -6.628   0.471  0.00  0.00    +0.292 HD
ENDBRANCH  21  22
ENDBRANCH   6  16
BRANCH   8  24
ATOM     24  C   UNL     1       9.277  -2.113  -0.271  0.00  0.00    +0.401 C 
ATOM     25  O   UNL     1       9.855  -1.091   0.072  0.00  0.00    -0.239 OA
ATOM     26  OXT UNL     1       9.919  -3.118  -0.545  0.00  0.00    -0.239 OA
ENDBRANCH   8  24
TORSDOF 4
