REMARK  Name = ZINC33398059
REMARK  7 active torsions:
REMARK  status: ('A' for Active; 'I' for Inactive)
REMARK    1  A    between atoms: C_1  and  C_2
REMARK    2  A    between atoms: C_5  and  S_8
REMARK    3  A    between atoms: S_8  and  C_11
REMARK    4  A    between atoms: C_12  and  N_27
REMARK    5  A    between atoms: C_14  and  C_16
REMARK    6  A    between atoms: N_20  and  C_24
REMARK    7  A    between atoms: C_24  and  C_25
REMARK                            x       y       z     vdW  Elec       q    Type
REMARK                         _______ _______ _______ _____ _____    ______ ____
ROOT
ATOM      1  C   UNL     1      -1.012   1.961   1.373  0.00  0.00    +0.243 A 
ATOM      2  C   UNL     1      -0.753   3.051   2.151  0.00  0.00    +0.236 A 
ATOM      3  O   UNL     1      -1.563   2.973   3.224  0.00  0.00    -0.420 OA
ATOM      4  C   UNL     1      -2.295   1.845   3.102  0.00  0.00    +0.225 A 
ATOM      5  N   UNL     1      -1.954   1.241   1.980  0.00  0.00    -0.189 NA
ENDROOT
BRANCH   4   6
ATOM      6  C   UNL     1      -3.265   1.389   4.022  0.00  0.00    +0.088 C 
ATOM      7  C   UNL     1      -3.939   0.228   3.783  0.00  0.00    +0.082 C 
ATOM      8  C   UNL     1      -4.979  -0.438   4.588  0.00  0.00    +0.259 C 
ATOM      9  O   UNL     1      -5.370   0.032   5.641  0.00  0.00    -0.269 OA
ATOM     10  N   UNL     1      -5.466  -1.570   4.109  0.00  0.00    -0.252 N 
ATOM     11  C   UNL     1      -5.030  -2.088   2.943  0.00  0.00    +0.121 C 
ATOM     12  S   UNL     1      -5.530  -3.528   2.164  0.00  0.00    -0.027 S 
ATOM     13  S   UNL     1      -3.809  -0.902   2.403  0.00  0.00    -0.061 S 
BRANCH  10  14
ATOM     14  C   UNL     1      -6.503  -2.279   4.864  0.00  0.00    +0.141 C 
BRANCH  14  15
ATOM     15  C   UNL     1      -7.862  -1.796   4.426  0.00  0.00    -0.015 C 
ATOM     16  C   UNL     1      -8.758  -2.654   4.004  0.00  0.00    +0.005 C 
ENDBRANCH  14  15
ENDBRANCH  10  14
ENDBRANCH   4   6
BRANCH   2  17
ATOM     17  N   UNL     1       0.165   4.051   1.886  0.00  0.00    -0.294 N 
ATOM     18  C   UNL     1       1.205   4.100   2.925  0.00  0.00    +0.136 C 
ATOM     19  C   UNL     1       2.231   5.177   2.562  0.00  0.00    +0.179 C 
ATOM     20  O   UNL     1       1.562   6.432   2.405  0.00  0.00    -0.377 OA
ATOM     21  C   UNL     1       0.543   6.420   1.401  0.00  0.00    +0.179 C 
ATOM     22  C   UNL     1      -0.499   5.355   1.752  0.00  0.00    +0.136 C 
ENDBRANCH   2  17
BRANCH   1  23
ATOM     23  S   UNL     1      -0.232   1.569  -0.158  0.00  0.00    +0.047 S 
ATOM     24  O   UNL     1      -0.377   0.168  -0.341  0.00  0.00    -0.163 OA
ATOM     25  O   UNL     1       1.037   2.209  -0.142  0.00  0.00    -0.163 OA
BRANCH  23  30
ATOM     26  C   UNL     1      -3.444   4.220  -4.524  0.00  0.00    +0.044 C 
ATOM     27  C   UNL     1      -2.642   3.558  -3.434  0.00  0.00    -0.050 A 
ATOM     28  C   UNL     1      -1.594   4.235  -2.838  0.00  0.00    +0.005 A 
ATOM     29  C   UNL     1      -0.858   3.628  -1.837  0.00  0.00    +0.028 A 
ATOM     30  C   UNL     1      -1.170   2.344  -1.433  0.00  0.00    +0.095 A 
ATOM     31  C   UNL     1      -2.214   1.664  -2.032  0.00  0.00    +0.028 A 
ATOM     32  C   UNL     1      -2.953   2.273  -3.029  0.00  0.00    +0.005 A 
ENDBRANCH  23  30
ENDBRANCH   1  23
TORSDOF 6
