REMARK  Name = ZINC13686811
REMARK  4 active torsions:
REMARK  status: ('A' for Active; 'I' for Inactive)
REMARK    1  A    between atoms: C_4  and  N_17
REMARK    2  A    between atoms: C_5  and  C_7
REMARK    3  A    between atoms: N_9  and  C_10
REMARK    4  A    between atoms: C_10  and  C_11
REMARK                            x       y       z     vdW  Elec       q    Type
REMARK                         _______ _______ _______ _____ _____    ______ ____
ROOT
ATOM      1  N   UNL     1      -8.081  -0.140  -2.518  0.00  0.00    -0.268 N 
ATOM      2  C   UNL     1      -9.080  -1.002  -2.795  0.00  0.00    +0.315 C 
ATOM      3  O   UNL     1     -10.118  -0.952  -2.164  0.00  0.00    -0.252 OA
ATOM      4  N   UNL     1      -8.928  -1.919  -3.771  0.00  0.00    -0.222 N 
ATOM      5  C   UNL     1      -7.783  -1.873  -4.576  0.00  0.00    +0.057 A 
ATOM      6  C   UNL     1      -7.247  -0.654  -4.962  0.00  0.00    +0.025 A 
ATOM      7  C   UNL     1      -6.117  -0.616  -5.758  0.00  0.00    +0.002 A 
ATOM      8  C   UNL     1      -5.514  -1.787  -6.175  0.00  0.00    +0.001 A 
ATOM      9  C   UNL     1      -6.038  -3.019  -5.789  0.00  0.00    +0.017 A 
ATOM     10  C   UNL     1      -7.169  -3.059  -4.995  0.00  0.00    +0.035 A 
ATOM     11  S   UNL     1      -7.869  -4.602  -4.498  0.00  0.00    -0.086 S 
ATOM     12  C   UNL     1      -9.577  -4.197  -4.302  0.00  0.00    +0.035 A 
ATOM     13  C   UNL     1      -9.922  -2.889  -3.955  0.00  0.00    +0.057 A 
ATOM     14  C   UNL     1     -11.259  -2.558  -3.796  0.00  0.00    +0.025 A 
ATOM     15  C   UNL     1     -12.236  -3.521  -3.980  0.00  0.00    +0.002 A 
ATOM     16  C   UNL     1     -11.889  -4.814  -4.324  0.00  0.00    +0.001 A 
ATOM     17  C   UNL     1     -10.556  -5.155  -4.486  0.00  0.00    +0.017 A 
ATOM     18  H   UNL     1      -7.269  -0.154  -3.048  0.00  0.00    +0.156 HD
ENDROOT
BRANCH   1  22
ATOM     19  C   UNL     1      -8.487   2.584   0.612  0.00  0.00    +0.001 A 
ATOM     20  C   UNL     1      -9.608   2.105  -0.047  0.00  0.00    +0.002 A 
ATOM     21  C   UNL     1      -9.477   1.203  -1.083  0.00  0.00    +0.024 A 
ATOM     22  C   UNL     1      -8.216   0.770  -1.473  0.00  0.00    +0.047 A 
ATOM     23  C   UNL     1      -7.080   1.254  -0.809  0.00  0.00    +0.058 A 
ATOM     24  C   UNL     1      -7.229   2.163   0.242  0.00  0.00    +0.015 A 
BRANCH  23  25
ATOM     25  C   UNL     1      -5.735   0.801  -1.213  0.00  0.00    +0.246 C 
ATOM     26  O   UNL     1      -5.614  -0.070  -2.053  0.00  0.00    -0.270 OA
ATOM     27  N   UNL     1      -4.641   1.353  -0.651  0.00  0.00    -0.309 N 
ATOM     28  H   UNL     1      -4.738   2.048   0.018  0.00  0.00    +0.149 HD
BRANCH  27  29
ATOM     29  C   UNL     1      -3.306   0.904  -1.053  0.00  0.00    +0.136 C 
BRANCH  29  30
ATOM     30  C   UNL     1      -2.248   1.685  -0.271  0.00  0.00    +0.135 C 
ATOM     31  C   UNL     1      -0.841   1.310  -0.774  0.00  0.00    +0.035 C 
ATOM     32  C   UNL     1      -0.120   0.769   0.485  0.00  0.00    +0.031 C 
ATOM     33  C   UNL     1      -0.961   1.384   1.632  0.00  0.00    +0.160 C 
ATOM     34  O   UNL     1      -2.312   1.334   1.122  0.00  0.00    -0.375 OA
ENDBRANCH  29  30
ENDBRANCH  27  29
ENDBRANCH  23  25
ENDBRANCH   1  22
TORSDOF 4
