REMARK  Name = ZINC01897970
REMARK  13 active torsions:
REMARK  status: ('A' for Active; 'I' for Inactive)
REMARK    1  A    between atoms: C_1  and  O_2
REMARK    2  A    between atoms: O_2  and  C_3
REMARK    3  A    between atoms: C_6  and  C_13
REMARK    4  A    between atoms: C_7  and  O_11
REMARK    5  A    between atoms: C_8  and  O_9
REMARK    6  A    between atoms: O_9  and  C_10
REMARK    7  A    between atoms: O_11  and  C_12
REMARK    8  A    between atoms: N_14  and  N_15
REMARK    9  A    between atoms: C_16  and  C_18
REMARK   10  A    between atoms: C_18  and  S_19
REMARK   11  A    between atoms: S_19  and  C_20
REMARK   12  A    between atoms: C_23  and  C_31
REMARK   13  A    between atoms: N_24  and  C_25
REMARK                            x       y       z     vdW  Elec       q    Type
REMARK                         _______ _______ _______ _____ _____    ______ ____
ROOT
ATOM      1  C   UNL     1      -7.663  -6.592   0.057  0.00  0.00    +0.174 C 
ENDROOT
BRANCH   1   3
ATOM      2  N   UNL     1      -6.268  -4.549   0.047  0.00  0.00    -0.206 N 
ATOM      3  C   UNL     1      -6.326  -5.896   0.046  0.00  0.00    +0.242 C 
ATOM      4  O   UNL     1      -5.303  -6.548   0.037  0.00  0.00    -0.273 OA
ATOM      5  H   UNL     1      -7.085  -4.028   0.054  0.00  0.00    +0.177 HD
BRANCH   2   7
ATOM      6  C   UNL     1      -4.968  -2.605   0.038  0.00  0.00    +0.142 C 
ATOM      7  N   UNL     1      -5.025  -3.902   0.037  0.00  0.00    -0.188 NA
BRANCH   6  11
ATOM      8  C   UNL     1      -1.201  -0.638   0.010  0.00  0.00    +0.165 A 
ATOM      9  C   UNL     1      -2.374   0.105   0.020  0.00  0.00    +0.050 A 
ATOM     10  C   UNL     1      -3.598  -0.529   0.028  0.00  0.00    +0.017 A 
ATOM     11  C   UNL     1      -3.661  -1.925   0.028  0.00  0.00    +0.040 A 
ATOM     12  C   UNL     1      -2.478  -2.676   0.018  0.00  0.00    +0.174 A 
ATOM     13  C   UNL     1      -1.252  -2.027   0.003  0.00  0.00    +0.204 A 
BRANCH   8  15
ATOM     14  C   UNL     1      -0.017   1.425   0.010  0.00  0.00    +0.277 C 
ATOM     15  O   UNL     1       0.002  -0.004   0.002  0.00  0.00    -0.491 OA
ENDBRANCH   8  15
BRANCH  13  16
ATOM     16  O   UNL     1      -0.099  -2.751  -0.012  0.00  0.00    -0.488 OA
ATOM     17  C   UNL     1       0.463  -3.103   1.254  0.00  0.00    +0.277 C 
ENDBRANCH  13  16
BRANCH  12  18
ATOM     18  O   UNL     1      -2.532  -4.034   0.017  0.00  0.00    -0.491 OA
ATOM     19  C   UNL     1      -2.568  -4.681  -1.256  0.00  0.00    +0.277 C 
ENDBRANCH  12  18
ENDBRANCH   6  11
ENDBRANCH   2   7
ENDBRANCH   1   3
BRANCH   1  20
ATOM     20  S   UNL     1      -7.410  -8.388   0.053  0.00  0.00    -0.076 S 
BRANCH  20  21
ATOM     21  C   UNL     1      -9.043  -9.049   0.066  0.00  0.00    +0.197 A 
ATOM     22  N   UNL     1     -10.163  -8.360   0.070  0.00  0.00    -0.122 NA
ATOM     23  N   UNL     1     -11.172  -9.156   0.079  0.00  0.00    -0.128 NA
ATOM     24  C   UNL     1     -10.760 -10.403   0.082  0.00  0.00    +0.169 A 
ATOM     25  N   UNL     1      -9.383 -10.374   0.068  0.00  0.00    -0.270 N 
BRANCH  24  26
ATOM     26  C   UNL     1     -11.614 -11.610   0.092  0.00  0.00    +0.020 A 
ATOM     27  C   UNL     1     -11.065 -12.853   0.412  0.00  0.00    +0.012 A 
ATOM     28  C   UNL     1     -11.867 -13.976   0.420  0.00  0.00    +0.016 A 
ATOM     29  C   UNL     1     -13.212 -13.871   0.112  0.00  0.00    +0.018 A 
ATOM     30  C   UNL     1     -13.762 -12.641  -0.207  0.00  0.00    +0.016 A 
ATOM     31  C   UNL     1     -12.972 -11.510  -0.212  0.00  0.00    +0.012 A 
ATOM     32 BR   UNL     1     -14.304 -15.415   0.125  0.00  0.00    -0.050 Br
ENDBRANCH  24  26
BRANCH  25  33
ATOM     33  C   UNL     1      -8.512 -11.472   0.059  0.00  0.00    +0.051 A 
ATOM     34  C   UNL     1      -8.482 -12.328  -1.033  0.00  0.00    +0.026 A 
ATOM     35  C   UNL     1      -7.623 -13.409  -1.038  0.00  0.00    +0.002 A 
ATOM     36  C   UNL     1      -6.793 -13.640   0.043  0.00  0.00    +0.000 A 
ATOM     37  C   UNL     1      -6.821 -12.790   1.133  0.00  0.00    +0.002 A 
ATOM     38  C   UNL     1      -7.673 -11.703   1.141  0.00  0.00    +0.026 A 
ENDBRANCH  25  33
ENDBRANCH  20  21
ENDBRANCH   1  20
TORSDOF 10
