REMARK  Name = ZINC55219850
REMARK  10 active torsions:
REMARK  status: ('A' for Active; 'I' for Inactive)
REMARK    1  A    between atoms: C_1  and  C_2
REMARK    2  A    between atoms: C_2  and  C_3
REMARK    3  A    between atoms: N_8  and  S_10
REMARK    4  A    between atoms: S_10  and  C_13
REMARK    5  A    between atoms: C_14  and  C_26
REMARK    6  A    between atoms: C_16  and  C_25
REMARK    7  A    between atoms: C_17  and  N_20
REMARK    8  A    between atoms: C_18  and  C_19
REMARK    9  A    between atoms: N_20  and  S_21
REMARK   10  A    between atoms: S_21  and  C_24
REMARK                            x       y       z     vdW  Elec       q    Type
REMARK                         _______ _______ _______ _____ _____    ______ ____
ROOT
ATOM      1  C   UNL     1       1.469  -5.237  -2.839  0.00  0.00    +0.113 A 
ATOM      2  C   UNL     1       2.182  -6.096  -3.656  0.00  0.00    -0.023 A 
ATOM      3  C   UNL     1       2.122  -7.462  -3.448  0.00  0.00    +0.010 A 
ATOM      4  C   UNL     1       1.350  -7.973  -2.423  0.00  0.00    -0.025 A 
ATOM      5  C   UNL     1       0.633  -7.114  -1.601  0.00  0.00    +0.082 A 
ATOM      6  C   UNL     1       0.700  -5.741  -1.809  0.00  0.00    +0.001 A 
ATOM      7  C   UNL     1      -0.071  -4.805  -0.915  0.00  0.00    +0.048 C 
ATOM      8  C   UNL     1       1.285  -9.462  -2.198  0.00  0.00    +0.046 C 
ATOM      9  C   UNL     1       3.026  -5.542  -4.775  0.00  0.00    +0.046 C 
ENDROOT
BRANCH   1  10
ATOM     10  S   UNL     1       1.549  -3.498  -3.108  0.00  0.00    +0.061 S 
ATOM     11  O   UNL     1       0.486  -2.922  -2.361  0.00  0.00    -0.153 OA
ATOM     12  O   UNL     1       1.684  -3.310  -4.510  0.00  0.00    -0.153 OA
BRANCH  10  17
ATOM     13  C   UNL     1       3.581  -1.111  -0.957  0.00  0.00    +0.005 C 
ATOM     14  C   UNL     1       4.949  -1.110  -1.643  0.00  0.00    +0.006 C 
ATOM     15  C   UNL     1       4.784  -1.500  -3.114  0.00  0.00    +0.017 C 
ATOM     16  C   UNL     1       4.200  -2.913  -3.201  0.00  0.00    +0.109 C 
ATOM     17  N   UNL     1       2.956  -2.960  -2.421  0.00  0.00    -0.176 NA
ATOM     18  C   UNL     1       2.983  -2.520  -1.019  0.00  0.00    +0.113 C 
BRANCH  13  20
ATOM     19  C   UNL     1       4.225   0.762   0.567  0.00  0.00    +0.004 C 
ATOM     20  C   UNL     1       3.744  -0.689   0.505  0.00  0.00    +0.001 C 
ENDBRANCH  13  20
ENDBRANCH  10  17
ENDBRANCH   1  10
BRANCH   5  21
ATOM     21  N   UNL     1      -0.148  -7.627  -0.564  0.00  0.00    -0.102 NA
BRANCH  21  22
ATOM     22  S   UNL     1      -1.800  -7.545  -0.652  0.00  0.00    +0.059 S 
ATOM     23  O   UNL     1      -2.091  -6.156  -0.717  0.00  0.00    -0.154 OA
ATOM     24  O   UNL     1      -2.148  -8.409  -1.726  0.00  0.00    -0.154 OA
ATOM     25  C   UNL     1      -2.386  -8.233   0.920  0.00  0.00    +0.220 C 
ENDBRANCH  21  22
ENDBRANCH   5  21
TORSDOF 5
