REMARK  Name = ZINC02111324
REMARK  13 active torsions:
REMARK  status: ('A' for Active; 'I' for Inactive)
REMARK    1  A    between atoms: C_1  and  C_2
REMARK    2  A    between atoms: C_2  and  O_3
REMARK    3  A    between atoms: O_3  and  C_4
REMARK    4  A    between atoms: C_4  and  C_6
REMARK    5  A    between atoms: C_7  and  C_36
REMARK    6  A    between atoms: C_11  and  C_13
REMARK    7  A    between atoms: C_15  and  C_19
REMARK    8  A    between atoms: C_16  and  C_18
REMARK    9  A    between atoms: C_19  and  O_20
REMARK   10  A    between atoms: O_20  and  C_21
REMARK   11  A    between atoms: C_26  and  C_27
REMARK   12  A    between atoms: C_32  and  C_34
REMARK   13  A    between atoms: C_32  and  C_35
REMARK                            x       y       z     vdW  Elec       q    Type
REMARK                         _______ _______ _______ _____ _____    ______ ____
ROOT
ATOM      1  C   UNL     1      -1.090  -1.810   1.249  0.00  0.00    +0.066 C 
ATOM      2  C   UNL     1      -0.644  -3.077   1.210  0.00  0.00    +0.016 C 
ATOM      3  N   UNL     1      -0.244  -3.635   0.028  0.00  0.00    -0.321 N 
ATOM      4  C   UNL     1      -0.647  -3.099  -1.167  0.00  0.00    +0.016 C 
ATOM      5  C   UNL     1      -1.091  -1.826  -1.231  0.00  0.00    +0.024 C 
ATOM      6  C   UNL     1      -1.155  -0.969   0.007  0.00  0.00    +0.099 C 
ATOM      7  C   UNL     1      -1.504  -1.263  -2.452  0.00  0.00    +0.162 C 
ATOM      8  O   UNL     1      -1.911  -0.119  -2.473  0.00  0.00    -0.292 OA
ATOM      9  C   UNL     1      -1.450  -2.052  -3.732  0.00  0.00    +0.086 C 
ATOM     10  C   UNL     1      -0.328  -3.091  -3.630  0.00  0.00    -0.023 C 
ATOM     11  C   UNL     1      -0.586  -3.965  -2.401  0.00  0.00    +0.058 C 
ATOM     12  C   UNL     1       1.019  -2.380  -3.481  0.00  0.00    +0.011 C 
ATOM     13  C   UNL     1      -0.312  -3.963  -4.887  0.00  0.00    +0.011 C 
ATOM     14  C   UNL     1      -0.583  -3.888   2.479  0.00  0.00    +0.061 C 
ATOM     15  H   UNL     1       0.406  -4.522   0.030  0.00  0.00    +0.152 HD
ENDROOT
BRANCH   6  16
ATOM     16  C   UNL     1       0.002  -0.004   0.002  0.00  0.00    +0.003 A 
ATOM     17  C   UNL     1      -0.016   1.351   0.009  0.00  0.00    +0.019 A 
ATOM     18  C   UNL     1       1.183   2.038   0.002  0.00  0.00    -0.000 A 
ATOM     19  C   UNL     1       2.343   1.336  -0.013  0.00  0.00    -0.007 A 
ATOM     20  S   UNL     1       1.754  -0.349  -0.017  0.00  0.00    -0.097 S 
ATOM     21  C   UNL     1       3.761   1.845  -0.025  0.00  0.00    +0.052 C 
BRANCH  18  22
ATOM     22  C   UNL     1       1.202   3.545   0.009  0.00  0.00    +0.265 C 
BRANCH  22  23
ATOM     23  O   UNL     1      -0.139   4.038   0.025  0.00  0.00    -0.487 OA
BRANCH  23  24
ATOM     24  C   UNL     1      -0.301   5.387   0.033  0.00  0.00    +0.124 A 
ATOM     25  C   UNL     1       0.809   6.220   0.026  0.00  0.00    +0.047 A 
ATOM     26  C   UNL     1       0.643   7.591   0.035  0.00  0.00    +0.023 A 
ATOM     27  C   UNL     1      -0.629   8.135   0.049  0.00  0.00    +0.041 A 
ATOM     28  C   UNL     1      -1.737   7.306   0.056  0.00  0.00    +0.027 A 
ATOM     29  C   UNL     1      -1.575   5.934   0.043  0.00  0.00    -0.007 A 
ATOM     30  C   UNL     1      -2.783   5.032   0.043  0.00  0.00    +0.047 C 
ATOM     31 CL   UNL     1      -0.835   9.858   0.059  0.00  0.00    -0.084 Cl
ENDBRANCH  23  24
ENDBRANCH  22  23
ENDBRANCH  18  22
ENDBRANCH   6  16
BRANCH   1  32
ATOM     32  C   UNL     1      -1.506  -1.258   2.483  0.00  0.00    +0.338 C 
ATOM     33  O   UNL     1      -1.458  -1.929   3.497  0.00  0.00    -0.245 OA
BRANCH  32  34
ATOM     34  O   UNL     1      -1.956   0.013   2.536  0.00  0.00    -0.462 OA
BRANCH  34  36
ATOM     35  C   UNL     1      -2.836   1.953   3.678  0.00  0.00    +0.048 C 
ATOM     36  C   UNL     1      -2.360   0.505   3.816  0.00  0.00    +0.229 C 
ENDBRANCH  34  36
ENDBRANCH  32  34
ENDBRANCH   1  32
TORSDOF 7
