REMARK  Name = ZINC12483177
REMARK  7 active torsions:
REMARK  status: ('A' for Active; 'I' for Inactive)
REMARK    1  A    between atoms: C_4  and  C_7
REMARK    2  A    between atoms: C_10  and  C_13
REMARK    3  A    between atoms: C_13  and  N_54
REMARK    4  A    between atoms: C_14  and  N_54
REMARK    5  A    between atoms: C_23  and  O_28
REMARK    6  A    between atoms: C_25  and  O_27
REMARK    7  A    between atoms: O_28  and  C_29
REMARK                            x       y       z     vdW  Elec       q    Type
REMARK                         _______ _______ _______ _____ _____    ______ ____
ROOT
ATOM      1  C   UNL     1      -0.019   1.466   0.053  0.00  0.00    -0.007 C 
ATOM      2  C   UNL     1       1.483   1.753   0.211  0.00  0.00    +0.136 C 
ATOM      3  C   UNL     1       2.049   0.744   1.285  0.00  0.00    +0.193 C 
ATOM      4  O   UNL     1       2.465  -0.402   0.521  0.00  0.00    -0.345 OA
ATOM      5  C   UNL     1       2.135  -0.131  -0.854  0.00  0.00    +0.294 C 
ATOM      6  O   UNL     1       2.133   1.306  -1.005  0.00  0.00    -0.344 OA
ATOM      7  C   UNL     1       0.703  -0.625  -1.111  0.00  0.00    +0.256 C 
ATOM      8  C   UNL     1      -0.220  -0.051  -0.030  0.00  0.00    +0.149 C 
ENDROOT
BRANCH   1   9
ATOM      9  N   UNL     1      -0.510   2.100  -1.185  0.00  0.00    +0.387 N 
ATOM     10  H   UNL     1      -0.022   2.993  -1.325  0.00  0.00    -0.085 HD
ATOM     11  H   UNL     1      -0.323   1.479  -1.981  0.00  0.00    -0.085 HD
BRANCH   9  12
ATOM     12  C   UNL     1      -1.961   2.349  -1.093  0.00  0.00    -0.046 C 
BRANCH  12  16
ATOM     13  C   UNL     1      -3.302   4.184  -4.714  0.00  0.00    -0.018 A 
ATOM     14  C   UNL     1      -3.298   2.796  -4.593  0.00  0.00    +0.009 A 
ATOM     15  C   UNL     1      -2.864   2.209  -3.422  0.00  0.00    +0.002 A 
ATOM     16  C   UNL     1      -2.433   2.996  -2.369  0.00  0.00    -0.064 A 
ATOM     17  C   UNL     1      -2.439   4.374  -2.482  0.00  0.00    +0.002 A 
ATOM     18  C   UNL     1      -2.866   4.972  -3.651  0.00  0.00    +0.009 A 
BRANCH  13  22
ATOM     19  C   UNL     1      -4.636   6.009  -8.316  0.00  0.00    +0.000 A 
ATOM     20  C   UNL     1      -4.205   6.796  -7.263  0.00  0.00    +0.001 A 
ATOM     21  C   UNL     1      -3.771   6.209  -6.092  0.00  0.00    +0.008 A 
ATOM     22  C   UNL     1      -3.768   4.821  -5.971  0.00  0.00    -0.018 A 
ATOM     23  C   UNL     1      -4.198   4.033  -7.036  0.00  0.00    +0.008 A 
ATOM     24  C   UNL     1      -4.635   4.631  -8.201  0.00  0.00    +0.001 A 
ENDBRANCH  13  22
ENDBRANCH  12  16
ENDBRANCH   9  12
ENDBRANCH   1   9
BRANCH   8  25
ATOM     25  O   UNL     1       0.097  -0.644   1.231  0.00  0.00    -0.389 OA
ATOM     26  H   UNL     1      -0.007  -1.605   1.251  0.00  0.00    +0.210 HD
ENDBRANCH   8  25
BRANCH   7  27
ATOM     27  O   UNL     1       0.267  -0.181  -2.397  0.00  0.00    -0.481 OA
BRANCH  27  28
ATOM     28  C   UNL     1       0.602  -0.954  -3.463  0.00  0.00    +0.121 A 
ATOM     29  C   UNL     1       1.434  -2.051  -3.292  0.00  0.00    +0.045 A 
ATOM     30  C   UNL     1       1.769  -2.839  -4.376  0.00  0.00    +0.004 A 
ATOM     31  C   UNL     1       1.284  -2.529  -5.633  0.00  0.00    +0.000 A 
ATOM     32  C   UNL     1       0.459  -1.433  -5.808  0.00  0.00    +0.004 A 
ATOM     33  C   UNL     1       0.117  -0.645  -4.726  0.00  0.00    +0.045 A 
ENDBRANCH  27  28
ENDBRANCH   7  27
TORSDOF 7
