REMARK  Name = ZINC21579475
REMARK  6 active torsions:
REMARK  status: ('A' for Active; 'I' for Inactive)
REMARK    1  A    between atoms: C_1  and  C_2
REMARK    2  A    between atoms: N_11  and  C_12
REMARK    3  A    between atoms: C_12  and  C_13
REMARK    4  A    between atoms: N_15  and  C_16
REMARK    5  A    between atoms: C_16  and  C_18
REMARK    6  A    between atoms: C_16  and  C_19
REMARK                            x       y       z     vdW  Elec       q    Type
REMARK                         _______ _______ _______ _____ _____    ______ ____
ROOT
ATOM      1  C   UNL     1      -1.097   7.867  -4.738  0.00  0.00    +0.197 C 
ATOM      2  O   UNL     1      -1.546   7.431  -5.776  0.00  0.00    -0.278 OA
ATOM      3  N   UNL     1      -1.398   7.267  -3.569  0.00  0.00    -0.310 N 
ATOM      4  H   UNL     1      -0.990   7.663  -2.627  0.00  0.00    +0.149 HD
ENDROOT
BRANCH   3   5
ATOM      5  C   UNL     1      -2.268   6.088  -3.553  0.00  0.00    +0.100 C 
ATOM      6  C   UNL     1      -3.731   6.535  -3.532  0.00  0.00    +0.033 C 
BRANCH   5   7
ATOM      7  C   UNL     1      -1.976   5.266  -2.324  0.00  0.00    -0.027 A 
ATOM      8  C   UNL     1      -1.731   5.888  -1.114  0.00  0.00    +0.006 A 
ATOM      9  C   UNL     1      -1.462   5.129   0.005  0.00  0.00    +0.004 A 
ATOM     10  C   UNL     1      -1.434   3.742  -0.073  0.00  0.00    -0.044 A 
ATOM     11  C   UNL     1      -1.682   3.122  -1.277  0.00  0.00    -0.044 A 
ATOM     12  C   UNL     1      -1.951   3.889  -2.403  0.00  0.00    +0.009 A 
ATOM     13  C   UNL     1      -1.676   1.624  -1.434  0.00  0.00    +0.035 C 
ATOM     14  C   UNL     1      -0.953   0.964  -0.261  0.00  0.00    +0.005 C 
ATOM     15  C   UNL     1      -1.543   1.514   1.043  0.00  0.00    +0.005 C 
ATOM     16  C   UNL     1      -1.120   2.975   1.184  0.00  0.00    +0.035 C 
ENDBRANCH   5   7
ENDBRANCH   3   5
BRANCH   1  17
ATOM     17  C   UNL     1      -0.202   9.079  -4.754  0.00  0.00    +0.020 C 
BRANCH  17  27
ATOM     18  C   UNL     1      -1.627  11.228  -6.186  0.00  0.00    -0.007 C 
ATOM     19  C   UNL     1      -1.143   9.924  -6.824  0.00  0.00    -0.023 C 
ATOM     20  C   UNL     1      -0.810  10.160  -8.277  0.00  0.00    +0.005 A 
ATOM     21  C   UNL     1      -1.517  10.842  -9.190  0.00  0.00    +0.021 A 
ATOM     22  C   UNL     1      -0.799  10.787 -10.403  0.00  0.00    +0.019 A 
ATOM     23  C   UNL     1       0.323  10.069 -10.180  0.00  0.00    +0.086 A 
ATOM     24  N   UNL     1       0.323   9.680  -8.880  0.00  0.00    -0.354 N 
ATOM     25  C   UNL     1       1.332   8.877  -8.177  0.00  0.00    +0.103 C 
ATOM     26  C   UNL     1       0.707   8.352  -6.878  0.00  0.00    -0.055 C 
ATOM     27  N   UNL     1       0.080   9.461  -6.145  0.00  0.00    +0.392 N 
ATOM     28  H   UNL     1       0.794  10.297  -6.127  0.00  0.00    -0.080 HD
ENDBRANCH  17  27
ENDBRANCH   1  17
TORSDOF 4
