REMARK  Name = ZINC35705655
REMARK  15 active torsions:
REMARK  status: ('A' for Active; 'I' for Inactive)
REMARK    1  A    between atoms: C_1  and  C_2
REMARK    2  A    between atoms: C_2  and  N_3
REMARK    3  A    between atoms: N_3  and  C_4
REMARK    4  A    between atoms: C_5  and  C_7
REMARK    5  A    between atoms: C_10  and  C_12
REMARK    6  A    between atoms: C_12  and  N_13
REMARK    7  A    between atoms: N_13  and  C_14
REMARK    8  A    between atoms: N_13  and  C_23
REMARK    9  A    between atoms: C_14  and  C_15
REMARK   10  A    between atoms: C_17  and  C_22
REMARK   11  A    between atoms: C_20  and  C_21
REMARK   12  A    between atoms: C_23  and  C_25
REMARK   13  A    between atoms: C_23  and  C_26
REMARK   14  A    between atoms: C_26  and  C_27
REMARK   15  A    between atoms: C_26  and  C_28
REMARK                            x       y       z     vdW  Elec       q    Type
REMARK                         _______ _______ _______ _____ _____    ______ ____
ROOT
ATOM      1  N   UNL     1      -3.955  -4.294  -2.445  0.00  0.00    +0.390 N 
ATOM      2  H   UNL     1      -3.079  -4.575  -2.859  0.00  0.00    -0.080 HD
ENDROOT
BRANCH   1   3
ATOM      3  C   UNL     1      -4.000  -4.737  -1.045  0.00  0.00    -0.068 C 
ATOM      4  C   UNL     1      -2.917  -4.011  -0.245  0.00  0.00    -0.013 C 
BRANCH   3   5
ATOM      5  C   UNL     1      -3.756  -6.246  -0.980  0.00  0.00    -0.031 C 
ATOM      6  C   UNL     1      -2.320  -6.550  -1.415  0.00  0.00    +0.005 C 
ATOM      7  C   UNL     1      -3.969  -6.736   0.454  0.00  0.00    +0.005 C 
ENDBRANCH   3   5
ENDBRANCH   1   3
BRANCH   1   8
ATOM      8  C   UNL     1      -4.075  -2.831  -2.499  0.00  0.00    +0.020 C 
BRANCH   8  12
ATOM      9  C   UNL     1      -0.720  -1.472  -2.627  0.00  0.00    +0.164 A 
ATOM     10  C   UNL     1      -1.030  -1.236  -1.323  0.00  0.00    +0.230 A 
ATOM     11  O   UNL     1      -2.275  -1.698  -1.127  0.00  0.00    -0.449 OA
ATOM     12  C   UNL     1      -2.720  -2.207  -2.284  0.00  0.00    +0.179 A 
ATOM     13  N   UNL     1      -1.801  -2.074  -3.193  0.00  0.00    -0.210 NA
BRANCH   9  16
ATOM     14  N   UNL     1       0.679  -1.336  -4.628  0.00  0.00    -0.300 N 
ATOM     15  C   UNL     1      -0.466  -1.798  -5.416  0.00  0.00    +0.132 C 
ATOM     16  C   UNL     1       0.547  -1.134  -3.301  0.00  0.00    +0.268 C 
ATOM     17  O   UNL     1       1.473  -0.674  -2.661  0.00  0.00    -0.268 OA
BRANCH  14  19
ATOM     18  C   UNL     1       2.033   0.361  -5.754  0.00  0.00    +0.024 C 
ATOM     19  C   UNL     1       1.968  -1.092  -5.280  0.00  0.00    +0.104 C 
ENDBRANCH  14  19
ENDBRANCH   9  16
ENDBRANCH   8  12
ENDBRANCH   1   8
BRANCH   1  20
ATOM     20  C   UNL     1      -5.066  -4.904  -3.187  0.00  0.00    -0.042 C 
BRANCH  20  21
ATOM     21  C   UNL     1      -4.979  -4.506  -4.638  0.00  0.00    -0.061 A 
ATOM     22  C   UNL     1      -5.791  -3.500  -5.128  0.00  0.00    +0.005 A 
ATOM     23  C   UNL     1      -5.712  -3.135  -6.459  0.00  0.00    -0.050 A 
ATOM     24  C   UNL     1      -4.820  -3.775  -7.300  0.00  0.00    +0.003 A 
ATOM     25  C   UNL     1      -4.007  -4.780  -6.809  0.00  0.00    +0.004 A 
ATOM     26  C   UNL     1      -4.084  -5.142  -5.477  0.00  0.00    -0.049 A 
ATOM     27  C   UNL     1      -3.195  -6.234  -4.941  0.00  0.00    +0.044 C 
ATOM     28  C   UNL     1      -6.597  -2.039  -6.994  0.00  0.00    +0.044 C 
ENDBRANCH  20  21
ENDBRANCH   1  20
TORSDOF 8
