REMARK  Name = ZINC36609313
REMARK  16 active torsions:
REMARK  status: ('A' for Active; 'I' for Inactive)
REMARK    1  A    between atoms: C_1  and  C_2
REMARK    2  A    between atoms: C_2  and  C_3
REMARK    3  A    between atoms: C_2  and  C_4
REMARK    4  A    between atoms: C_2  and  C_5
REMARK    5  A    between atoms: C_5  and  C_6
REMARK    6  A    between atoms: C_6  and  C_7
REMARK    7  A    between atoms: C_6  and  C_8
REMARK    8  A    between atoms: C_6  and  N_9
REMARK    9  A    between atoms: C_10  and  C_12
REMARK   10  A    between atoms: C_12  and  C_14
REMARK   11  A    between atoms: C_12  and  N_21
REMARK   12  A    between atoms: C_18  and  O_20
REMARK   13  A    between atoms: N_21  and  C_22
REMARK   14  A    between atoms: C_28  and  C_30
REMARK   15  A    between atoms: C_32  and  N_37
REMARK   16  A    between atoms: C_35  and  O_36
REMARK                            x       y       z     vdW  Elec       q    Type
REMARK                         _______ _______ _______ _____ _____    ______ ____
ROOT
ATOM      1  C   UNL     1       5.761  -1.083  -3.988  0.00  0.00    +0.198 C 
ENDROOT
BRANCH   1   2
ATOM      2  C   UNL     1       5.777  -2.583  -3.834  0.00  0.00    -0.014 A 
ATOM      3  C   UNL     1       6.560  -3.168  -2.856  0.00  0.00    +0.006 A 
ATOM      4  C   UNL     1       6.577  -4.543  -2.712  0.00  0.00    +0.004 A 
ATOM      5  C   UNL     1       5.811  -5.335  -3.546  0.00  0.00    +0.045 A 
ATOM      6  C   UNL     1       5.024  -4.750  -4.527  0.00  0.00    +0.117 A 
ATOM      7  C   UNL     1       5.004  -3.370  -4.665  0.00  0.00    +0.051 A 
BRANCH   6   8
ATOM      8  O   UNL     1       4.269  -5.527  -5.348  0.00  0.00    -0.507 OA
ATOM      9  H   UNL     1       3.378  -5.701  -5.015  0.00  0.00    +0.292 HD
ENDBRANCH   6   8
ENDBRANCH   1   2
BRANCH   1  11
ATOM     10  N   UNL     1       3.809  -0.773  -2.501  0.00  0.00    -0.308 N 
ATOM     11  C   UNL     1       5.088  -0.463  -2.791  0.00  0.00    +0.239 C 
ATOM     12  O   UNL     1       5.696   0.317  -2.090  0.00  0.00    -0.273 OA
ATOM     13  H   UNL     1       3.322  -1.397  -3.063  0.00  0.00    +0.149 HD
BRANCH  10  14
ATOM     14  C   UNL     1       3.154  -0.170  -1.338  0.00  0.00    +0.030 C 
ATOM     15  C   UNL     1       3.406   1.339  -1.337  0.00  0.00    +0.031 C 
ATOM     16  C   UNL     1       3.723  -0.783  -0.057  0.00  0.00    +0.031 C 
BRANCH  14  17
ATOM     17  C   UNL     1       1.648  -0.435  -1.406  0.00  0.00    +0.031 C 
BRANCH  17  19
ATOM     18  C   UNL     1       1.383  -1.456  -3.670  0.00  0.00    +0.010 C 
ATOM     19  C   UNL     1       1.152  -0.197  -2.833  0.00  0.00    -0.036 C 
ATOM     20  C   UNL     1       1.919   0.974  -3.451  0.00  0.00    +0.010 C 
ATOM     21  C   UNL     1      -0.342   0.131  -2.805  0.00  0.00    +0.010 C 
ENDBRANCH  17  19
ENDBRANCH  14  17
ENDBRANCH  10  14
ENDBRANCH   1  11
BRANCH   1  22
ATOM     22  N   UNL     1       7.136  -0.588  -4.086  0.00  0.00    -0.251 N 
ATOM     23  C   UNL     1       7.367   0.723  -4.296  0.00  0.00    +0.255 C 
ATOM     24  O   UNL     1       6.441   1.511  -4.292  0.00  0.00    -0.269 OA
BRANCH  22  25
ATOM     25  C   UNL     1       8.210  -1.476  -3.962  0.00  0.00    +0.038 A 
ATOM     26  C   UNL     1       8.442  -2.429  -4.944  0.00  0.00    +0.023 A 
ATOM     27  C   UNL     1       9.503  -3.304  -4.819  0.00  0.00    +0.002 A 
ATOM     28  C   UNL     1      10.334  -3.232  -3.716  0.00  0.00    +0.000 A 
ATOM     29  C   UNL     1      10.106  -2.284  -2.735  0.00  0.00    +0.002 A 
ATOM     30  C   UNL     1       9.050  -1.402  -2.858  0.00  0.00    +0.023 A 
ENDBRANCH  22  25
BRANCH  23  31
ATOM     31  C   UNL     1       8.742   1.202  -4.530  0.00  0.00    +0.081 A 
ATOM     32  C   UNL     1       9.759   0.294  -4.837  0.00  0.00    +0.049 A 
ATOM     33  C   UNL     1      11.042   0.748  -5.055  0.00  0.00    +0.127 A 
ATOM     34  C   UNL     1      11.329   2.101  -4.970  0.00  0.00    +0.036 A 
ATOM     35  C   UNL     1      10.334   3.008  -4.667  0.00  0.00    +0.048 A 
ATOM     36  C   UNL     1       9.036   2.570  -4.451  0.00  0.00    +0.129 A 
BRANCH  33  37
ATOM     37  N   UNL     1      12.119  -0.215  -5.380  0.00  0.00    +0.056 N 
ATOM     38  O   UNL     1      11.855  -1.383  -5.547  0.00  0.00    -0.126 OA
ATOM     39  O   UNL     1      13.262   0.167  -5.477  0.00  0.00    -0.126 OA
ENDBRANCH  33  37
BRANCH  36  40
ATOM     40  O   UNL     1       8.056   3.461  -4.159  0.00  0.00    -0.506 OA
ATOM     41  H   UNL     1       7.948   3.632  -3.213  0.00  0.00    +0.292 HD
ENDBRANCH  36  40
ENDBRANCH  23  31
ENDBRANCH   1  22
TORSDOF 11
