REMARK  Name = ZINC19234287
REMARK  7 active torsions:
REMARK  status: ('A' for Active; 'I' for Inactive)
REMARK    1  A    between atoms: C_1  and  C_2
REMARK    2  A    between atoms: C_7  and  C_33
REMARK    3  A    between atoms: N_10  and  C_16
REMARK    4  A    between atoms: C_16  and  C_17
REMARK    5  A    between atoms: C_17  and  N_18
REMARK    6  A    between atoms: C_19  and  C_21
REMARK    7  A    between atoms: C_22  and  C_32
REMARK                            x       y       z     vdW  Elec       q    Type
REMARK                         _______ _______ _______ _____ _____    ______ ____
ROOT
ATOM      1  C   UNL     1      -1.167  -3.412  -0.006  0.00  0.00    +0.167 C 
ENDROOT
BRANCH   1  11
ATOM      2  C   UNL     1      -2.558   4.182   0.050  0.00  0.00    +0.044 C 
ATOM      3  C   UNL     1      -1.242   3.448   0.033  0.00  0.00    -0.048 A 
ATOM      4  C   UNL     1      -0.055   4.165   0.025  0.00  0.00    +0.004 A 
ATOM      5  C   UNL     1       1.155   3.508   0.010  0.00  0.00    +0.010 A 
ATOM      6  C   UNL     1       1.186   2.110   0.002  0.00  0.00    -0.001 A 
ATOM      7  C   UNL     1       2.468   1.394  -0.013  0.00  0.00    +0.017 A 
ATOM      8  C   UNL     1       2.472   0.045  -0.021  0.00  0.00    -0.005 A 
ATOM      9  C   UNL     1       1.203  -0.688  -0.013  0.00  0.00    +0.165 A 
ATOM     10  N   UNL     1       0.947  -1.974  -0.018  0.00  0.00    -0.148 NA
ATOM     11  N   UNL     1      -0.445  -2.138  -0.006  0.00  0.00    -0.211 N 
ATOM     12  C   UNL     1      -0.999  -0.909   0.006  0.00  0.00    +0.352 A 
ATOM     13  O   UNL     1      -2.192  -0.659   0.020  0.00  0.00    -0.244 OA
ATOM     14  N   UNL     1       0.002  -0.004   0.002  0.00  0.00    -0.243 N 
ATOM     15  C   UNL     1      -0.017   1.387   0.010  0.00  0.00    +0.060 A 
ATOM     16  C   UNL     1      -1.227   2.068   0.019  0.00  0.00    +0.030 A 
ATOM     17  C   UNL     1       3.778  -0.706  -0.037  0.00  0.00    +0.047 C 
ENDBRANCH   1  11
BRANCH   1  18
ATOM     18  C   UNL     1      -1.432  -3.848  -1.448  0.00  0.00    +0.128 C 
BRANCH  18  19
ATOM     19  N   UNL     1      -2.154  -5.123  -1.448  0.00  0.00    -0.308 N 
ATOM     20  C   UNL     1      -2.497  -5.703  -2.615  0.00  0.00    +0.261 C 
ATOM     21  O   UNL     1      -2.208  -5.168  -3.669  0.00  0.00    -0.269 OA
ATOM     22  H   UNL     1      -2.415  -5.607  -0.496  0.00  0.00    +0.149 HD
BRANCH  20  23
ATOM     23  C   UNL     1      -3.221  -6.981  -2.615  0.00  0.00    +0.106 A 
ATOM     24  C   UNL     1      -3.630  -7.667  -3.725  0.00  0.00    -0.010 A 
ATOM     25  C   UNL     1      -4.271  -8.824  -3.266  0.00  0.00    +0.042 A 
ATOM     26  C   UNL     1      -4.242  -8.800  -1.872  0.00  0.00    +0.027 A 
ATOM     27  N   UNL     1      -3.608  -7.690  -1.494  0.00  0.00    -0.354 N 
ATOM     28  H   UNL     1      -3.375  -7.302  -0.491  0.00  0.00    +0.166 HD
ATOM     29  C   UNL     1      -4.853  -9.885  -1.022  0.00  0.00    +0.054 C 
ATOM     30  C   UNL     1      -5.883 -10.656  -1.851  0.00  0.00    +0.014 C 
ATOM     31  C   UNL     1      -5.265 -11.144  -3.165  0.00  0.00    +0.080 C 
ATOM     32  C   UNL     1      -4.902  -9.928  -4.005  0.00  0.00    +0.165 C 
ATOM     33  O   UNL     1      -5.117  -9.874  -5.198  0.00  0.00    -0.292 OA
ATOM     34  C   UNL     1      -3.427  -7.260  -5.161  0.00  0.00    +0.047 C 
ENDBRANCH  20  23
ENDBRANCH  18  19
ENDBRANCH   1  18
TORSDOF 4
