REMARK  Name = ZINC24337075
REMARK  17 active torsions:
REMARK  status: ('A' for Active; 'I' for Inactive)
REMARK    1  A    between atoms: C_1  and  C_2
REMARK    2  A    between atoms: C_6  and  N_9
REMARK    3  A    between atoms: C_7  and  C_8
REMARK    4  A    between atoms: C_10  and  C_12
REMARK    5  A    between atoms: C_12  and  N_13
REMARK    6  A    between atoms: N_13  and  C_14
REMARK    7  A    between atoms: N_13  and  C_18
REMARK    8  A    between atoms: C_14  and  C_15
REMARK    9  A    between atoms: C_15  and  O_16
REMARK   10  A    between atoms: O_16  and  C_17
REMARK   11  A    between atoms: C_18  and  C_19
REMARK   12  A    between atoms: N_21  and  C_22
REMARK   13  A    between atoms: C_23  and  C_36
REMARK   14  A    between atoms: C_24  and  C_35
REMARK   15  A    between atoms: C_25  and  C_34
REMARK   16  A    between atoms: N_26  and  C_27
REMARK   17  A    between atoms: C_27  and  C_28
REMARK                            x       y       z     vdW  Elec       q    Type
REMARK                         _______ _______ _______ _____ _____    ______ ____
ROOT
ATOM      1  C   UNL     1      -3.451  -1.299  -1.440  0.00  0.00    +0.020 C 
ENDROOT
BRANCH   1   2
ATOM      2  C   UNL     1      -2.292  -0.362  -1.660  0.00  0.00    +0.202 C 
ATOM      3  O   UNL     1      -2.116   0.573  -0.908  0.00  0.00    -0.278 OA
ATOM      4  N   UNL     1      -1.450  -0.563  -2.693  0.00  0.00    -0.272 N 
ATOM      5  H   UNL     1      -1.573  -1.444  -3.340  0.00  0.00    +0.156 HD
BRANCH   4   6
ATOM      6  C   UNL     1      -0.427   0.341  -2.941  0.00  0.00    +0.123 A 
ATOM      7  C   UNL     1       0.841   0.031  -3.412  0.00  0.00    +0.095 A 
ATOM      8  C   UNL     1       1.558   1.308  -3.512  0.00  0.00    -0.011 A 
ATOM      9  C   UNL     1       0.701   2.263  -3.114  0.00  0.00    +0.022 A 
ATOM     10  N   UNL     1      -0.490   1.686  -2.765  0.00  0.00    -0.329 N 
ATOM     11  C   UNL     1       1.005   3.738  -3.058  0.00  0.00    +0.064 C 
ATOM     12  C   UNL     1       2.977   1.509  -3.977  0.00  0.00    +0.047 C 
BRANCH   7  13
ATOM     13  C   UNL     1       1.347  -1.269  -3.733  0.00  0.00    +0.103 C 
ATOM     14  N   UNL     1       1.749  -2.301  -3.989  0.00  0.00    -0.191 NA
ENDBRANCH   7  13
BRANCH  10  15
ATOM     15  C   UNL     1      -1.665   2.415  -2.280  0.00  0.00    +0.154 C 
BRANCH  15  16
ATOM     16  C   UNL     1      -1.400   2.919  -0.859  0.00  0.00    +0.138 C 
ATOM     17  C   UNL     1      -2.657   3.628  -0.311  0.00  0.00    +0.035 C 
ATOM     18  C   UNL     1      -2.047   4.828   0.464  0.00  0.00    +0.031 C 
ATOM     19  C   UNL     1      -0.815   5.151  -0.418  0.00  0.00    +0.160 C 
ATOM     20  O   UNL     1      -0.335   3.876  -0.874  0.00  0.00    -0.375 OA
ENDBRANCH  15  16
ENDBRANCH  10  15
ENDBRANCH   4   6
ENDBRANCH   1   2
BRANCH   1  21
ATOM     21  N   UNL     1      -4.284  -0.797  -0.338  0.00  0.00    +0.393 N 
ATOM     22  H   UNL     1      -3.613  -0.443   0.458  0.00  0.00    -0.080 HD
BRANCH  21  23
ATOM     23  C   UNL     1      -5.105   0.339  -0.775  0.00  0.00    +0.020 C 
BRANCH  23  25
ATOM     24  N   UNL     1      -6.560   2.048   0.265  0.00  0.00    -0.287 N 
ATOM     25  C   UNL     1      -5.755   0.980   0.425  0.00  0.00    +0.201 C 
ATOM     26  O   UNL     1      -5.553   0.533   1.534  0.00  0.00    -0.278 OA
ATOM     27  H   UNL     1      -6.801   2.409  -0.746  0.00  0.00    +0.155 HD
BRANCH  24  33
ATOM     28  C   UNL     1      -8.342   6.136   2.335  0.00  0.00    +0.044 C 
ATOM     29  C   UNL     1      -7.963   4.680   2.416  0.00  0.00    -0.046 A 
ATOM     30  C   UNL     1      -8.140   3.985   3.598  0.00  0.00    +0.004 A 
ATOM     31  C   UNL     1      -7.793   2.648   3.676  0.00  0.00    +0.002 A 
ATOM     32  C   UNL     1      -7.269   2.003   2.573  0.00  0.00    +0.023 A 
ATOM     33  C   UNL     1      -7.091   2.699   1.384  0.00  0.00    +0.036 A 
ATOM     34  C   UNL     1      -7.434   4.042   1.311  0.00  0.00    -0.026 A 
ATOM     35  C   UNL     1      -7.236   4.802   0.025  0.00  0.00    +0.046 C 
ENDBRANCH  24  33
ENDBRANCH  23  25
ENDBRANCH  21  23
BRANCH  21  36
ATOM     36  C   UNL     1      -5.120  -1.869   0.219  0.00  0.00    -0.049 C 
BRANCH  36  37
ATOM     37  C   UNL     1      -4.260  -2.786   1.091  0.00  0.00    +0.141 C 
BRANCH  37  38
ATOM     38  O   UNL     1      -3.795  -2.060   2.231  0.00  0.00    -0.385 OA
ATOM     39  C   UNL     1      -2.888  -2.794   3.057  0.00  0.00    +0.193 C 
ENDBRANCH  37  38
ENDBRANCH  36  37
ENDBRANCH  21  36
ENDBRANCH   1  21
TORSDOF 12
