REMARK  Name = ZINC33608829
REMARK  4 active torsions:
REMARK  status: ('A' for Active; 'I' for Inactive)
REMARK    1  A    between atoms: C_4  and  C_7
REMARK    2  A    between atoms: C_10  and  C_27
REMARK    3  A    between atoms: N_12  and  C_13
REMARK    4  A    between atoms: C_16  and  C_19
REMARK                            x       y       z     vdW  Elec       q    Type
REMARK                         _______ _______ _______ _____ _____    ______ ____
ROOT
ATOM      1  C   UNL     1       4.799   5.288  -1.570  0.00  0.00    +0.134 C 
ATOM      2  C   UNL     1       6.311   5.526  -1.754  0.00  0.00    +0.087 C 
ATOM      3  C   UNL     1       6.933   4.190  -1.417  0.00  0.00    +0.069 C 
ATOM      4  N   UNL     1       6.007   3.352  -1.100  0.00  0.00    -0.183 NA
ATOM      5  N   UNL     1       4.718   3.878  -1.159  0.00  0.00    -0.216 N 
ENDROOT
BRANCH   1   9
ATOM      6  C   UNL     1       3.235   7.835   1.483  0.00  0.00    +0.000 A 
ATOM      7  C   UNL     1       2.993   8.121   0.152  0.00  0.00    +0.000 A 
ATOM      8  C   UNL     1       3.499   7.297  -0.836  0.00  0.00    +0.005 A 
ATOM      9  C   UNL     1       4.247   6.187  -0.493  0.00  0.00    -0.025 A 
ATOM     10  C   UNL     1       4.485   5.897   0.838  0.00  0.00    +0.005 A 
ATOM     11  C   UNL     1       3.983   6.724   1.825  0.00  0.00    +0.000 A 
ENDBRANCH   1   9
BRANCH   5  12
ATOM     12  C   UNL     1       3.548   3.185  -0.870  0.00  0.00    +0.052 A 
ATOM     13  C   UNL     1       3.610   1.846  -0.490  0.00  0.00    +0.025 A 
ATOM     14  C   UNL     1       2.463   1.161  -0.205  0.00  0.00    +0.010 A 
ATOM     15  C   UNL     1       1.223   1.808  -0.296  0.00  0.00    -0.023 A 
ATOM     16  C   UNL     1       1.165   3.153  -0.684  0.00  0.00    +0.010 A 
ATOM     17  C   UNL     1       2.318   3.831  -0.961  0.00  0.00    +0.025 A 
BRANCH  15  18
ATOM     18  C   UNL     1      -0.013   1.076   0.008  0.00  0.00    +0.036 C 
ATOM     19  C   UNL     1      -1.127   1.753   0.387  0.00  0.00    +0.096 C 
ATOM     20  C   UNL     1      -2.484   1.213   0.561  0.00  0.00    +0.264 C 
ATOM     21  O   UNL     1      -2.839   0.061   0.395  0.00  0.00    -0.268 OA
ATOM     22  N   UNL     1      -3.254   2.251   0.946  0.00  0.00    -0.263 N 
ATOM     23  C   UNL     1      -2.512   3.367   1.015  0.00  0.00    +0.141 C 
ATOM     24  S   UNL     1      -3.116   4.906   1.460  0.00  0.00    -0.018 S 
ATOM     25  N   UNL     1      -1.232   3.117   0.689  0.00  0.00    -0.293 N 
ATOM     26  H   UNL     1      -4.324   2.096   1.149  0.00  0.00    +0.157 HD
ATOM     27  H   UNL     1      -0.344   3.763   0.630  0.00  0.00    +0.154 HD
ENDBRANCH  15  18
ENDBRANCH   5  12
BRANCH   3  28
ATOM     28  C   UNL     1       8.377   3.894  -1.442  0.00  0.00    -0.002 A 
ATOM     29  C   UNL     1       9.291   4.888  -1.803  0.00  0.00    +0.010 A 
ATOM     30  C   UNL     1      10.641   4.605  -1.819  0.00  0.00    +0.001 A 
ATOM     31  C   UNL     1      11.090   3.338  -1.489  0.00  0.00    +0.000 A 
ATOM     32  C   UNL     1      10.191   2.348  -1.136  0.00  0.00    +0.001 A 
ATOM     33  C   UNL     1       8.838   2.618  -1.111  0.00  0.00    +0.010 A 
ENDBRANCH   3  28
TORSDOF 4
