REMARK  Name = ZINC39330477
REMARK  12 active torsions:
REMARK  status: ('A' for Active; 'I' for Inactive)
REMARK    1  A    between atoms: C_1  and  C_2
REMARK    2  A    between atoms: C_2  and  N_3
REMARK    3  A    between atoms: C_5  and  C_13
REMARK    4  A    between atoms: C_14  and  C_15
REMARK    5  A    between atoms: C_14  and  N_30
REMARK    6  A    between atoms: N_17  and  C_18
REMARK    7  A    between atoms: C_18  and  C_19
REMARK    8  A    between atoms: C_19  and  C_20
REMARK    9  A    between atoms: C_23  and  C_29
REMARK   10  A    between atoms: C_31  and  C_33
REMARK   11  A    between atoms: C_38  and  O_39
REMARK   12  A    between atoms: O_39  and  C_40
REMARK                            x       y       z     vdW  Elec       q    Type
REMARK                         _______ _______ _______ _____ _____    ______ ____
ROOT
ATOM      1  C   UNL     1       2.915  -2.673   2.828  0.00  0.00    +0.011 C 
ATOM      2  C   UNL     1       4.203  -2.857   3.131  0.00  0.00    +0.093 C 
ENDROOT
BRANCH   1   5
ATOM      3  N   UNL     1       0.420  -0.567   1.709  0.00  0.00    -0.329 N 
ATOM      4  C   UNL     1       1.872  -0.746   1.624  0.00  0.00    +0.117 C 
ATOM      5  C   UNL     1       2.289  -1.313   2.991  0.00  0.00    +0.063 C 
ATOM      6  C   UNL     1       0.997  -1.414   3.770  0.00  0.00    -0.018 A 
ATOM      7  C   UNL     1      -0.039  -0.961   2.968  0.00  0.00    +0.034 A 
ATOM      8  C   UNL     1      -1.339  -0.954   3.478  0.00  0.00    +0.023 A 
ATOM      9  C   UNL     1      -1.583  -1.389   4.763  0.00  0.00    +0.002 A 
ATOM     10  C   UNL     1      -0.543  -1.836   5.557  0.00  0.00    +0.000 A 
ATOM     11  C   UNL     1       0.746  -1.854   5.056  0.00  0.00    +0.006 A 
BRANCH   3  13
ATOM     12  C   UNL     1      -0.521   1.476   0.751  0.00  0.00    +0.024 C 
ATOM     13  C   UNL     1      -0.426  -0.046   0.633  0.00  0.00    +0.102 C 
ENDBRANCH   3  13
ENDBRANCH   1   5
BRANCH   2  14
ATOM     14  C   UNL     1       4.847  -4.156   2.861  0.00  0.00    +0.258 C 
ATOM     15  O   UNL     1       6.019  -4.323   3.138  0.00  0.00    -0.269 OA
ATOM     16  N   UNL     1       4.136  -5.159   2.308  0.00  0.00    -0.310 N 
ATOM     17  H   UNL     1       3.200  -5.026   2.088  0.00  0.00    +0.149 HD
BRANCH  16  18
ATOM     18  C   UNL     1       4.775  -6.450   2.041  0.00  0.00    +0.109 C 
BRANCH  18  19
ATOM     19  C   UNL     1       3.755  -7.404   1.417  0.00  0.00    +0.056 C 
BRANCH  19  20
ATOM     20  C   UNL     1       4.413  -8.732   1.141  0.00  0.00    -0.021 A 
ATOM     21  C   UNL     1       4.576  -9.837   2.089  0.00  0.00    +0.003 A 
ATOM     22  C   UNL     1       4.222 -10.029   3.425  0.00  0.00    +0.013 A 
ATOM     23  C   UNL     1       4.524 -11.209   4.044  0.00  0.00    -0.050 A 
ATOM     24  C   UNL     1       5.181 -12.219   3.355  0.00  0.00    +0.005 A 
ATOM     25  C   UNL     1       5.540 -12.050   2.035  0.00  0.00    +0.026 A 
ATOM     26  C   UNL     1       5.242 -10.857   1.385  0.00  0.00    +0.047 A 
ATOM     27  N   UNL     1       5.460 -10.393   0.107  0.00  0.00    -0.360 N 
ATOM     28  C   UNL     1       4.955  -9.128  -0.021  0.00  0.00    +0.087 A 
ATOM     29  C   UNL     1       4.142 -11.416   5.487  0.00  0.00    +0.044 C 
ATOM     30  H   UNL     1       5.903 -10.891  -0.598  0.00  0.00    +0.165 HD
ENDBRANCH  19  20
ENDBRANCH  18  19
ENDBRANCH  16  18
ENDBRANCH   2  14
BRANCH   2  31
ATOM     31  N   UNL     1       4.942  -1.815   3.705  0.00  0.00    -0.277 N 
ATOM     32  C   UNL     1       5.544  -1.994   4.898  0.00  0.00    +0.252 C 
ATOM     33  O   UNL     1       5.372  -3.026   5.517  0.00  0.00    -0.270 OA
ATOM     34  H   UNL     1       5.021  -0.965   3.245  0.00  0.00    +0.155 HD
BRANCH  32  35
ATOM     35  C   UNL     1       6.410  -0.936   5.452  0.00  0.00    +0.079 A 
ATOM     36  C   UNL     1       6.606   0.254   4.747  0.00  0.00    +0.017 A 
ATOM     37  C   UNL     1       7.417   1.237   5.271  0.00  0.00    +0.001 A 
ATOM     38  C   UNL     1       8.040   1.051   6.494  0.00  0.00    +0.004 A 
ATOM     39  C   UNL     1       7.856  -0.120   7.201  0.00  0.00    +0.046 A 
ATOM     40  C   UNL     1       7.038  -1.118   6.692  0.00  0.00    +0.132 A 
BRANCH  40  41
ATOM     41  O   UNL     1       6.852  -2.267   7.389  0.00  0.00    -0.494 OA
ATOM     42  C   UNL     1       7.524  -2.381   8.645  0.00  0.00    +0.277 C 
ENDBRANCH  40  41
ENDBRANCH  32  35
ENDBRANCH   2  31
TORSDOF 9
