REMARK  Name = ZINC00659225
REMARK  9 active torsions:
REMARK  status: ('A' for Active; 'I' for Inactive)
REMARK    1  A    between atoms: C_1  and  C_2
REMARK    2  A    between atoms: C_5  and  C_8
REMARK    3  A    between atoms: C_8  and  N_9
REMARK    4  A    between atoms: C_10  and  C_39
REMARK    5  A    between atoms: C_11  and  N_15
REMARK    6  A    between atoms: C_12  and  C_14
REMARK    7  A    between atoms: C_16  and  C_18
REMARK    8  A    between atoms: C_23  and  C_35
REMARK    9  A    between atoms: C_26  and  C_29
REMARK                            x       y       z     vdW  Elec       q    Type
REMARK                         _______ _______ _______ _____ _____    ______ ____
ROOT
ATOM      1  C   UNL     1       6.720  -6.061  -2.335  0.00  0.00    +0.149 A 
ATOM      2  C   UNL     1       8.107  -6.112  -2.070  0.00  0.00    +0.078 A 
ATOM      3  C   UNL     1       8.734  -6.385  -3.231  0.00  0.00    +0.119 A 
ATOM      4  N   UNL     1       7.787  -6.507  -4.207  0.00  0.00    -0.238 N 
ATOM      5  N   UNL     1       6.538  -6.304  -3.621  0.00  0.00    -0.164 NA
ATOM      6  C   UNL     1       8.097  -6.808  -5.608  0.00  0.00    +0.215 C 
ATOM      7  C   UNL     1       9.500  -7.419  -5.685  0.00  0.00    +0.063 C 
ATOM      8  C   UNL     1      10.493  -6.545  -4.912  0.00  0.00    +0.104 C 
ATOM      9  N   UNL     1      10.100  -6.533  -3.489  0.00  0.00    -0.322 N 
ATOM     10  H   UNL     1      10.751  -6.623  -2.775  0.00  0.00    +0.148 HD
ENDROOT
BRANCH   8  11
ATOM     11  C   UNL     1      11.883  -7.112  -5.052  0.00  0.00    -0.027 A 
ATOM     12  C   UNL     1      12.272  -8.187  -4.275  0.00  0.00    +0.005 A 
ATOM     13  C   UNL     1      13.546  -8.707  -4.404  0.00  0.00    +0.000 A 
ATOM     14  C   UNL     1      14.431  -8.152  -5.309  0.00  0.00    +0.000 A 
ATOM     15  C   UNL     1      14.041  -7.078  -6.087  0.00  0.00    +0.000 A 
ATOM     16  C   UNL     1      12.766  -6.561  -5.961  0.00  0.00    +0.005 A 
ENDBRANCH   8  11
BRANCH   1  18
ATOM     17  N   UNL     1       4.366  -5.774  -1.730  0.00  0.00    -0.277 N 
ATOM     18  C   UNL     1       5.658  -5.789  -1.345  0.00  0.00    +0.268 C 
ATOM     19  O   UNL     1       5.949  -5.579  -0.183  0.00  0.00    -0.268 OA
ATOM     20  H   UNL     1       4.128  -6.015  -2.639  0.00  0.00    +0.155 HD
BRANCH  17  23
ATOM     21  N   UNL     1       1.815  -4.278   0.247  0.00  0.00    -0.262 N 
ATOM     22  C   UNL     1       2.696  -4.228  -0.786  0.00  0.00    +0.058 A 
ATOM     23  C   UNL     1       3.363  -5.410  -0.813  0.00  0.00    +0.077 A 
ATOM     24  C   UNL     1       2.874  -6.203   0.236  0.00  0.00    +0.081 A 
ATOM     25  N   UNL     1       1.955  -5.524   0.872  0.00  0.00    -0.174 NA
ATOM     26  C   UNL     1       3.335  -7.597   0.576  0.00  0.00    +0.069 C 
ATOM     27  C   UNL     1       2.895  -3.071  -1.731  0.00  0.00    +0.067 C 
BRANCH  21  28
ATOM     28  C   UNL     1       0.889  -3.215   0.643  0.00  0.00    +0.179 C 
BRANCH  28  33
ATOM     29  C   UNL     1       3.466   0.265   4.470  0.00  0.00    +0.044 C 
ATOM     30  C   UNL     1       2.794  -0.642   3.472  0.00  0.00    -0.050 A 
ATOM     31  C   UNL     1       2.890  -0.374   2.119  0.00  0.00    +0.004 A 
ATOM     32  C   UNL     1       2.274  -1.207   1.204  0.00  0.00    +0.006 A 
ATOM     33  C   UNL     1       1.561  -2.308   1.641  0.00  0.00    -0.026 A 
ATOM     34  C   UNL     1       1.465  -2.576   2.994  0.00  0.00    +0.006 A 
ATOM     35  C   UNL     1       2.085  -1.746   3.909  0.00  0.00    +0.004 A 
ENDBRANCH  28  33
ENDBRANCH  21  28
ENDBRANCH  17  23
ENDBRANCH   1  18
BRANCH   6  36
ATOM     36  C   UNL     1       7.071  -7.802  -6.157  0.00  0.00    +0.412 C 
ATOM     37  F   UNL     1       5.791  -7.245  -6.074  0.00  0.00    -0.168 F 
ATOM     38  F   UNL     1       7.369  -8.088  -7.494  0.00  0.00    -0.168 F 
ATOM     39  F   UNL     1       7.117  -8.982  -5.407  0.00  0.00    -0.168 F 
ENDBRANCH   6  36
TORSDOF 6
