REMARK  Name = ZINC03007043
REMARK  11 active torsions:
REMARK  status: ('A' for Active; 'I' for Inactive)
REMARK    1  A    between atoms: C_1  and  C_2
REMARK    2  A    between atoms: C_2  and  N_3
REMARK    3  A    between atoms: C_9  and  N_16
REMARK    4  A    between atoms: C_10  and  C_11
REMARK    5  A    between atoms: C_11  and  O_13
REMARK    6  A    between atoms: O_13  and  C_14
REMARK    7  A    between atoms: C_14  and  C_15
REMARK    8  A    between atoms: C_17  and  C_19
REMARK    9  A    between atoms: C_22  and  S_25
REMARK   10  A    between atoms: S_25  and  N_28
REMARK   11  A    between atoms: C_31  and  C_34
REMARK                            x       y       z     vdW  Elec       q    Type
REMARK                         _______ _______ _______ _____ _____    ______ ____
ROOT
ATOM      1  N   UNL     1       1.637  -1.947   7.267  0.00  0.00    -0.275 N 
ATOM      2  C   UNL     1       1.065  -1.199   8.231  0.00  0.00    +0.249 C 
ATOM      3  O   UNL     1       0.312  -0.293   7.931  0.00  0.00    -0.270 OA
ATOM      4  H   UNL     1       2.237  -2.671   7.506  0.00  0.00    +0.156 HD
ENDROOT
BRANCH   1  11
ATOM      5  N   UNL     1       0.713  -0.491   1.192  0.00  0.00    +0.383 N 
ATOM      6  C   UNL     1       0.841  -1.952   1.122  0.00  0.00    -0.074 C 
ATOM      7  C   UNL     1       1.837  -2.447   2.176  0.00  0.00    +0.018 C 
ATOM      8  C   UNL     1       1.421  -1.867   3.520  0.00  0.00    -0.025 A 
ATOM      9  C   UNL     1       0.569  -0.818   3.574  0.00  0.00    -0.021 A 
ATOM     10  S   UNL     1       0.370  -0.491   5.299  0.00  0.00    -0.079 S 
ATOM     11  C   UNL     1       1.368  -1.683   5.934  0.00  0.00    +0.086 A 
ATOM     12  C   UNL     1       1.862  -2.343   4.817  0.00  0.00    +0.091 A 
ATOM     13  C   UNL     1      -0.043  -0.117   2.402  0.00  0.00    -0.035 C 
ATOM     14  H   UNL     1       1.631  -0.075   1.228  0.00  0.00    -0.081 HD
BRANCH   5  16
ATOM     15  C   UNL     1      -0.019   1.526   0.010  0.00  0.00    -0.017 C 
ATOM     16  C   UNL     1       0.002  -0.004   0.002  0.00  0.00    -0.082 C 
ENDBRANCH   5  16
BRANCH  12  17
ATOM     17  C   UNL     1       2.787  -3.471   4.942  0.00  0.00    +0.342 C 
ATOM     18  O   UNL     1       3.987  -3.275   4.961  0.00  0.00    -0.245 OA
BRANCH  17  19
ATOM     19  O   UNL     1       2.308  -4.729   5.036  0.00  0.00    -0.461 OA
BRANCH  19  20
ATOM     20  C   UNL     1       3.267  -5.781   5.156  0.00  0.00    +0.229 C 
ATOM     21  C   UNL     1       2.542  -7.125   5.251  0.00  0.00    +0.048 C 
ENDBRANCH  19  20
ENDBRANCH  17  19
ENDBRANCH  12  17
ENDBRANCH   1  11
BRANCH   2  22
ATOM     22  C   UNL     1       1.351  -1.481   9.653  0.00  0.00    +0.037 A 
ATOM     23  C   UNL     1       2.219  -2.518  10.001  0.00  0.00    +0.015 A 
ATOM     24  C   UNL     1       2.482  -2.776  11.330  0.00  0.00    +0.029 A 
ATOM     25  C   UNL     1       1.888  -2.010  12.318  0.00  0.00    +0.106 A 
ATOM     26  C   UNL     1       1.027  -0.981  11.979  0.00  0.00    +0.029 A 
ATOM     27  C   UNL     1       0.760  -0.709  10.654  0.00  0.00    +0.015 A 
BRANCH  25  28
ATOM     28  S   UNL     1       2.230  -2.346  14.013  0.00  0.00    +0.061 S 
ATOM     29  O   UNL     1       1.129  -1.843  14.757  0.00  0.00    -0.153 OA
ATOM     30  O   UNL     1       2.638  -3.706  14.083  0.00  0.00    -0.153 OA
BRANCH  28  31
ATOM     31  N   UNL     1       3.545  -1.435  14.438  0.00  0.00    -0.177 NA
ATOM     32  C   UNL     1       4.906  -1.966  14.283  0.00  0.00    +0.110 C 
ATOM     33  C   UNL     1       5.638  -1.845  15.623  0.00  0.00    +0.020 C 
ATOM     34  C   UNL     1       5.582  -0.393  16.102  0.00  0.00    -0.012 C 
ATOM     35  C   UNL     1       4.123   0.021  16.310  0.00  0.00    +0.020 C 
ATOM     36  C   UNL     1       3.373  -0.077  14.972  0.00  0.00    +0.110 C 
ATOM     37  C   UNL     1       6.342  -0.262  17.423  0.00  0.00    +0.007 C 
ENDBRANCH  28  31
ENDBRANCH  25  28
ENDBRANCH   2  22
TORSDOF 8
