REMARK  Name = ZINC13500119
REMARK  10 active torsions:
REMARK  status: ('A' for Active; 'I' for Inactive)
REMARK    1  A    between atoms: C_1  and  C_2
REMARK    2  A    between atoms: C_2  and  C_3
REMARK    3  A    between atoms: C_3  and  C_4
REMARK    4  A    between atoms: C_4  and  C_6
REMARK    5  A    between atoms: C_4  and  N_75
REMARK    6  A    between atoms: N_10  and  C_11
REMARK    7  A    between atoms: C_17  and  C_18
REMARK    8  A    between atoms: C_17  and  N_75
REMARK    9  A    between atoms: C_24  and  C_30
REMARK   10  A    between atoms: C_31  and  N_75
REMARK                            x       y       z     vdW  Elec       q    Type
REMARK                         _______ _______ _______ _____ _____    ______ ____
ROOT
ATOM      1  N   UNL     1       1.500  -3.172   5.218  0.00  0.00    +0.391 N 
ATOM      2  H   UNL     1       1.895  -3.589   4.368  0.00  0.00    -0.080 HD
ENDROOT
BRANCH   1   3
ATOM      3  C   UNL     1       2.184  -1.889   5.487  0.00  0.00    -0.067 C 
ATOM      4  C   UNL     1       3.694  -2.131   5.512  0.00  0.00    -0.015 C 
ATOM      5  C   UNL     1       4.418  -0.808   5.767  0.00  0.00    -0.002 C 
ATOM      6  C   UNL     1       3.971  -0.232   7.112  0.00  0.00    -0.000 C 
ATOM      7  C   UNL     1       2.461   0.009   7.087  0.00  0.00    -0.002 C 
ATOM      8  C   UNL     1       1.737  -1.314   6.832  0.00  0.00    -0.015 C 
ENDBRANCH   1   3
BRANCH   1   9
ATOM      9  C   UNL     1       1.705  -4.100   6.350  0.00  0.00    +0.003 C 
BRANCH   9  10
ATOM     10  C   UNL     1       0.796  -3.743   7.497  0.00  0.00    +0.138 A 
ATOM     11  N   UNL     1      -0.478  -3.447   7.423  0.00  0.00    -0.115 NA
ATOM     12  N   UNL     1      -0.900  -3.202   8.615  0.00  0.00    -0.023 NA
ATOM     13  N   UNL     1       0.072  -3.334   9.448  0.00  0.00    -0.044 NA
ATOM     14  N   UNL     1       1.134  -3.673   8.798  0.00  0.00    -0.228 N 
BRANCH  14  15
ATOM     15  C   UNL     1       2.459  -3.929   9.369  0.00  0.00    +0.111 C 
ATOM     16  C   UNL     1       2.369  -5.084  10.368  0.00  0.00    +0.027 C 
ATOM     17  C   UNL     1       3.753  -5.351  10.964  0.00  0.00    +0.002 C 
ATOM     18  C   UNL     1       4.251  -4.095  11.680  0.00  0.00    +0.000 C 
ATOM     19  C   UNL     1       4.341  -2.940  10.680  0.00  0.00    +0.002 C 
ATOM     20  C   UNL     1       2.957  -2.672  10.085  0.00  0.00    +0.027 C 
ENDBRANCH  14  15
ENDBRANCH   9  10
BRANCH   9  21
ATOM     21  C   UNL     1       1.397  -5.523   5.879  0.00  0.00    -0.008 C 
BRANCH  21  23
ATOM     22  C   UNL     1       2.021  -7.304   4.241  0.00  0.00    +0.004 C 
ATOM     23  C   UNL     1       2.401  -5.931   4.798  0.00  0.00    -0.005 C 
ENDBRANCH  21  23
ENDBRANCH   9  21
ENDBRANCH   1   9
BRANCH   1  24
ATOM     24  C   UNL     1       0.054  -2.940   5.012  0.00  0.00    -0.036 C 
BRANCH  24  25
ATOM     25  C   UNL     1      -0.154  -2.409   3.617  0.00  0.00    +0.001 A 
ATOM     26  C   UNL     1      -0.434  -3.265   2.603  0.00  0.00    +0.017 A 
ATOM     27  C   UNL     1      -0.632  -2.717   1.260  0.00  0.00    -0.001 A 
ATOM     28  C   UNL     1      -0.923  -3.550   0.175  0.00  0.00    +0.010 A 
ATOM     29  C   UNL     1      -1.101  -3.008  -1.066  0.00  0.00    +0.001 A 
ATOM     30  C   UNL     1      -1.004  -1.637  -1.259  0.00  0.00    +0.005 A 
ATOM     31  C   UNL     1      -0.711  -0.797  -0.205  0.00  0.00    -0.026 A 
ATOM     32  C   UNL     1      -0.525  -1.327   1.067  0.00  0.00    +0.052 A 
ATOM     33  N   UNL     1      -0.237  -0.510   2.140  0.00  0.00    -0.322 N 
ATOM     34  H   UNL     1      -0.164   0.448   2.006  0.00  0.00    +0.169 HD
ATOM     35  C   UNL     1      -0.058  -1.022   3.371  0.00  0.00    +0.251 A 
ATOM     36  O   UNL     1       0.195  -0.271   4.296  0.00  0.00    -0.268 OA
ATOM     37  C   UNL     1      -0.600   0.688  -0.430  0.00  0.00    +0.046 C 
ENDBRANCH  24  25
ENDBRANCH   1  24
TORSDOF 8
