REMARK  Name = ZINC09137726
REMARK  7 active torsions:
REMARK  status: ('A' for Active; 'I' for Inactive)
REMARK    1  A    between atoms: C_1  and  N_2
REMARK    2  A    between atoms: C_10  and  C_12
REMARK    3  A    between atoms: C_12  and  C_14
REMARK    4  A    between atoms: C_12  and  N_61
REMARK    5  A    between atoms: C_14  and  N_15
REMARK    6  A    between atoms: C_16  and  C_18
REMARK    7  A    between atoms: C_23  and  N_24
REMARK                            x       y       z     vdW  Elec       q    Type
REMARK                         _______ _______ _______ _____ _____    ______ ____
ROOT
ATOM      1  C   UNL     1      -2.474  -3.785   0.295  0.00  0.00    -0.020 C 
ENDROOT
BRANCH   1  11
ATOM      2  C   UNL     1      -8.393  -5.231   1.975  0.00  0.00    +0.129 C 
ATOM      3  N   UNL     1      -7.560  -6.143   1.179  0.00  0.00    -0.333 N 
ATOM      4  C   UNL     1      -8.266  -6.579  -0.028  0.00  0.00    +0.105 C 
ATOM      5  C   UNL     1      -7.342  -7.504  -0.830  0.00  0.00    +0.024 C 
ATOM      6  C   UNL     1      -6.186  -6.660  -1.372  0.00  0.00    +0.038 C 
ATOM      7  C   UNL     1      -5.626  -5.798  -0.269  0.00  0.00    -0.026 A 
ATOM      8  C   UNL     1      -6.315  -5.577   0.911  0.00  0.00    +0.033 A 
ATOM      9  C   UNL     1      -5.750  -4.761   1.892  0.00  0.00    +0.023 A 
ATOM     10  C   UNL     1      -4.514  -4.184   1.693  0.00  0.00    +0.004 A 
ATOM     11  C   UNL     1      -3.827  -4.413   0.515  0.00  0.00    -0.059 A 
ATOM     12  C   UNL     1      -4.385  -5.212  -0.463  0.00  0.00    +0.007 A 
ENDBRANCH   1  11
BRANCH   1  18
ATOM     13  C   UNL     1      -1.722  -5.821   1.367  0.00  0.00    -0.078 C 
ATOM     14  C   UNL     1      -0.609  -6.425   2.227  0.00  0.00    -0.019 C 
ATOM     15  C   UNL     1      -0.611  -5.754   3.603  0.00  0.00    -0.004 C 
ATOM     16  C   UNL     1      -0.431  -4.243   3.425  0.00  0.00    -0.019 C 
ATOM     17  C   UNL     1      -1.550  -3.703   2.531  0.00  0.00    -0.078 C 
ATOM     18  N   UNL     1      -1.477  -4.371   1.215  0.00  0.00    +0.385 N 
ATOM     19  H   UNL     1      -0.539  -4.232   0.822  0.00  0.00    -0.081 HD
ENDBRANCH   1  18
BRANCH   1  20
ATOM     20  C   UNL     1      -2.565  -2.278   0.541  0.00  0.00    +0.094 C 
BRANCH  20  21
ATOM     21  N   UNL     1      -1.270  -1.657   0.255  0.00  0.00    -0.313 N 
ATOM     22  C   UNL     1      -1.083  -0.345   0.497  0.00  0.00    +0.246 C 
ATOM     23  O   UNL     1      -1.990   0.324   0.952  0.00  0.00    -0.270 OA
ATOM     24  H   UNL     1      -0.546  -2.192  -0.108  0.00  0.00    +0.149 HD
BRANCH  22  25
ATOM     25  C   UNL     1       0.225   0.282   0.208  0.00  0.00    +0.067 A 
ATOM     26  C   UNL     1       1.391  -0.239   0.771  0.00  0.00    +0.015 A 
ATOM     27  C   UNL     1       2.608   0.349   0.497  0.00  0.00    +0.001 A 
ATOM     28  C   UNL     1       2.674   1.454  -0.334  0.00  0.00    +0.002 A 
ATOM     29  C   UNL     1       1.522   1.975  -0.895  0.00  0.00    +0.033 A 
ATOM     30  C   UNL     1       0.298   1.396  -0.629  0.00  0.00    +0.138 A 
BRANCH  30  31
ATOM     31  N   UNL     1      -0.932   1.951  -1.235  0.00  0.00    +0.057 N 
ATOM     32  O   UNL     1      -0.885   2.993  -1.864  0.00  0.00    -0.126 OA
ATOM     33  O   UNL     1      -1.993   1.367  -1.105  0.00  0.00    -0.126 OA
ENDBRANCH  30  31
ENDBRANCH  22  25
ENDBRANCH  20  21
ENDBRANCH   1  20
TORSDOF 6
