REMARK  Name = ZINC06855580
REMARK  7 active torsions:
REMARK  status: ('A' for Active; 'I' for Inactive)
REMARK    1  A    between atoms: C_1  and  C_2
REMARK    2  A    between atoms: C_2  and  C_3
REMARK    3  A    between atoms: C_2  and  C_4
REMARK    4  A    between atoms: C_4  and  C_5
REMARK    5  A    between atoms: C_5  and  S_6
REMARK    6  A    between atoms: S_6  and  C_7
REMARK    7  A    between atoms: C_18  and  C_20
REMARK                            x       y       z     vdW  Elec       q    Type
REMARK                         _______ _______ _______ _____ _____    ______ ____
ROOT
ATOM      1  C   UNL     1      -4.502  -0.221  -2.813  0.00  0.00    +0.171 A 
ATOM      2  N   UNL     1      -5.792  -0.526  -3.126  0.00  0.00    -0.302 N 
ATOM      3  H   UNL     1      -6.334  -1.033  -2.502  0.00  0.00    +0.171 HD
ATOM      4  C   UNL     1      -6.317  -0.124  -4.303  0.00  0.00    +0.258 A 
ATOM      5  O   UNL     1      -7.471  -0.395  -4.594  0.00  0.00    -0.267 OA
ATOM      6  C   UNL     1      -5.513   0.609  -5.183  0.00  0.00    +0.069 A 
ATOM      7  C   UNL     1      -4.210   0.897  -4.816  0.00  0.00    +0.135 A 
ATOM      8  N   UNL     1      -3.743   0.474  -3.636  0.00  0.00    -0.208 NA
ATOM      9  N   UNL     1      -3.404   1.626  -5.667  0.00  0.00    -0.302 N 
ATOM     10  C   UNL     1      -3.951   2.389  -6.662  0.00  0.00    +0.017 C 
ATOM     11  C   UNL     1      -5.212   2.171  -7.091  0.00  0.00    +0.024 C 
ATOM     12  C   UNL     1      -6.058   1.071  -6.502  0.00  0.00    +0.095 C 
ATOM     13  C   UNL     1      -5.780   2.966  -8.102  0.00  0.00    +0.162 C 
ATOM     14  O   UNL     1      -6.915   2.738  -8.471  0.00  0.00    -0.292 OA
ATOM     15  C   UNL     1      -5.012   4.093  -8.736  0.00  0.00    +0.080 C 
ATOM     16  C   UNL     1      -3.997   4.635  -7.724  0.00  0.00    +0.014 C 
ATOM     17  C   UNL     1      -3.102   3.480  -7.270  0.00  0.00    +0.051 C 
ATOM     18  H   UNL     1      -2.440   1.596  -5.559  0.00  0.00    +0.153 HD
ENDROOT
BRANCH  12  19
ATOM     19  C   UNL     1      -6.087  -0.093  -7.458  0.00  0.00    -0.000 A 
ATOM     20  C   UNL     1      -4.916  -0.752  -7.782  0.00  0.00    +0.007 A 
ATOM     21  C   UNL     1      -4.943  -1.820  -8.659  0.00  0.00    +0.000 A 
ATOM     22  C   UNL     1      -6.141  -2.231  -9.213  0.00  0.00    +0.003 A 
ATOM     23  C   UNL     1      -7.313  -1.574  -8.891  0.00  0.00    +0.038 A 
ATOM     24  C   UNL     1      -7.288  -0.507  -8.009  0.00  0.00    +0.127 A 
ATOM     25  F   UNL     1      -8.434   0.133  -7.689  0.00  0.00    -0.205 F 
ENDBRANCH  12  19
BRANCH   1  26
ATOM     26  S   UNL     1      -3.837  -0.759  -1.273  0.00  0.00    -0.088 S 
BRANCH  26  27
ATOM     27  C   UNL     1      -2.135  -0.131  -1.286  0.00  0.00    +0.077 C 
BRANCH  27  28
ATOM     28  C   UNL     1      -1.433  -0.534   0.013  0.00  0.00    +0.014 C 
BRANCH  28  30
ATOM     29  C   UNL     1      -0.019   1.526   0.010  0.00  0.00    +0.007 C 
ATOM     30  C   UNL     1       0.002  -0.004   0.002  0.00  0.00    -0.016 C 
ATOM     31  C   UNL     1       0.742  -0.511   1.242  0.00  0.00    +0.007 C 
ENDBRANCH  28  30
ENDBRANCH  27  28
ENDBRANCH  26  27
ENDBRANCH   1  26
TORSDOF 5
