REMARK  Name = ZINC35397833
REMARK  6 active torsions:
REMARK  status: ('A' for Active; 'I' for Inactive)
REMARK    1  A    between atoms: C_6  and  S_7
REMARK    2  A    between atoms: S_7  and  N_10
REMARK    3  A    between atoms: N_10  and  C_11
REMARK    4  A    between atoms: C_13  and  C_30
REMARK    5  A    between atoms: C_21  and  C_24
REMARK    6  A    between atoms: C_24  and  N_25
REMARK                            x       y       z     vdW  Elec       q    Type
REMARK                         _______ _______ _______ _____ _____    ______ ____
ROOT
ATOM      1  C   UNL     1      -2.881  -2.190  -2.071  0.00  0.00    +0.091 A 
ATOM      2  C   UNL     1      -3.208  -2.494  -3.386  0.00  0.00    +0.046 A 
ATOM      3  C   UNL     1      -4.424  -3.144  -3.634  0.00  0.00    +0.103 A 
ATOM      4  C   UNL     1      -5.259  -3.459  -2.546  0.00  0.00    +0.113 A 
ATOM      5  N   UNL     1      -4.899  -3.147  -1.312  0.00  0.00    -0.347 N 
ATOM      6  C   UNL     1      -3.757  -2.540  -1.052  0.00  0.00    +0.110 A 
ATOM      7  N   UNL     1      -6.465  -4.101  -2.769  0.00  0.00    -0.316 N 
ATOM      8  C   UNL     1      -7.671  -3.332  -3.103  0.00  0.00    +0.106 C 
ATOM      9  C   UNL     1      -8.787  -3.714  -2.125  0.00  0.00    +0.019 C 
ATOM     10  C   UNL     1      -8.982  -5.232  -2.149  0.00  0.00    +0.005 C 
ATOM     11  C   UNL     1      -7.691  -5.922  -1.703  0.00  0.00    -0.010 C 
ATOM     12  C   UNL     1      -6.561  -5.564  -2.682  0.00  0.00    +0.108 C 
ATOM     13  H   UNL     1      -5.490  -3.373  -0.577  0.00  0.00    +0.167 HD
ENDROOT
BRANCH   3  14
ATOM     14  C   UNL     1      -4.822  -3.490  -5.007  0.00  0.00    +0.390 C 
ATOM     15  O   UNL     1      -4.140  -3.120  -5.953  0.00  0.00    -0.240 OA
ATOM     16  O   UNL     1      -5.834  -4.149  -5.203  0.00  0.00    -0.240 OA
ENDBRANCH   3  14
BRANCH   1  17
ATOM     17  N   UNL     1      -1.675  -1.540  -1.775  0.00  0.00    -0.096 NA
BRANCH  17  18
ATOM     18  S   UNL     1      -1.290  -1.187  -0.204  0.00  0.00    +0.092 S 
ATOM     19  O   UNL     1      -1.101  -2.430   0.458  0.00  0.00    -0.148 OA
ATOM     20  O   UNL     1      -2.236  -0.224   0.240  0.00  0.00    -0.148 OA
BRANCH  18  26
ATOM     21  C   UNL     1       0.350   0.994  -0.332  0.00  0.00    +0.029 A 
ATOM     22  C   UNL     1       1.581   1.616  -0.347  0.00  0.00    +0.006 A 
ATOM     23  C   UNL     1       2.749   0.872  -0.249  0.00  0.00    -0.044 A 
ATOM     24  C   UNL     1       2.677  -0.498  -0.133  0.00  0.00    -0.042 A 
ATOM     25  C   UNL     1       1.437  -1.123  -0.122  0.00  0.00    +0.032 A 
ATOM     26  C   UNL     1       0.278  -0.382  -0.221  0.00  0.00    +0.111 A 
ATOM     27  C   UNL     1       3.902  -1.366  -0.007  0.00  0.00    +0.035 C 
ATOM     28  C   UNL     1       5.147  -0.608  -0.462  0.00  0.00    +0.005 C 
ATOM     29  C   UNL     1       5.186   0.741   0.267  0.00  0.00    +0.005 C 
ATOM     30  C   UNL     1       4.059   1.615  -0.279  0.00  0.00    +0.035 C 
ENDBRANCH  18  26
ENDBRANCH  17  18
ENDBRANCH   1  17
BRANCH  11  31
ATOM     31  C   UNL     1      -7.897  -7.438  -1.695  0.00  0.00    -0.074 C 
BRANCH  31  32
ATOM     32  N   UNL     1      -6.689  -8.094  -1.180  0.00  0.00    +0.380 N 
ATOM     33  C   UNL     1      -6.531  -7.812   0.270  0.00  0.00    -0.079 C 
ATOM     34  C   UNL     1      -5.618  -8.965   0.758  0.00  0.00    -0.020 C 
ATOM     35  C   UNL     1      -6.119 -10.174  -0.064  0.00  0.00    -0.020 C 
ATOM     36  C   UNL     1      -6.818  -9.563  -1.293  0.00  0.00    -0.079 C 
ATOM     37  H   UNL     1      -5.876  -7.776  -1.687  0.00  0.00    -0.082 HD
ENDBRANCH  31  32
ENDBRANCH  11  31
TORSDOF 6
