REMARK  Name = ZINC41006938
REMARK  7 active torsions:
REMARK  status: ('A' for Active; 'I' for Inactive)
REMARK    1  A    between atoms: C_1  and  C_2
REMARK    2  A    between atoms: C_2  and  O_36
REMARK    3  A    between atoms: C_6  and  C_27
REMARK    4  A    between atoms: C_8  and  C_21
REMARK    5  A    between atoms: C_10  and  C_12
REMARK    6  A    between atoms: N_14  and  C_15
REMARK    7  A    between atoms: N_29  and  C_30
REMARK                            x       y       z     vdW  Elec       q    Type
REMARK                         _______ _______ _______ _____ _____    ______ ____
ROOT
ATOM      1  C   UNL     1       0.848   1.810   0.055  0.00  0.00    +0.042 C 
ATOM      2  C   UNL     1       0.532   0.330  -0.171  0.00  0.00    +0.082 C 
ATOM      3  C   UNL     1       0.918  -0.063  -1.601  0.00  0.00    +0.110 C 
ATOM      4  C   UNL     1       0.724  -1.555  -1.759  0.00  0.00    +0.149 C 
ATOM      5  O   UNL     1       0.081  -2.001  -2.679  0.00  0.00    -0.296 OA
ATOM      6  C   UNL     1       1.354  -2.473  -0.735  0.00  0.00    +0.152 C 
ATOM      7  C   UNL     1       0.952  -1.993   0.663  0.00  0.00    +0.089 C 
ATOM      8  C   UNL     1       1.328  -0.519   0.822  0.00  0.00    +0.118 C 
ENDROOT
BRANCH   7   9
ATOM      9  C   UNL     1      -0.536  -2.154   0.841  0.00  0.00    +0.112 A 
ATOM     10  C   UNL     1      -1.176  -2.301   2.015  0.00  0.00    +0.046 A 
ATOM     11  C   UNL     1      -2.554  -2.418   1.719  0.00  0.00    +0.057 A 
ATOM     12  C   UNL     1      -2.673  -2.334   0.381  0.00  0.00    +0.170 A 
ATOM     13  O   UNL     1      -1.448  -2.169  -0.145  0.00  0.00    -0.453 OA
ATOM     14 BR   UNL     1      -4.291  -2.427  -0.593  0.00  0.00    -0.008 Br
ENDBRANCH   7   9
BRANCH   8  15
ATOM     15  C   UNL     1       1.016  -0.071   2.227  0.00  0.00    +0.224 C 
ATOM     16  O   UNL     1      -0.092   0.340   2.500  0.00  0.00    -0.275 OA
ATOM     17  N   UNL     1       1.969  -0.126   3.179  0.00  0.00    -0.285 N 
ATOM     18  H   UNL     1       2.822  -0.546   2.987  0.00  0.00    +0.155 HD
BRANCH  17  19
ATOM     19  C   UNL     1       1.727   0.423   4.443  0.00  0.00    +0.033 A 
ATOM     20  C   UNL     1       0.423   0.582   4.894  0.00  0.00    +0.023 A 
ATOM     21  C   UNL     1       0.188   1.124   6.143  0.00  0.00    +0.002 A 
ATOM     22  C   UNL     1       1.248   1.507   6.943  0.00  0.00    +0.000 A 
ATOM     23  C   UNL     1       2.547   1.350   6.496  0.00  0.00    +0.002 A 
ATOM     24  C   UNL     1       2.790   0.803   5.252  0.00  0.00    +0.023 A 
ENDBRANCH  17  19
ENDBRANCH   8  15
BRANCH   6  25
ATOM     25  C   UNL     1       2.854  -2.434  -0.876  0.00  0.00    +0.228 C 
ATOM     26  O   UNL     1       3.541  -2.074   0.056  0.00  0.00    -0.275 OA
ATOM     27  N   UNL     1       3.431  -2.800  -2.038  0.00  0.00    -0.285 N 
ATOM     28  H   UNL     1       2.883  -2.968  -2.820  0.00  0.00    +0.155 HD
BRANCH  27  29
ATOM     29  C   UNL     1       4.822  -2.937  -2.115  0.00  0.00    +0.033 A 
ATOM     30  C   UNL     1       5.543  -3.350  -1.003  0.00  0.00    +0.023 A 
ATOM     31  C   UNL     1       6.915  -3.484  -1.083  0.00  0.00    +0.002 A 
ATOM     32  C   UNL     1       7.571  -3.208  -2.269  0.00  0.00    +0.000 A 
ATOM     33  C   UNL     1       6.855  -2.795  -3.378  0.00  0.00    +0.002 A 
ATOM     34  C   UNL     1       5.482  -2.665  -3.306  0.00  0.00    +0.023 A 
ENDBRANCH  27  29
ENDBRANCH   6  25
BRANCH   2  35
ATOM     35  O   UNL     1      -0.866   0.105   0.024  0.00  0.00    -0.388 OA
ATOM     36  H   UNL     1      -1.432   0.612  -0.573  0.00  0.00    +0.210 HD
ENDBRANCH   2  35
TORSDOF 6
