REMARK  Name = ZINC06233463
REMARK  11 active torsions:
REMARK  status: ('A' for Active; 'I' for Inactive)
REMARK    1  A    between atoms: C_1  and  C_2
REMARK    2  A    between atoms: C_7  and  C_8
REMARK    3  A    between atoms: C_13  and  C_28
REMARK    4  A    between atoms: C_16  and  C_20
REMARK    5  A    between atoms: C_17  and  C_18
REMARK    6  A    between atoms: C_17  and  C_19
REMARK    7  A    between atoms: N_22  and  N_23
REMARK    8  A    between atoms: N_23  and  C_24
REMARK    9  A    between atoms: C_24  and  C_25
REMARK   10  A    between atoms: C_24  and  C_26
REMARK   11  A    between atoms: C_24  and  C_27
REMARK                            x       y       z     vdW  Elec       q    Type
REMARK                         _______ _______ _______ _____ _____    ______ ____
ROOT
ATOM      1  C   UNL     1      -7.727  -2.152  -0.713  0.00  0.00    +0.044 C 
ATOM      2  C   UNL     1      -6.366  -1.586  -1.026  0.00  0.00    -0.045 A 
ATOM      3  C   UNL     1      -5.844  -0.615  -0.229  0.00  0.00    +0.033 A 
ATOM      4  C   UNL     1      -4.574  -0.085  -0.517  0.00  0.00    +0.090 A 
ATOM      5  C   UNL     1      -3.858  -0.570  -1.640  0.00  0.00    +0.090 A 
ATOM      6  C   UNL     1      -4.431  -1.574  -2.440  0.00  0.00    +0.033 A 
ATOM      7  C   UNL     1      -5.661  -2.064  -2.129  0.00  0.00    -0.045 A 
ATOM      8  C   UNL     1      -6.270  -3.142  -2.989  0.00  0.00    +0.044 C 
ATOM      9  N   UNL     1      -2.651  -0.066  -1.925  0.00  0.00    -0.247 NA
ATOM     10  C   UNL     1      -2.146   0.866  -1.159  0.00  0.00    +0.079 A 
ATOM     11  C   UNL     1      -2.853   1.343  -0.044  0.00  0.00    +0.071 A 
ATOM     12  N   UNL     1      -4.034   0.869   0.253  0.00  0.00    -0.248 NA
ATOM     13  C   UNL     1      -1.982   2.412   0.620  0.00  0.00    +0.018 C 
ATOM     14  C   UNL     1      -0.789   1.611   1.239  0.00  0.00    +0.015 C 
ATOM     15  C   UNL     1      -0.013   1.086   0.008  0.00  0.00    +0.024 C 
ATOM     16  C   UNL     1      -0.820   1.629  -1.214  0.00  0.00    +0.098 C 
ATOM     17  C   UNL     1      -1.282   3.022  -0.650  0.00  0.00    -0.005 C 
ATOM     18  C   UNL     1      -0.100   3.923  -0.286  0.00  0.00    +0.013 C 
ATOM     19  C   UNL     1      -2.272   3.726  -1.580  0.00  0.00    +0.013 C 
ATOM     20  C   UNL     1      -2.688   3.398   1.552  0.00  0.00    +0.018 C 
ENDROOT
BRANCH  16  21
ATOM     21  C   UNL     1      -0.096   1.643  -2.535  0.00  0.00    +0.239 C 
ATOM     22  O   UNL     1       0.086   2.693  -3.115  0.00  0.00    -0.273 OA
ATOM     23  N   UNL     1       0.349   0.490  -3.073  0.00  0.00    -0.250 N 
ATOM     24  H   UNL     1       0.203  -0.349  -2.609  0.00  0.00    +0.169 HD
BRANCH  23  25
ATOM     25  N   UNL     1       1.005   0.504  -4.271  0.00  0.00    -0.235 NA
ATOM     26  H   UNL     1       0.443   0.942  -4.986  0.00  0.00    +0.145 HD
BRANCH  25  27
ATOM     27  C   UNL     1       1.400  -0.854  -4.670  0.00  0.00    +0.028 C 
ATOM     28  C   UNL     1       0.152  -1.729  -4.804  0.00  0.00    +0.029 C 
ATOM     29  C   UNL     1       2.130  -0.798  -6.014  0.00  0.00    +0.029 C 
ATOM     30  C   UNL     1       2.329  -1.447  -3.609  0.00  0.00    +0.029 C 
ENDBRANCH  25  27
ENDBRANCH  23  25
ENDBRANCH  16  21
TORSDOF 3
