REMARK  Name = ZINC39030163
REMARK  5 active torsions:
REMARK  status: ('A' for Active; 'I' for Inactive)
REMARK    1  A    between atoms: C_1  and  C_2
REMARK    2  A    between atoms: C_5  and  C_8
REMARK    3  A    between atoms: N_10  and  C_11
REMARK    4  A    between atoms: C_11  and  C_13
REMARK    5  A    between atoms: C_11  and  C_14
REMARK                            x       y       z     vdW  Elec       q    Type
REMARK                         _______ _______ _______ _____ _____    ______ ____
ROOT
ATOM      1  C   UNL     1       0.711  -6.991   2.373  0.00  0.00    +0.236 C 
ATOM      2  O   UNL     1       1.020  -6.274   3.301  0.00  0.00    -0.274 OA
ATOM      3  N   UNL     1       0.921  -8.321   2.450  0.00  0.00    -0.300 N 
ATOM      4  C   UNL     1       0.661  -9.187   1.292  0.00  0.00    +0.106 C 
ATOM      5  C   UNL     1       1.921 -10.008   0.998  0.00  0.00    +0.009 C 
ATOM      6  C   UNL     1       2.344 -10.756   2.263  0.00  0.00    -0.037 C 
ATOM      7  C   UNL     1       2.666  -9.755   3.373  0.00  0.00    +0.009 C 
ATOM      8  C   UNL     1       1.420  -8.930   3.690  0.00  0.00    +0.106 C 
ATOM      9  C   UNL     1       3.578 -11.610   1.966  0.00  0.00    +0.140 C 
ATOM     10  C   UNL     1       3.121 -12.655   0.952  0.00  0.00    +0.042 C 
ATOM     11  N   UNL     1       3.897 -12.537  -0.052  0.00  0.00    -0.243 NA
ATOM     12  C   UNL     1       4.756 -11.498   0.098  0.00  0.00    +0.216 C 
ATOM     13  N   UNL     1       4.623 -10.877   1.251  0.00  0.00    -0.264 NA
ATOM     14  C   UNL     1       1.890 -13.493   1.188  0.00  0.00    +0.034 C 
ATOM     15  C   UNL     1       0.783 -12.509   1.614  0.00  0.00    -0.076 C 
ATOM     16  N   UNL     1       1.258 -11.645   2.698  0.00  0.00    +0.385 N 
ATOM     17  H   UNL     1       1.590 -12.223   3.455  0.00  0.00    -0.085 HD
ATOM     18  H   UNL     1       0.488 -11.084   3.030  0.00  0.00    -0.085 HD
ENDROOT
BRANCH   1  19
ATOM     19  C   UNL     1       0.092  -6.396   1.135  0.00  0.00    +0.156 C 
ATOM     20  C   UNL     1      -1.418  -6.637   1.153  0.00  0.00    +0.038 C 
BRANCH  19  23
ATOM     21  C   UNL     1       0.368  -4.300  -0.076  0.00  0.00    +0.245 C 
ATOM     22  O   UNL     1       0.159  -4.904  -1.110  0.00  0.00    -0.270 OA
ATOM     23  N   UNL     1       0.357  -4.956   1.101  0.00  0.00    -0.300 N 
ATOM     24  H   UNL     1       0.523  -4.474   1.926  0.00  0.00    +0.150 HD
BRANCH  21  29
ATOM     25  C   UNL     1       1.405   1.359  -0.209  0.00  0.00    +0.044 C 
ATOM     26  C   UNL     1       1.133  -0.123  -0.174  0.00  0.00    -0.050 A 
ATOM     27  C   UNL     1       0.897  -0.808  -1.353  0.00  0.00    +0.004 A 
ATOM     28  C   UNL     1       0.648  -2.164  -1.328  0.00  0.00    +0.013 A 
ATOM     29  C   UNL     1       0.635  -2.846  -0.111  0.00  0.00    +0.037 A 
ATOM     30  C   UNL     1       0.875  -2.150   1.075  0.00  0.00    +0.013 A 
ATOM     31  C   UNL     1       1.128  -0.794   1.036  0.00  0.00    +0.004 A 
ENDBRANCH  21  29
ENDBRANCH  19  23
ENDBRANCH   1  19
TORSDOF 3
