REMARK  Name = ZINC35034886
REMARK  12 active torsions:
REMARK  status: ('A' for Active; 'I' for Inactive)
REMARK    1  A    between atoms: C_1  and  C_2
REMARK    2  A    between atoms: C_5  and  C_11
REMARK    3  A    between atoms: C_7  and  N_8
REMARK    4  A    between atoms: N_13  and  C_14
REMARK    5  A    between atoms: N_13  and  C_19
REMARK    6  A    between atoms: C_14  and  C_15
REMARK    7  A    between atoms: C_15  and  N_16
REMARK    8  A    between atoms: N_16  and  C_17
REMARK    9  A    between atoms: N_16  and  C_18
REMARK   10  A    between atoms: C_19  and  C_21
REMARK   11  A    between atoms: C_19  and  C_22
REMARK   12  A    between atoms: N_32  and  C_33
REMARK                            x       y       z     vdW  Elec       q    Type
REMARK                         _______ _______ _______ _____ _____    ______ ____
ROOT
ATOM      1  C   UNL     1       0.488  -4.501   0.359  0.00  0.00    +0.247 C 
ATOM      2  O   UNL     1       0.519  -5.377   1.201  0.00  0.00    -0.270 OA
ATOM      3  N   UNL     1       0.455  -4.825  -0.949  0.00  0.00    -0.290 N 
ENDROOT
BRANCH   1   8
ATOM      4  C   UNL     1       0.484   1.028   1.953  0.00  0.00    +0.046 C 
ATOM      5  C   UNL     1       0.486  -0.420   1.536  0.00  0.00    -0.020 A 
ATOM      6  C   UNL     1       1.023  -0.784   0.314  0.00  0.00    +0.006 A 
ATOM      7  C   UNL     1       1.027  -2.107  -0.075  0.00  0.00    +0.013 A 
ATOM      8  C   UNL     1       0.488  -3.081   0.769  0.00  0.00    +0.039 A 
ATOM      9  C   UNL     1      -0.052  -2.707   2.000  0.00  0.00    +0.046 A 
ATOM     10  C   UNL     1      -0.045  -1.380   2.379  0.00  0.00    +0.130 A 
BRANCH  10  11
ATOM     11  N   UNL     1      -0.611  -0.982   3.687  0.00  0.00    +0.057 N 
ATOM     12  O   UNL     1      -0.169  -0.020   4.270  0.00  0.00    -0.126 OA
ATOM     13  O   UNL     1      -1.516  -1.620   4.173  0.00  0.00    -0.126 OA
ENDBRANCH  10  11
ENDBRANCH   1   8
BRANCH   3  14
ATOM     14  C   UNL     1       0.469  -6.232  -1.355  0.00  0.00    +0.139 C 
ATOM     15  C   UNL     1       1.698  -6.499  -2.228  0.00  0.00    +0.036 C 
BRANCH  14  16
ATOM     16  C   UNL     1      -0.780  -6.541  -2.140  0.00  0.00    +0.133 A 
ATOM     17  N   UNL     1      -0.690  -6.633  -3.432  0.00  0.00    -0.232 NA
ATOM     18  C   UNL     1      -1.771  -6.909  -4.202  0.00  0.00    +0.080 A 
ATOM     19  C   UNL     1      -1.676  -7.008  -5.592  0.00  0.00    +0.048 A 
ATOM     20  C   UNL     1      -2.805  -7.291  -6.331  0.00  0.00    +0.043 A 
ATOM     21  C   UNL     1      -4.034  -7.477  -5.710  0.00  0.00    +0.021 A 
ATOM     22  C   UNL     1      -4.151  -7.384  -4.351  0.00  0.00    +0.017 A 
ATOM     23  C   UNL     1      -3.026  -7.100  -3.580  0.00  0.00    +0.065 A 
ATOM     24  C   UNL     1      -3.093  -6.990  -2.116  0.00  0.00    +0.262 A 
ATOM     25  O   UNL     1      -4.142  -7.144  -1.518  0.00  0.00    -0.267 OA
ATOM     26  N   UNL     1      -1.943  -6.715  -1.458  0.00  0.00    -0.298 N 
ATOM     27  C   UNL     1      -1.952  -6.599   0.002  0.00  0.00    +0.154 C 
ATOM     28 CL   UNL     1      -2.689  -7.415  -8.059  0.00  0.00    -0.083 Cl
ENDBRANCH  14  16
ENDBRANCH   3  14
BRANCH   3  29
ATOM     29  C   UNL     1       0.404  -3.770  -1.964  0.00  0.00    +0.090 C 
BRANCH  29  30
ATOM     30  C   UNL     1       1.788  -3.600  -2.592  0.00  0.00    -0.060 C 
BRANCH  30  31
ATOM     31  N   UNL     1       1.705  -2.654  -3.713  0.00  0.00    +0.377 N 
ATOM     32  C   UNL     1       1.365  -1.319  -3.203  0.00  0.00    -0.097 C 
ATOM     33  C   UNL     1       2.999  -2.599  -4.405  0.00  0.00    -0.097 C 
ATOM     34  H   UNL     1       0.991  -2.959  -4.358  0.00  0.00    -0.083 HD
ENDBRANCH  30  31
ENDBRANCH  29  30
ENDBRANCH   3  29
TORSDOF 7
