REMARK  Name = ZINC01294975
REMARK  7 active torsions:
REMARK  status: ('A' for Active; 'I' for Inactive)
REMARK    1  A    between atoms: C_1  and  C_2
REMARK    2  A    between atoms: C_5  and  C_8
REMARK    3  A    between atoms: C_8  and  N_9
REMARK    4  A    between atoms: N_16  and  C_19
REMARK    5  A    between atoms: C_19  and  C_20
REMARK    6  A    between atoms: C_20  and  C_22
REMARK    7  A    between atoms: C_25  and  N_28
REMARK                            x       y       z     vdW  Elec       q    Type
REMARK                         _______ _______ _______ _____ _____    ______ ____
ROOT
ATOM      1  N   UNL     1       1.447  -4.746  -0.032  0.00  0.00    -0.309 N 
ATOM      2  C   UNL     1       2.184  -4.986  -1.148  0.00  0.00    +0.068 A 
ATOM      3  C   UNL     1       1.917  -4.885  -2.515  0.00  0.00    +0.028 A 
ATOM      4  C   UNL     1       2.894  -5.209  -3.429  0.00  0.00    +0.002 A 
ATOM      5  C   UNL     1       4.143  -5.635  -3.003  0.00  0.00    +0.002 A 
ATOM      6  C   UNL     1       4.423  -5.741  -1.656  0.00  0.00    +0.028 A 
ATOM      7  C   UNL     1       3.450  -5.419  -0.721  0.00  0.00    +0.069 A 
ATOM      8  N   UNL     1       3.412  -5.417   0.663  0.00  0.00    -0.306 N 
ATOM      9  C   UNL     1       2.168  -4.994   1.033  0.00  0.00    +0.175 A 
ATOM     10  N   UNL     1       1.734  -4.851   2.334  0.00  0.00    -0.330 N 
ATOM     11  H   UNL     1       0.831  -4.545   2.514  0.00  0.00    +0.145 HD
ATOM     12  H   UNL     1       2.332  -5.056   3.070  0.00  0.00    +0.145 HD
ENDROOT
BRANCH   1  13
ATOM     13  C   UNL     1       0.059  -4.275  -0.021  0.00  0.00    +0.160 C 
BRANCH  13  18
ATOM     14  C   UNL     1      -0.018   1.503   0.010  0.00  0.00    +0.044 C 
ATOM     15  C   UNL     1       0.002  -0.004   0.002  0.00  0.00    -0.050 A 
ATOM     16  C   UNL     1       0.006  -0.689  -1.199  0.00  0.00    +0.004 A 
ATOM     17  C   UNL     1       0.025  -2.071  -1.206  0.00  0.00    +0.005 A 
ATOM     18  C   UNL     1       0.040  -2.768  -0.013  0.00  0.00    -0.028 A 
ATOM     19  C   UNL     1       0.037  -2.084   1.188  0.00  0.00    +0.005 A 
ATOM     20  C   UNL     1       0.023  -0.702   1.195  0.00  0.00    +0.004 A 
ENDBRANCH  13  18
ENDBRANCH   1  13
BRANCH   8  21
ATOM     21  C   UNL     1       4.504  -5.795   1.563  0.00  0.00    +0.204 C 
BRANCH  21  22
ATOM     22  C   UNL     1       5.335  -4.579   1.883  0.00  0.00    +0.183 C 
ATOM     23  O   UNL     1       5.043  -3.503   1.407  0.00  0.00    -0.290 OA
BRANCH  22  24
ATOM     24  C   UNL     1       6.500  -4.697   2.775  0.00  0.00    +0.019 A 
ATOM     25  C   UNL     1       6.843  -5.938   3.322  0.00  0.00    +0.013 A 
ATOM     26  C   UNL     1       7.936  -6.041   4.156  0.00  0.00    +0.033 A 
ATOM     27  C   UNL     1       8.693  -4.920   4.452  0.00  0.00    +0.126 A 
ATOM     28  C   UNL     1       8.360  -3.689   3.915  0.00  0.00    +0.033 A 
ATOM     29  C   UNL     1       7.273  -3.571   3.074  0.00  0.00    +0.013 A 
BRANCH  27  30
ATOM     30  N   UNL     1       9.864  -5.039   5.349  0.00  0.00    +0.056 N 
ATOM     31  O   UNL     1      10.158  -6.113   5.821  0.00  0.00    -0.126 OA
ATOM     32  O   UNL     1      10.527  -4.063   5.610  0.00  0.00    -0.126 OA
ENDBRANCH  27  30
ENDBRANCH  22  24
ENDBRANCH  21  22
ENDBRANCH   8  21
TORSDOF 6
