REMARK  Name = ZINC63137567
REMARK  9 active torsions:
REMARK  status: ('A' for Active; 'I' for Inactive)
REMARK    1  A    between atoms: C_1  and  O_2
REMARK    2  A    between atoms: O_2  and  C_3
REMARK    3  A    between atoms: C_6  and  C_9
REMARK    4  A    between atoms: C_9  and  N_10
REMARK    5  A    between atoms: C_30  and  C_32
REMARK    6  A    between atoms: C_36  and  O_40
REMARK    7  A    between atoms: C_37  and  O_38
REMARK    8  A    between atoms: O_38  and  C_39
REMARK    9  A    between atoms: O_40  and  C_41
REMARK                            x       y       z     vdW  Elec       q    Type
REMARK                         _______ _______ _______ _____ _____    ______ ____
ROOT
ATOM      1  N   UNL     1       1.812  -2.979   5.861  0.00  0.00    -0.287 N 
ATOM      2  C   UNL     1       1.498  -2.017   6.933  0.00  0.00    +0.204 C 
ATOM      3  C   UNL     1       0.003  -1.783   6.947  0.00  0.00    +0.234 C 
ATOM      4  O   UNL     1      -0.464  -0.669   7.058  0.00  0.00    -0.274 OA
ATOM      5  N   UNL     1      -0.801  -2.891   6.827  0.00  0.00    -0.279 N 
ATOM      6  C   UNL     1      -0.106  -4.160   6.783  0.00  0.00    +0.167 C 
ATOM      7  C   UNL     1       1.015  -4.085   5.778  0.00  0.00    +0.237 C 
ATOM      8  O   UNL     1       1.199  -4.953   4.951  0.00  0.00    -0.274 OA
ATOM      9  C   UNL     1      -0.924  -5.417   6.637  0.00  0.00    +0.065 C 
ATOM     10  C   UNL     1      -2.354  -5.066   6.333  0.00  0.00    -0.034 C 
ATOM     11  C   UNL     1      -3.242  -5.592   5.501  0.00  0.00    -0.001 A 
ATOM     12  C   UNL     1      -3.171  -6.750   4.595  0.00  0.00    +0.010 A 
ATOM     13  C   UNL     1      -4.286  -7.010   3.863  0.00  0.00    +0.001 A 
ATOM     14  C   UNL     1      -5.453  -6.242   3.941  0.00  0.00    +0.002 A 
ATOM     15  C   UNL     1      -5.608  -5.164   4.749  0.00  0.00    +0.026 A 
ATOM     16  C   UNL     1      -4.504  -4.794   5.571  0.00  0.00    +0.043 A 
ATOM     17  N   UNL     1      -4.383  -3.829   6.431  0.00  0.00    -0.375 N 
ATOM     18  C   UNL     1      -3.047  -3.901   7.037  0.00  0.00    +0.131 C 
ATOM     19  C   UNL     1      -2.233  -2.659   6.710  0.00  0.00    +0.137 C 
ATOM     20  H   UNL     1      -5.063  -3.168   6.639  0.00  0.00    +0.160 HD
ENDROOT
BRANCH  19  21
ATOM     21  C   UNL     1      -2.623  -1.527   7.626  0.00  0.00    +0.021 A 
ATOM     22  C   UNL     1      -2.326  -1.596   8.975  0.00  0.00    +0.009 A 
ATOM     23  C   UNL     1      -2.682  -0.560   9.818  0.00  0.00    +0.004 A 
ATOM     24  C   UNL     1      -3.338   0.549   9.316  0.00  0.00    +0.049 A 
ATOM     25  C   UNL     1      -3.639   0.624   7.966  0.00  0.00    +0.162 A 
ATOM     26  C   UNL     1      -3.275  -0.416   7.116  0.00  0.00    +0.166 A 
BRANCH  26  27
ATOM     27  O   UNL     1      -3.563  -0.345   5.789  0.00  0.00    -0.491 OA
ATOM     28  C   UNL     1      -4.880  -0.732   5.389  0.00  0.00    +0.277 C 
ENDBRANCH  26  27
BRANCH  25  29
ATOM     29  O   UNL     1      -4.285   1.714   7.471  0.00  0.00    -0.491 OA
ATOM     30  C   UNL     1      -4.623   2.745   8.400  0.00  0.00    +0.277 C 
ENDBRANCH  25  29
ENDBRANCH  19  21
BRANCH   1  31
ATOM     31  C   UNL     1       2.919  -2.757   4.928  0.00  0.00    +0.143 C 
BRANCH  31  35
ATOM     32  C   UNL     1       1.511  -0.564   1.542  0.00  0.00    +0.120 A 
ATOM     33  C   UNL     1       2.003   0.110   2.650  0.00  0.00    +0.046 A 
ATOM     34  C   UNL     1       2.458  -0.602   3.743  0.00  0.00    +0.009 A 
ATOM     35  C   UNL     1       2.422  -1.984   3.734  0.00  0.00    -0.030 A 
ATOM     36  C   UNL     1       1.932  -2.657   2.630  0.00  0.00    +0.009 A 
ATOM     37  C   UNL     1       1.471  -1.950   1.537  0.00  0.00    +0.046 A 
BRANCH  32  39
ATOM     38  C   UNL     1       1.134   1.559   0.540  0.00  0.00    +0.277 C 
ATOM     39  O   UNL     1       1.062   0.134   0.465  0.00  0.00    -0.495 OA
ENDBRANCH  32  39
ENDBRANCH  31  35
ENDBRANCH   1  31
TORSDOF 6
