REMARK  Name = ZINC08666426
REMARK  8 active torsions:
REMARK  status: ('A' for Active; 'I' for Inactive)
REMARK    1  A    between atoms: C_4  and  C_7
REMARK    2  A    between atoms: C_7  and  N_58
REMARK    3  A    between atoms: C_8  and  C_9
REMARK    4  A    between atoms: C_8  and  N_58
REMARK    5  A    between atoms: C_16  and  C_18
REMARK    6  A    between atoms: C_16  and  C_23
REMARK    7  A    between atoms: C_16  and  N_58
REMARK    8  A    between atoms: N_27  and  C_28
REMARK                            x       y       z     vdW  Elec       q    Type
REMARK                         _______ _______ _______ _____ _____    ______ ____
ROOT
ATOM      1  N   UNL     1       3.119  -0.514   0.913  0.00  0.00    +0.395 N 
ATOM      2  H   UNL     1       2.793  -0.549   1.886  0.00  0.00    -0.079 HD
ENDROOT
BRANCH   1   3
ATOM      3  C   UNL     1       4.595  -0.420   0.904  0.00  0.00    -0.041 C 
BRANCH   3   7
ATOM      4  C   UNL     1       6.157  -3.117   3.826  0.00  0.00    +0.000 A 
ATOM      5  C   UNL     1       6.453  -3.300   2.488  0.00  0.00    +0.000 A 
ATOM      6  C   UNL     1       5.947  -2.427   1.543  0.00  0.00    +0.002 A 
ATOM      7  C   UNL     1       5.146  -1.372   1.935  0.00  0.00    -0.064 A 
ATOM      8  C   UNL     1       4.854  -1.186   3.273  0.00  0.00    +0.002 A 
ATOM      9  C   UNL     1       5.355  -2.062   4.218  0.00  0.00    +0.000 A 
ENDBRANCH   3   7
ENDBRANCH   1   3
BRANCH   1  10
ATOM     10  C   UNL     1       2.688  -1.746   0.218  0.00  0.00    -0.040 C 
BRANCH  10  11
ATOM     11  C   UNL     1       2.930  -2.923   1.127  0.00  0.00    -0.046 A 
ATOM     12  C   UNL     1       3.795  -3.930   0.739  0.00  0.00    +0.003 A 
ATOM     13  C   UNL     1       4.020  -5.008   1.574  0.00  0.00    +0.000 A 
ATOM     14  C   UNL     1       3.373  -5.085   2.793  0.00  0.00    +0.001 A 
ATOM     15  C   UNL     1       2.504  -4.083   3.180  0.00  0.00    +0.020 A 
ATOM     16  C   UNL     1       2.282  -3.001   2.347  0.00  0.00    +0.042 A 
ATOM     17 CL   UNL     1       1.190  -1.741   2.832  0.00  0.00    -0.083 Cl
ENDBRANCH  10  11
ENDBRANCH   1  10
BRANCH   1  18
ATOM     18  C   UNL     1       2.534   0.671   0.252  0.00  0.00    +0.041 C 
BRANCH  18  19
ATOM     19  C   UNL     1       2.763   0.612  -1.236  0.00  0.00    -0.016 A 
ATOM     20  C   UNL     1       3.299   1.550  -2.055  0.00  0.00    +0.010 A 
ATOM     21  C   UNL     1       3.414   1.275  -3.405  0.00  0.00    +0.008 A 
ATOM     22  C   UNL     1       2.987   0.076  -3.870  0.00  0.00    +0.045 A 
ATOM     23  S   UNL     1       2.405  -0.713  -2.378  0.00  0.00    -0.103 S 
ENDBRANCH  18  19
BRANCH  18  24
ATOM     24  C   UNL     1       1.053   0.700   0.531  0.00  0.00    +0.143 A 
ATOM     25  N   UNL     1       0.221  -0.309   0.447  0.00  0.00    -0.115 NA
ATOM     26  N   UNL     1      -0.954   0.116   0.763  0.00  0.00    -0.023 NA
ATOM     27  N   UNL     1      -0.892   1.370   1.047  0.00  0.00    -0.044 NA
ATOM     28  N   UNL     1       0.329   1.767   0.916  0.00  0.00    -0.227 N 
BRANCH  28  29
ATOM     29  C   UNL     1       0.831   3.124   1.143  0.00  0.00    +0.111 C 
ATOM     30  C   UNL     1       0.519   3.569   2.586  0.00  0.00    +0.027 C 
ATOM     31  C   UNL     1       0.174   5.074   2.453  0.00  0.00    +0.002 C 
ATOM     32  C   UNL     1      -0.613   5.128   1.120  0.00  0.00    +0.002 C 
ATOM     33  C   UNL     1       0.112   4.115   0.211  0.00  0.00    +0.027 C 
ENDBRANCH  28  29
ENDBRANCH  18  24
ENDBRANCH   1  18
TORSDOF 8
