REMARK  Name = ZINC19054487
REMARK  9 active torsions:
REMARK  status: ('A' for Active; 'I' for Inactive)
REMARK    1  A    between atoms: C_1  and  C_2
REMARK    2  A    between atoms: C_3  and  C_30
REMARK    3  A    between atoms: C_9  and  C_12
REMARK    4  A    between atoms: C_12  and  O_14
REMARK    5  A    between atoms: O_14  and  C_15
REMARK    6  A    between atoms: C_15  and  C_16
REMARK    7  A    between atoms: N_18  and  C_19
REMARK    8  A    between atoms: C_19  and  C_20
REMARK    9  A    between atoms: N_22  and  C_23
REMARK                            x       y       z     vdW  Elec       q    Type
REMARK                         _______ _______ _______ _____ _____    ______ ____
ROOT
ATOM      1  C   UNL     1       2.372   1.124  -0.052  0.00  0.00    +0.328 C 
ENDROOT
BRANCH   1   2
ATOM      2  C   UNL     1       3.554   2.059  -0.054  0.00  0.00    +0.251 C 
ATOM      3  O   UNL     1       3.378   3.259  -0.051  0.00  0.00    -0.272 OA
ATOM      4  N   UNL     1       4.806   1.561  -0.058  0.00  0.00    -0.304 N 
ATOM      5  H   UNL     1       4.947   0.601  -0.060  0.00  0.00    +0.149 HD
BRANCH   4   6
ATOM      6  C   UNL     1       5.956   2.470  -0.059  0.00  0.00    +0.200 C 
BRANCH   6   7
ATOM      7  C   UNL     1       7.231   1.666  -0.064  0.00  0.00    +0.234 C 
ATOM      8  O   UNL     1       7.184   0.454  -0.066  0.00  0.00    -0.274 OA
ATOM      9  N   UNL     1       8.423   2.295  -0.066  0.00  0.00    -0.283 N 
ATOM     10  H   UNL     1       8.461   3.262  -0.130  0.00  0.00    +0.155 HD
BRANCH   9  11
ATOM     11  C   UNL     1       9.606   1.552   0.024  0.00  0.00    +0.047 A 
ATOM     12  C   UNL     1       9.690   0.302  -0.575  0.00  0.00    +0.024 A 
ATOM     13  C   UNL     1      10.860  -0.427  -0.487  0.00  0.00    +0.002 A 
ATOM     14  C   UNL     1      11.944   0.083   0.204  0.00  0.00    +0.001 A 
ATOM     15  C   UNL     1      11.863   1.325   0.806  0.00  0.00    +0.017 A 
ATOM     16  C   UNL     1      10.696   2.062   0.718  0.00  0.00    +0.039 A 
ATOM     17 BR   UNL     1      10.585   3.760   1.542  0.00  0.00    -0.048 Br
ENDBRANCH   9  11
ENDBRANCH   6   7
ENDBRANCH   4   6
ENDBRANCH   1   2
BRANCH   1  18
ATOM     18  O   UNL     1       1.143   1.898  -0.048  0.00  0.00    -0.452 OA
BRANCH  18  19
ATOM     19  C   UNL     1      -0.014   1.208  -0.046  0.00  0.00    +0.340 C 
ATOM     20  O   UNL     1       0.003  -0.007  -0.048  0.00  0.00    -0.245 OA
BRANCH  19  29
ATOM     21  C   UNL     1      -5.636   0.082  -0.061  0.00  0.00    +0.046 C 
ATOM     22  C   UNL     1      -5.113   1.496  -0.056  0.00  0.00    -0.022 A 
ATOM     23  C   UNL     1      -5.847   2.619  -0.055  0.00  0.00    +0.017 A 
ATOM     24  N   UNL     1      -5.026   3.714  -0.051  0.00  0.00    -0.358 N 
ATOM     25  H   UNL     1      -5.328   4.636  -0.049  0.00  0.00    +0.166 HD
ATOM     26  C   UNL     1      -3.712   3.315  -0.049  0.00  0.00    +0.047 A 
ATOM     27  C   UNL     1      -3.706   1.906  -0.052  0.00  0.00    +0.004 A 
ATOM     28  C   UNL     1      -2.498   1.214  -0.051  0.00  0.00    +0.025 A 
ATOM     29  C   UNL     1      -1.302   1.927  -0.047  0.00  0.00    +0.060 A 
ATOM     30  C   UNL     1      -1.321   3.330  -0.039  0.00  0.00    +0.017 A 
ATOM     31  C   UNL     1      -2.503   4.009  -0.045  0.00  0.00    +0.027 A 
ATOM     32  C   UNL     1      -7.354   2.668  -0.059  0.00  0.00    +0.063 C 
ENDBRANCH  19  29
ENDBRANCH  18  19
ENDBRANCH   1  18
TORSDOF 7
