REMARK  Name = ZINC39468945
REMARK  2 active torsions:
REMARK  status: ('A' for Active; 'I' for Inactive)
REMARK    1  A    between atoms: C_1  and  S_2
REMARK    2  A    between atoms: S_2  and  C_3
REMARK                            x       y       z     vdW  Elec       q    Type
REMARK                         _______ _______ _______ _____ _____    ______ ____
ROOT
ATOM      1  C   UNL     1      -1.702  -0.454   0.016  0.00  0.00    +0.017 C 
ATOM      2  C   UNL     1      -2.647   0.493   0.024  0.00  0.00    -0.007 C 
ATOM      3  C   UNL     1      -4.103   0.091   0.025  0.00  0.00    +0.017 C 
ATOM      4  C   UNL     1      -4.516  -0.258   1.456  0.00  0.00    -0.003 C 
ATOM      5  C   UNL     1      -5.951  -0.797   1.486  0.00  0.00    -0.020 C 
ATOM      6  C   UNL     1      -6.281  -1.121   2.948  0.00  0.00    +0.159 C 
ATOM      7  O   UNL     1      -7.640  -1.584   3.044  0.00  0.00    -0.297 OA
ATOM      8  P   UNL     1      -8.107  -2.769   2.032  0.00  0.00    +0.421 P 
ATOM      9  O   UNL     1      -9.642  -2.754   1.861  0.00  0.00    -0.239 OA
ATOM     10  N   UNL     1      -7.367  -2.429   0.597  0.00  0.00    -0.267 NA
ATOM     11  N   UNL     1      -6.062  -1.987   0.639  0.00  0.00    +0.399 N 
ATOM     12  C   UNL     1      -5.703  -1.661  -0.751  0.00  0.00    -0.046 C 
ATOM     13  C   UNL     1      -4.273  -1.145  -0.863  0.00  0.00    +0.005 C 
ATOM     14  C   UNL     1      -3.312  -2.216  -0.425  0.00  0.00    -0.009 C 
ATOM     15  C   UNL     1      -2.094  -1.878   0.012  0.00  0.00    +0.023 C 
ATOM     16  I   UNL     1      -0.745  -3.347   0.653  0.00  0.00    -0.043 I 
ATOM     17  O   UNL     1      -7.641  -4.143   2.565  0.00  0.00    -0.128 OA
ATOM     18  H   UNL     1      -7.835  -2.539  -0.246  0.00  0.00    +0.113 HD
ATOM     19  H   UNL     1      -5.463  -2.716   0.996  0.00  0.00    -0.055 HD
ENDROOT
BRANCH   1  21
ATOM     20  C   UNL     1      -0.022   1.810   0.012  0.00  0.00    +0.090 C 
ATOM     21  S   UNL     1       0.002  -0.004   0.002  0.00  0.00    -0.128 S 
ENDBRANCH   1  21
TORSDOF 1
