REMARK  Name = ZINC20929524
REMARK  10 active torsions:
REMARK  status: ('A' for Active; 'I' for Inactive)
REMARK    1  A    between atoms: C_1  and  C_2
REMARK    2  A    between atoms: C_2  and  C_3
REMARK    3  A    between atoms: C_3  and  C_4
REMARK    4  A    between atoms: C_4  and  C_5
REMARK    5  A    between atoms: C_5  and  N_6
REMARK    6  A    between atoms: C_15  and  C_17
REMARK    7  A    between atoms: N_19  and  N_20
REMARK    8  A    between atoms: C_21  and  C_23
REMARK    9  A    between atoms: C_23  and  C_24
REMARK   10  A    between atoms: C_24  and  N_25
REMARK                            x       y       z     vdW  Elec       q    Type
REMARK                         _______ _______ _______ _____ _____    ______ ____
ROOT
ATOM      1  C   UNL     1      -0.279  -1.891   4.496  0.00  0.00    +0.281 C 
ATOM      2  O   UNL     1       0.239  -2.390   5.477  0.00  0.00    -0.267 OA
ATOM      3  N   UNL     1      -1.279  -2.534   3.861  0.00  0.00    -0.229 N 
ATOM      4  H   UNL     1      -1.747  -2.083   2.974  0.00  0.00    +0.173 HD
ENDROOT
BRANCH   1  14
ATOM      5  N   UNL     1      -0.020   1.094   2.454  0.00  0.00    -0.228 N 
ATOM      6  C   UNL     1       0.965   1.859   2.966  0.00  0.00    +0.275 A 
ATOM      7  O   UNL     1       1.256   2.925   2.455  0.00  0.00    -0.266 OA
ATOM      8  C   UNL     1       1.675   1.380   4.160  0.00  0.00    +0.050 A 
ATOM      9  C   UNL     1       2.702   2.095   4.768  0.00  0.00    +0.014 A 
ATOM     10  C   UNL     1       3.322   1.573   5.883  0.00  0.00    +0.001 A 
ATOM     11  C   UNL     1       2.932   0.345   6.401  0.00  0.00    +0.001 A 
ATOM     12  C   UNL     1       1.917  -0.380   5.814  0.00  0.00    +0.011 A 
ATOM     13  C   UNL     1       1.278   0.129   4.688  0.00  0.00    +0.020 A 
ATOM     14  C   UNL     1       0.187  -0.581   4.002  0.00  0.00    +0.155 A 
ATOM     15  N   UNL     1      -0.366  -0.036   2.945  0.00  0.00    -0.163 NA
BRANCH   5  16
ATOM     16  C   UNL     1      -0.729   1.579   1.267  0.00  0.00    +0.147 C 
BRANCH  16  17
ATOM     17  C   UNL     1      -0.013   1.086   0.008  0.00  0.00    +0.023 C 
BRANCH  17  18
ATOM     18  C   UNL     1      -0.753   1.593  -1.232  0.00  0.00    +0.002 C 
BRANCH  18  20
ATOM     19  C   UNL     1      -0.777   1.606  -3.730  0.00  0.00    +0.004 C 
ATOM     20  C   UNL     1      -0.037   1.099  -2.490  0.00  0.00    -0.003 C 
ENDBRANCH  18  20
ENDBRANCH  17  18
ENDBRANCH  16  17
ENDBRANCH   5  16
ENDBRANCH   1  14
BRANCH   3  21
ATOM     21  N   UNL     1      -1.721  -3.778   4.331  0.00  0.00    -0.234 N 
ATOM     22  C   UNL     1      -2.721  -4.421   3.695  0.00  0.00    +0.231 C 
ATOM     23  O   UNL     1      -3.238  -3.924   2.717  0.00  0.00    -0.274 OA
ATOM     24  H   UNL     1      -1.253  -4.229   5.218  0.00  0.00    +0.173 HD
BRANCH  22  25
ATOM     25  C   UNL     1      -3.197  -5.759   4.200  0.00  0.00    +0.116 C 
BRANCH  25  26
ATOM     26  C   UNL     1      -4.331  -6.267   3.307  0.00  0.00    +0.123 C 
BRANCH  26  27
ATOM     27  N   UNL     1      -4.793  -7.568   3.798  0.00  0.00    -0.269 N 
ATOM     28  C   UNL     1      -4.166  -8.696   3.277  0.00  0.00    +0.050 A 
ATOM     29  C   UNL     1      -2.903  -8.575   2.707  0.00  0.00    +0.024 A 
ATOM     30  C   UNL     1      -2.268  -9.683   2.182  0.00  0.00    +0.002 A 
ATOM     31  C   UNL     1      -2.879 -10.923   2.216  0.00  0.00    +0.001 A 
ATOM     32  C   UNL     1      -4.125 -11.059   2.788  0.00  0.00    +0.016 A 
ATOM     33  C   UNL     1      -4.770  -9.952   3.313  0.00  0.00    +0.030 A 
ATOM     34  S   UNL     1      -6.373 -10.113   4.033  0.00  0.00    -0.114 S 
ATOM     35  C   UNL     1      -6.373  -8.801   5.293  0.00  0.00    +0.170 C 
ATOM     36  C   UNL     1      -5.776  -7.556   4.695  0.00  0.00    +0.230 C 
ATOM     37  O   UNL     1      -6.214  -6.483   5.051  0.00  0.00    -0.274 OA
ENDBRANCH  26  27
ENDBRANCH  25  26
ENDBRANCH  22  25
ENDBRANCH   3  21
TORSDOF 9
