REMARK  Name = ZINC40324265
REMARK  6 active torsions:
REMARK  status: ('A' for Active; 'I' for Inactive)
REMARK    1  A    between atoms: C_1  and  C_2
REMARK    2  A    between atoms: C_2  and  C_4
REMARK    3  A    between atoms: C_2  and  N_11
REMARK    4  A    between atoms: N_11  and  S_12
REMARK    5  A    between atoms: S_12  and  C_15
REMARK    6  A    between atoms: C_17  and  N_22
REMARK                            x       y       z     vdW  Elec       q    Type
REMARK                         _______ _______ _______ _____ _____    ______ ____
ROOT
ATOM      1  S   UNL     1       2.288  -0.978   1.069  0.00  0.00    +0.060 S 
ATOM      2  O   UNL     1       3.094   0.057   0.524  0.00  0.00    -0.153 OA
ATOM      3  O   UNL     1       2.534  -1.540   2.351  0.00  0.00    -0.153 OA
ENDROOT
BRANCH   1   4
ATOM      4  C   UNL     1       2.335  -2.311  -0.082  0.00  0.00    +0.125 A 
ATOM      5  C   UNL     1       3.099  -2.208  -1.228  0.00  0.00    +0.052 A 
ATOM      6  C   UNL     1       3.136  -3.259  -2.134  0.00  0.00    +0.026 A 
ATOM      7  C   UNL     1       2.403  -4.413  -1.886  0.00  0.00    +0.024 A 
ATOM      8  C   UNL     1       1.640  -4.511  -0.739  0.00  0.00    +0.024 A 
ATOM      9  C   UNL     1       1.610  -3.464   0.166  0.00  0.00    +0.067 A 
ATOM     10 CL   UNL     1       0.656  -3.594   1.610  0.00  0.00    -0.082 Cl
BRANCH   6  11
ATOM     11  N   UNL     1       3.908  -3.156  -3.295  0.00  0.00    -0.358 N 
ATOM     12  H   UNL     1       4.419  -2.350  -3.467  0.00  0.00    +0.142 HD
ATOM     13  H   UNL     1       3.932  -3.891  -3.927  0.00  0.00    +0.142 HD
ENDBRANCH   6  11
ENDBRANCH   1   4
BRANCH   1  14
ATOM     14  N   UNL     1       0.735  -0.406   1.093  0.00  0.00    -0.183 NA
ATOM     15  H   UNL     1       0.203  -0.478   1.901  0.00  0.00    +0.149 HD
BRANCH  14  17
ATOM     16  C   UNL     1       0.305   1.731  -0.017  0.00  0.00    +0.031 C 
ATOM     17  C   UNL     1       0.162   0.210  -0.107  0.00  0.00    +0.103 C 
BRANCH  17  18
ATOM     18  C   UNL     1      -1.297  -0.152  -0.210  0.00  0.00    -0.029 A 
ATOM     19  C   UNL     1      -2.086  -0.174   0.925  0.00  0.00    +0.006 A 
ATOM     20  C   UNL     1      -3.424  -0.506   0.831  0.00  0.00    +0.015 A 
ATOM     21  C   UNL     1      -3.974  -0.816  -0.400  0.00  0.00    +0.018 A 
ATOM     22  C   UNL     1      -3.185  -0.794  -1.535  0.00  0.00    +0.015 A 
ATOM     23  C   UNL     1      -1.848  -0.457  -1.441  0.00  0.00    +0.006 A 
ATOM     24 BR   UNL     1      -5.805  -1.271  -0.529  0.00  0.00    -0.050 Br
ENDBRANCH  17  18
ENDBRANCH  14  17
ENDBRANCH   1  14
TORSDOF 5
