REMARK  Name = ZINC40008915
REMARK  16 active torsions:
REMARK  status: ('A' for Active; 'I' for Inactive)
REMARK    1  A    between atoms: C_1  and  C_2
REMARK    2  A    between atoms: C_2  and  N_3
REMARK    3  A    between atoms: N_3  and  C_4
REMARK    4  A    between atoms: N_3  and  C_6
REMARK    5  A    between atoms: C_4  and  C_5
REMARK    6  A    between atoms: C_6  and  C_7
REMARK    7  A    between atoms: C_7  and  C_8
REMARK    8  A    between atoms: C_8  and  N_9
REMARK    9  A    between atoms: C_10  and  C_27
REMARK   10  A    between atoms: C_17  and  C_26
REMARK   11  A    between atoms: C_18  and  C_25
REMARK   12  A    between atoms: C_30  and  O_35
REMARK   13  A    between atoms: C_31  and  O_33
REMARK   14  A    between atoms: O_33  and  C_34
REMARK   15  A    between atoms: O_35  and  C_36
REMARK   16  A    between atoms: C_36  and  C_37
REMARK                            x       y       z     vdW  Elec       q    Type
REMARK                         _______ _______ _______ _____ _____    ______ ____
ROOT
ATOM      1  N   UNL     1      -4.288  -4.606   0.107  0.00  0.00    -0.284 N 
ATOM      2  C   UNL     1      -5.243  -4.759   1.217  0.00  0.00    +0.145 C 
ATOM      3  C   UNL     1      -6.497  -5.292   0.604  0.00  0.00    +0.072 A 
ATOM      4  C   UNL     1      -7.786  -5.653   1.202  0.00  0.00    +0.199 A 
ATOM      5  O   UNL     1      -8.084  -5.394   2.354  0.00  0.00    -0.287 OA
ATOM      6  C   UNL     1      -8.695  -6.366   0.269  0.00  0.00    +0.065 A 
ATOM      7  C   UNL     1      -9.872  -6.950   0.737  0.00  0.00    +0.019 A 
ATOM      8  C   UNL     1     -10.696  -7.607  -0.135  0.00  0.00    -0.047 A 
ATOM      9  C   UNL     1     -10.364  -7.694  -1.480  0.00  0.00    -0.044 A 
ATOM     10  C   UNL     1      -9.207  -7.122  -1.959  0.00  0.00    +0.050 A 
ATOM     11  C   UNL     1      -8.351  -6.444  -1.091  0.00  0.00    +0.140 A 
ATOM     12  O   UNL     1      -7.225  -5.881  -1.585  0.00  0.00    -0.450 OA
ATOM     13  C   UNL     1      -6.280  -5.426  -0.738  0.00  0.00    +0.199 A 
ATOM     14  C   UNL     1      -4.903  -4.992  -1.029  0.00  0.00    +0.283 C 
ATOM     15  O   UNL     1      -4.394  -4.986  -2.133  0.00  0.00    -0.267 OA
ATOM     16  C   UNL     1     -11.281  -8.423  -2.427  0.00  0.00    +0.044 C 
ATOM     17  C   UNL     1     -11.969  -8.239   0.367  0.00  0.00    +0.044 C 
ENDROOT
BRANCH   2  18
ATOM     18  C   UNL     1      -4.706  -5.732   2.234  0.00  0.00    -0.019 A 
ATOM     19  C   UNL     1      -4.042  -6.870   1.817  0.00  0.00    +0.009 A 
ATOM     20  C   UNL     1      -3.547  -7.766   2.747  0.00  0.00    +0.050 A 
ATOM     21  C   UNL     1      -3.716  -7.523   4.100  0.00  0.00    +0.162 A 
ATOM     22  C   UNL     1      -4.384  -6.377   4.521  0.00  0.00    +0.162 A 
ATOM     23  C   UNL     1      -4.873  -5.481   3.584  0.00  0.00    +0.055 A 
BRANCH  22  24
ATOM     24  O   UNL     1      -4.552  -6.135   5.848  0.00  0.00    -0.491 OA
ATOM     25  C   UNL     1      -5.248  -4.939   6.206  0.00  0.00    +0.277 C 
ENDBRANCH  22  24
BRANCH  21  26
ATOM     26  O   UNL     1      -3.230  -8.403   5.016  0.00  0.00    -0.489 OA
BRANCH  26  27
ATOM     27  C   UNL     1      -2.555  -9.558   4.512  0.00  0.00    +0.226 C 
ATOM     28  C   UNL     1      -2.083 -10.424   5.682  0.00  0.00    +0.048 C 
ENDBRANCH  26  27
ENDBRANCH  21  26
ENDBRANCH   2  18
BRANCH   1  29
ATOM     29  C   UNL     1      -2.913  -4.113   0.217  0.00  0.00    +0.107 C 
BRANCH  29  30
ATOM     30  C   UNL     1      -2.901  -2.592   0.048  0.00  0.00    +0.000 C 
BRANCH  30  31
ATOM     31  C   UNL     1      -1.464  -2.078   0.163  0.00  0.00    -0.077 C 
BRANCH  31  32
ATOM     32  N   UNL     1      -1.438  -0.634  -0.108  0.00  0.00    +0.379 N 
ATOM     33  H   UNL     1      -1.863  -0.453  -1.004  0.00  0.00    -0.082 HD
BRANCH  32  35
ATOM     34  C   UNL     1      -2.263   1.562   0.594  0.00  0.00    -0.017 C 
ATOM     35  C   UNL     1      -2.184   0.074   0.941  0.00  0.00    -0.082 C 
ENDBRANCH  32  35
BRANCH  32  36
ATOM     36  C   UNL     1      -0.046  -0.164  -0.121  0.00  0.00    -0.082 C 
ATOM     37  C   UNL     1       0.689  -0.780  -1.313  0.00  0.00    -0.017 C 
ENDBRANCH  32  36
ENDBRANCH  31  32
ENDBRANCH  30  31
ENDBRANCH  29  30
ENDBRANCH   1  29
TORSDOF 10
