REMARK  Name = ZINC09727139
REMARK  5 active torsions:
REMARK  status: ('A' for Active; 'I' for Inactive)
REMARK    1  A    between atoms: C_4  and  C_7
REMARK    2  A    between atoms: N_14  and  C_17
REMARK    3  A    between atoms: C_17  and  C_18
REMARK    4  A    between atoms: N_20  and  C_21
REMARK    5  A    between atoms: C_21  and  C_22
REMARK                            x       y       z     vdW  Elec       q    Type
REMARK                         _______ _______ _______ _____ _____    ______ ____
ROOT
ATOM      1  C   UNL     1      -2.742  -8.701   1.344  0.00  0.00    +0.004 A 
ATOM      2  C   UNL     1      -2.600 -10.041   1.489  0.00  0.00    +0.056 A 
ATOM      3  S   UNL     1      -1.418 -10.470   0.225  0.00  0.00    -0.076 S 
ATOM      4  C   UNL     1      -1.145  -8.857  -0.462  0.00  0.00    +0.116 A 
ATOM      5  C   UNL     1      -1.976  -8.023   0.304  0.00  0.00    +0.080 A 
ATOM      6  C   UNL     1      -1.952  -6.635  -0.043  0.00  0.00    +0.263 A 
ATOM      7  O   UNL     1      -2.640  -5.833   0.565  0.00  0.00    -0.267 OA
ATOM      8  N   UNL     1      -1.159  -6.229  -1.051  0.00  0.00    -0.290 N 
ATOM      9  C   UNL     1      -0.390  -7.109  -1.743  0.00  0.00    +0.203 A 
ATOM     10  N   UNL     1      -0.387  -8.380  -1.446  0.00  0.00    -0.230 NA
ENDROOT
BRANCH   1  14
ATOM     11  C   UNL     1      -5.372  -6.517   3.871  0.00  0.00    +0.000 A 
ATOM     12  C   UNL     1      -5.820  -7.660   3.233  0.00  0.00    +0.001 A 
ATOM     13  C   UNL     1      -4.971  -8.373   2.411  0.00  0.00    +0.008 A 
ATOM     14  C   UNL     1      -3.659  -7.939   2.225  0.00  0.00    -0.017 A 
ATOM     15  C   UNL     1      -3.211  -6.790   2.874  0.00  0.00    +0.008 A 
ATOM     16  C   UNL     1      -4.071  -6.082   3.689  0.00  0.00    +0.001 A 
ENDBRANCH   1  14
BRANCH   8  17
ATOM     17  C   UNL     1      -1.128  -4.809  -1.414  0.00  0.00    +0.221 C 
BRANCH  17  18
ATOM     18  C   UNL     1      -0.056  -4.111  -0.617  0.00  0.00    +0.233 C 
ATOM     19  O   UNL     1       0.616  -4.737   0.175  0.00  0.00    -0.274 OA
ATOM     20  N   UNL     1       0.155  -2.790  -0.785  0.00  0.00    -0.310 N 
ATOM     21  H   UNL     1      -0.382  -2.290  -1.419  0.00  0.00    +0.149 HD
BRANCH  20  22
ATOM     22  C   UNL     1       1.197  -2.111  -0.011  0.00  0.00    +0.152 C 
BRANCH  22  23
ATOM     23  C   UNL     1       1.229  -0.629  -0.390  0.00  0.00    +0.228 C 
ATOM     24  C   UNL     1       2.381   0.069   0.348  0.00  0.00    +0.275 C 
ATOM     25  O   UNL     1       2.373   1.453  -0.018  0.00  0.00    -0.485 OA
ATOM     26  C   UNL     1       1.168   2.084   0.002  0.00  0.00    +0.162 A 
ATOM     27  C   UNL     1       1.126   3.471   0.014  0.00  0.00    +0.049 A 
ATOM     28  C   UNL     1      -0.091   4.126   0.030  0.00  0.00    +0.004 A 
ATOM     29  C   UNL     1      -1.269   3.403   0.034  0.00  0.00    +0.004 A 
ATOM     30  C   UNL     1      -1.234   2.021   0.030  0.00  0.00    +0.049 A 
ATOM     31  C   UNL     1      -0.016   1.357   0.009  0.00  0.00    +0.163 A 
ATOM     32  O   UNL     1       0.002  -0.004   0.002  0.00  0.00    -0.480 OA
ENDBRANCH  22  23
ENDBRANCH  20  22
ENDBRANCH  17  18
ENDBRANCH   8  17
TORSDOF 5
