REMARK  Name = ZINC39914428
REMARK  15 active torsions:
REMARK  status: ('A' for Active; 'I' for Inactive)
REMARK    1  A    between atoms: C_1  and  C_2
REMARK    2  A    between atoms: C_2  and  C_3
REMARK    3  A    between atoms: C_3  and  C_4
REMARK    4  A    between atoms: C_4  and  C_5
REMARK    5  A    between atoms: C_5  and  N_6
REMARK    6  A    between atoms: C_7  and  C_26
REMARK    7  A    between atoms: C_10  and  C_17
REMARK    8  A    between atoms: C_20  and  C_24
REMARK    9  A    between atoms: C_22  and  O_23
REMARK   10  A    between atoms: C_28  and  O_36
REMARK   11  A    between atoms: C_29  and  O_34
REMARK   12  A    between atoms: C_30  and  O_32
REMARK   13  A    between atoms: O_32  and  C_33
REMARK   14  A    between atoms: O_34  and  C_35
REMARK   15  A    between atoms: O_36  and  C_37
REMARK                            x       y       z     vdW  Elec       q    Type
REMARK                         _______ _______ _______ _____ _____    ______ ____
ROOT
ATOM      1  N   UNL     1       1.338  -4.103  -2.621  0.00  0.00    -0.285 N 
ATOM      2  C   UNL     1       2.511  -4.729  -1.995  0.00  0.00    +0.141 C 
ATOM      3  C   UNL     1       2.249  -6.210  -2.008  0.00  0.00    +0.035 A 
ATOM      4  C   UNL     1       2.706  -7.492  -1.683  0.00  0.00    +0.102 A 
ATOM      5  N   UNL     1       1.783  -8.350  -2.070  0.00  0.00    -0.173 NA
ATOM      6  N   UNL     1       0.788  -7.737  -2.607  0.00  0.00    -0.272 N 
ATOM      7  H   UNL     1      -0.005  -8.168  -2.963  0.00  0.00    +0.189 HD
ATOM      8  C   UNL     1       1.014  -6.390  -2.602  0.00  0.00    +0.126 A 
ATOM      9  C   UNL     1       0.474  -5.075  -2.963  0.00  0.00    +0.265 C 
ATOM     10  O   UNL     1      -0.602  -4.890  -3.500  0.00  0.00    -0.268 OA
ENDROOT
BRANCH   4  11
ATOM     11  C   UNL     1       3.994  -7.824  -1.024  0.00  0.00    +0.045 A 
ATOM     12  C   UNL     1       4.819  -6.808  -0.549  0.00  0.00    +0.034 A 
ATOM     13  C   UNL     1       6.016  -7.122   0.064  0.00  0.00    +0.045 A 
ATOM     14  C   UNL     1       6.399  -8.445   0.207  0.00  0.00    -0.029 A 
ATOM     15  C   UNL     1       5.587  -9.460  -0.262  0.00  0.00    +0.050 A 
ATOM     16  C   UNL     1       4.381  -9.158  -0.873  0.00  0.00    +0.126 A 
ATOM     17  C   UNL     1       7.707  -8.779   0.876  0.00  0.00    +0.045 C 
ATOM     18 CL   UNL     1       7.044  -5.855   0.656  0.00  0.00    -0.083 Cl
BRANCH  16  19
ATOM     19  O   UNL     1       3.579 -10.156  -1.329  0.00  0.00    -0.506 OA
ATOM     20  H   UNL     1       3.755 -10.415  -2.244  0.00  0.00    +0.292 HD
ENDBRANCH  16  19
ENDBRANCH   4  11
BRANCH   2  21
ATOM     21  C   UNL     1       3.752  -4.413  -2.789  0.00  0.00    -0.015 A 
ATOM     22  C   UNL     1       4.843  -3.840  -2.162  0.00  0.00    +0.055 A 
ATOM     23  C   UNL     1       5.988  -3.548  -2.889  0.00  0.00    +0.165 A 
ATOM     24  C   UNL     1       6.037  -3.832  -4.248  0.00  0.00    +0.204 A 
ATOM     25  C   UNL     1       4.938  -4.409  -4.874  0.00  0.00    +0.165 A 
ATOM     26  C   UNL     1       3.799  -4.703  -4.139  0.00  0.00    +0.055 A 
BRANCH  25  27
ATOM     27  O   UNL     1       4.981  -4.689  -6.204  0.00  0.00    -0.491 OA
ATOM     28  C   UNL     1       3.779  -5.176  -6.804  0.00  0.00    +0.277 C 
ENDBRANCH  25  27
BRANCH  24  29
ATOM     29  O   UNL     1       7.158  -3.546  -4.965  0.00  0.00    -0.488 OA
ATOM     30  C   UNL     1       8.153  -4.569  -5.048  0.00  0.00    +0.277 C 
ENDBRANCH  24  29
BRANCH  23  31
ATOM     31  O   UNL     1       7.060  -2.983  -2.272  0.00  0.00    -0.491 OA
ATOM     32  C   UNL     1       6.939  -2.719  -0.873  0.00  0.00    +0.277 C 
ENDBRANCH  23  31
ENDBRANCH   2  21
BRANCH   1  33
ATOM     33  C   UNL     1       1.142  -2.666  -2.830  0.00  0.00    +0.109 C 
BRANCH  33  34
ATOM     34  C   UNL     1       0.445  -2.064  -1.608  0.00  0.00    +0.019 C 
BRANCH  34  35
ATOM     35  C   UNL     1       0.239  -0.564  -1.826  0.00  0.00    +0.001 C 
BRANCH  35  37
ATOM     36  C   UNL     1      -0.664   1.539  -0.823  0.00  0.00    +0.004 C 
ATOM     37  C   UNL     1      -0.458   0.039  -0.605  0.00  0.00    -0.003 C 
ENDBRANCH  35  37
ENDBRANCH  34  35
ENDBRANCH  33  34
ENDBRANCH   1  33
TORSDOF 10
