REMARK  Name = ZINC25677499
REMARK  10 active torsions:
REMARK  status: ('A' for Active; 'I' for Inactive)
REMARK    1  A    between atoms: C_1  and  C_2
REMARK    2  A    between atoms: C_5  and  S_9
REMARK    3  A    between atoms: C_6  and  C_8
REMARK    4  A    between atoms: S_9  and  N_12
REMARK    5  A    between atoms: N_15  and  C_18
REMARK    6  A    between atoms: C_18  and  C_19
REMARK    7  A    between atoms: N_21  and  C_22
REMARK    8  A    between atoms: C_26  and  C_27
REMARK    9  A    between atoms: C_27  and  O_29
REMARK   10  A    between atoms: O_29  and  C_30
REMARK                            x       y       z     vdW  Elec       q    Type
REMARK                         _______ _______ _______ _____ _____    ______ ____
ROOT
ATOM      1  N   UNL     1       4.437  -0.676   0.572  0.00  0.00    -0.180 NA
ATOM      2  C   UNL     1       4.499   0.290  -0.535  0.00  0.00    +0.091 C 
ATOM      3  C   UNL     1       3.381   1.321  -0.345  0.00  0.00    -0.061 C 
ATOM      4  N   UNL     1       2.096   0.624  -0.200  0.00  0.00    +0.387 N 
ATOM      5  C   UNL     1       2.080  -0.222   1.001  0.00  0.00    -0.061 C 
ATOM      6  C   UNL     1       3.145  -1.315   0.866  0.00  0.00    +0.091 C 
ATOM      7  H   UNL     1       1.972  -0.034  -1.073  0.00  0.00    -0.081 HD
ENDROOT
BRANCH   1   8
ATOM      8  S   UNL     1       5.785  -1.034   1.464  0.00  0.00    +0.061 S 
ATOM      9  O   UNL     1       5.615  -2.362   1.941  0.00  0.00    -0.153 OA
ATOM     10  O   UNL     1       6.905  -0.644   0.682  0.00  0.00    -0.153 OA
BRANCH   8  15
ATOM     11  C   UNL     1       5.729   2.561   6.309  0.00  0.00    +0.044 C 
ATOM     12  C   UNL     1       5.742   1.663   5.099  0.00  0.00    -0.050 A 
ATOM     13  C   UNL     1       5.556   0.301   5.247  0.00  0.00    +0.005 A 
ATOM     14  C   UNL     1       5.568  -0.523   4.137  0.00  0.00    +0.029 A 
ATOM     15  C   UNL     1       5.768   0.015   2.879  0.00  0.00    +0.108 A 
ATOM     16  C   UNL     1       5.960   1.376   2.732  0.00  0.00    -0.024 A 
ATOM     17  C   UNL     1       5.942   2.201   3.842  0.00  0.00    +0.008 A 
ATOM     18  C   UNL     1       6.184   1.962   1.362  0.00  0.00    +0.046 C 
ENDBRANCH   8  15
ENDBRANCH   1   8
BRANCH   4  19
ATOM     19  C   UNL     1       0.978   1.577  -0.188  0.00  0.00    +0.019 C 
BRANCH  19  20
ATOM     20  C   UNL     1      -0.324   0.825  -0.286  0.00  0.00    +0.201 C 
ATOM     21  O   UNL     1      -0.322  -0.386  -0.359  0.00  0.00    -0.278 OA
ATOM     22  N   UNL     1      -1.492   1.498  -0.299  0.00  0.00    -0.286 N 
ATOM     23  H   UNL     1      -1.501   2.586  -0.135  0.00  0.00    +0.155 HD
BRANCH  22  24
ATOM     24  C   UNL     1      -2.688   0.815  -0.519  0.00  0.00    +0.055 A 
ATOM     25  C   UNL     1      -2.720  -0.391  -1.187  0.00  0.00    +0.032 A 
ATOM     26  C   UNL     1      -3.911  -1.013  -1.375  0.00  0.00    +0.048 A 
ATOM     27  S   UNL     1      -5.048   0.060  -0.625  0.00  0.00    -0.088 S 
ATOM     28  C   UNL     1      -3.910   1.316  -0.070  0.00  0.00    +0.117 A 
BRANCH  28  29
ATOM     29  C   UNL     1      -4.177   2.511   0.640  0.00  0.00    +0.347 C 
ATOM     30  O   UNL     1      -3.264   3.259   0.937  0.00  0.00    -0.244 OA
BRANCH  29  31
ATOM     31  O   UNL     1      -5.444   2.820   0.988  0.00  0.00    -0.464 OA
ATOM     32  C   UNL     1      -5.641   4.042   1.703  0.00  0.00    +0.280 C 
ENDBRANCH  29  31
ENDBRANCH  28  29
ENDBRANCH  22  24
ENDBRANCH  19  20
ENDBRANCH   4  19
TORSDOF 7
