REMARK  Name = ZINC39737810
REMARK  9 active torsions:
REMARK  status: ('A' for Active; 'I' for Inactive)
REMARK    1  A    between atoms: C_1  and  C_2
REMARK    2  A    between atoms: C_2  and  C_3
REMARK    3  A    between atoms: N_9  and  S_10
REMARK    4  A    between atoms: S_10  and  C_13
REMARK    5  A    between atoms: C_16  and  C_19
REMARK    6  A    between atoms: N_21  and  C_22
REMARK    7  A    between atoms: C_23  and  C_29
REMARK    8  A    between atoms: C_24  and  C_28
REMARK    9  A    between atoms: C_25  and  C_27
REMARK                            x       y       z     vdW  Elec       q    Type
REMARK                         _______ _______ _______ _____ _____    ______ ____
ROOT
ATOM      1  C   UNL     1      -1.771   2.701   1.851  0.00  0.00    +0.106 A 
ATOM      2  C   UNL     1      -0.944   3.438   1.021  0.00  0.00    +0.029 A 
ATOM      3  C   UNL     1      -1.269   4.739   0.697  0.00  0.00    +0.015 A 
ATOM      4  C   UNL     1      -2.436   5.312   1.208  0.00  0.00    +0.037 A 
ATOM      5  C   UNL     1      -3.265   4.563   2.045  0.00  0.00    +0.015 A 
ATOM      6  C   UNL     1      -2.931   3.261   2.356  0.00  0.00    +0.029 A 
ENDROOT
BRANCH   4   7
ATOM      7  C   UNL     1      -2.790   6.705   0.866  0.00  0.00    +0.249 C 
ATOM      8  O   UNL     1      -2.065   7.355   0.138  0.00  0.00    -0.270 OA
ATOM      9  N   UNL     1      -3.917   7.255   1.361  0.00  0.00    -0.275 N 
ATOM     10  H   UNL     1      -4.495   6.736   1.942  0.00  0.00    +0.156 HD
BRANCH   9  11
ATOM     11  C   UNL     1      -4.249   8.561   1.040  0.00  0.00    +0.085 A 
ATOM     12  C   UNL     1      -5.355   9.287   1.457  0.00  0.00    +0.068 A 
ATOM     13  C   UNL     1      -5.460  10.643   0.969  0.00  0.00    -0.027 A 
ATOM     14  C   UNL     1      -4.467  11.053   0.158  0.00  0.00    -0.008 A 
ATOM     15  S   UNL     1      -3.402   9.631   0.063  0.00  0.00    -0.078 S 
ATOM     16  C   UNL     1      -4.294  12.396  -0.504  0.00  0.00    +0.052 C 
ATOM     17  C   UNL     1      -6.610  11.542   1.343  0.00  0.00    +0.045 C 
BRANCH  12  18
ATOM     18  C   UNL     1      -6.366   8.708   2.347  0.00  0.00    +0.244 C 
ATOM     19  O   UNL     1      -6.245   8.811   3.554  0.00  0.00    -0.270 OA
ATOM     20  N   UNL     1      -7.429   8.062   1.829  0.00  0.00    -0.325 N 
ATOM     21  H   UNL     1      -7.526   7.980   0.868  0.00  0.00    +0.145 HD
ATOM     22  H   UNL     1      -8.098   7.679   2.418  0.00  0.00    +0.145 HD
ENDBRANCH  12  18
ENDBRANCH   9  11
ENDBRANCH   4   7
BRANCH   1  23
ATOM     23  S   UNL     1      -1.347   1.041   2.260  0.00  0.00    +0.061 S 
ATOM     24  O   UNL     1      -1.861   0.800   3.563  0.00  0.00    -0.153 OA
ATOM     25  O   UNL     1       0.028   0.882   1.942  0.00  0.00    -0.153 OA
BRANCH  23  31
ATOM     26  C   UNL     1      -1.704  -0.192  -0.134  0.00  0.00    +0.080 C 
ATOM     27  C   UNL     1      -1.607  -1.704  -0.362  0.00  0.00    +0.021 C 
ATOM     28  C   UNL     1      -2.958  -2.350  -0.050  0.00  0.00    +0.003 C 
ATOM     29  C   UNL     1      -3.316  -2.105   1.418  0.00  0.00    +0.017 C 
ATOM     30  C   UNL     1      -3.432  -0.598   1.666  0.00  0.00    +0.110 C 
ATOM     31  N   UNL     1      -2.189   0.053   1.231  0.00  0.00    -0.174 NA
BRANCH  26  33
ATOM     32  C   UNL     1       0.125   0.296  -1.766  0.00  0.00    +0.005 C 
ATOM     33  C   UNL     1      -0.323   0.443  -0.310  0.00  0.00    +0.017 C 
ENDBRANCH  26  33
ENDBRANCH  23  31
ENDBRANCH   1  23
TORSDOF 6
