REMARK  Name = ZINC32602782
REMARK  10 active torsions:
REMARK  status: ('A' for Active; 'I' for Inactive)
REMARK    1  A    between atoms: C_1  and  C_2
REMARK    2  A    between atoms: C_2  and  C_4
REMARK    3  A    between atoms: C_2  and  N_15
REMARK    4  A    between atoms: C_16  and  C_18
REMARK    5  A    between atoms: C_18  and  C_20
REMARK    6  A    between atoms: C_18  and  N_31
REMARK    7  A    between atoms: C_20  and  C_21
REMARK    8  A    between atoms: C_32  and  O_34
REMARK    9  A    between atoms: O_34  and  C_35
REMARK   10  A    between atoms: C_35  and  C_36
REMARK                            x       y       z     vdW  Elec       q    Type
REMARK                         _______ _______ _______ _____ _____    ______ ____
ROOT
ATOM      1  C   UNL     1       1.200   7.715   1.304  0.00  0.00    +0.166 C 
ENDROOT
BRANCH   1   3
ATOM      2  N   UNL     1       1.279   5.425   0.375  0.00  0.00    -0.302 N 
ATOM      3  C   UNL     1       0.548   6.408   0.936  0.00  0.00    +0.234 C 
ATOM      4  O   UNL     1      -0.635   6.240   1.146  0.00  0.00    -0.274 OA
ATOM      5  H   UNL     1       2.351   5.577   0.185  0.00  0.00    +0.150 HD
BRANCH   2   7
ATOM      6  C   UNL     1       0.009   4.273  -1.369  0.00  0.00    +0.038 C 
ATOM      7  C   UNL     1       0.644   4.153   0.017  0.00  0.00    +0.160 C 
BRANCH   7   8
ATOM      8  C   UNL     1       1.682   3.061   0.002  0.00  0.00    +0.269 C 
ATOM      9  O   UNL     1       2.857   3.344  -0.008  0.00  0.00    -0.269 OA
ATOM     10  N   UNL     1       1.300   1.768  -0.001  0.00  0.00    -0.178 N 
ATOM     11  C   UNL     1       2.127   0.662  -0.015  0.00  0.00    +0.098 A 
ATOM     12  C   UNL     1       3.505   0.488  -0.029  0.00  0.00    +0.030 A 
ATOM     13  C   UNL     1       4.032  -0.785  -0.041  0.00  0.00    +0.002 A 
ATOM     14  C   UNL     1       3.195  -1.892  -0.038  0.00  0.00    +0.002 A 
ATOM     15  C   UNL     1       1.839  -1.741  -0.024  0.00  0.00    +0.032 A 
ATOM     16  C   UNL     1       1.279  -0.457  -0.013  0.00  0.00    +0.113 A 
ATOM     17  N   UNL     1       0.002  -0.004   0.002  0.00  0.00    -0.129 NA
ATOM     18  N   UNL     1      -0.015   1.282   0.009  0.00  0.00    -0.057 NA
ENDBRANCH   7   8
ENDBRANCH   2   7
ENDBRANCH   1   3
BRANCH   1  19
ATOM     19  N   UNL     1       0.202   8.611   1.893  0.00  0.00    -0.269 N 
ATOM     20  C   UNL     1       0.587   9.590   2.736  0.00  0.00    +0.401 C 
ATOM     21  O   UNL     1       1.764   9.729   3.007  0.00  0.00    -0.226 OA
ATOM     22  H   UNL     1      -0.863   8.484   1.648  0.00  0.00    +0.153 HD
BRANCH  20  23
ATOM     23  O   UNL     1      -0.330  10.412   3.277  0.00  0.00    -0.446 OA
BRANCH  23  24
ATOM     24  C   UNL     1       0.157  11.444   4.176  0.00  0.00    +0.269 C 
BRANCH  24  25
ATOM     25  C   UNL     1      -1.004  12.261   4.680  0.00  0.00    -0.010 A 
ATOM     26  C   UNL     1      -1.409  13.387   3.988  0.00  0.00    +0.007 A 
ATOM     27  C   UNL     1      -2.478  14.134   4.448  0.00  0.00    +0.000 A 
ATOM     28  C   UNL     1      -3.135  13.760   5.605  0.00  0.00    +0.000 A 
ATOM     29  C   UNL     1      -2.727  12.637   6.300  0.00  0.00    +0.000 A 
ATOM     30  C   UNL     1      -1.661  11.887   5.837  0.00  0.00    +0.007 A 
ENDBRANCH  24  25
ENDBRANCH  23  24
ENDBRANCH  20  23
ENDBRANCH   1  19
BRANCH   1  31
ATOM     31  C   UNL     1       1.788   8.363   0.049  0.00  0.00    +0.069 C 
BRANCH  31  32
ATOM     32  C   UNL     1       2.546   9.607   0.433  0.00  0.00    -0.020 A 
ATOM     33  C   UNL     1       2.075  10.864   0.422  0.00  0.00    +0.087 A 
ATOM     34  N   UNL     1       3.049  11.731   0.837  0.00  0.00    -0.360 N 
ATOM     35  H   UNL     1       2.838  12.809   0.896  0.00  0.00    +0.165 HD
ATOM     36  C   UNL     1       4.203  11.037   1.125  0.00  0.00    +0.047 A 
ATOM     37  C   UNL     1       3.938   9.676   0.885  0.00  0.00    +0.003 A 
ATOM     38  C   UNL     1       4.938   8.724   1.095  0.00  0.00    +0.010 A 
ATOM     39  C   UNL     1       6.170   9.120   1.533  0.00  0.00    +0.001 A 
ATOM     40  C   UNL     1       6.436  10.461   1.771  0.00  0.00    +0.002 A 
ATOM     41  C   UNL     1       5.464  11.417   1.570  0.00  0.00    +0.026 A 
ENDBRANCH  31  32
ENDBRANCH   1  31
TORSDOF 9
