REMARK  Name = ZINC39462535
REMARK  10 active torsions:
REMARK  status: ('A' for Active; 'I' for Inactive)
REMARK    1  A    between atoms: C_1  and  C_2
REMARK    2  A    between atoms: C_4  and  C_17
REMARK    3  A    between atoms: C_7  and  C_16
REMARK    4  A    between atoms: N_8  and  C_9
REMARK    5  A    between atoms: C_9  and  C_10
REMARK    6  A    between atoms: C_17  and  O_19
REMARK    7  A    between atoms: O_19  and  C_20
REMARK    8  A    between atoms: C_20  and  C_22
REMARK    9  A    between atoms: C_20  and  C_23
REMARK   10  A    between atoms: N_25  and  C_26
REMARK                            x       y       z     vdW  Elec       q    Type
REMARK                         _______ _______ _______ _____ _____    ______ ____
ROOT
ATOM      1  C   UNL     1      -2.463   0.451  -0.248  0.00  0.00    +0.313 C 
ATOM      2  O   UNL     1      -2.840   1.292   0.534  0.00  0.00    -0.250 OA
ENDROOT
BRANCH   1   5
ATOM      3  C   UNL     1       0.036   1.417  -0.383  0.00  0.00    +0.031 C 
ATOM      4  C   UNL     1      -0.006  -0.103  -0.216  0.00  0.00    +0.093 C 
ATOM      5  C   UNL     1      -1.430  -0.562   0.175  0.00  0.00    +0.125 C 
ATOM      6  C   UNL     1      -1.303  -0.621   1.717  0.00  0.00    +0.065 C 
ATOM      7  C   UNL     1       0.181  -0.798   1.949  0.00  0.00    -0.010 C 
ATOM      8  N   UNL     1       0.851  -0.517   0.901  0.00  0.00    -0.370 N 
ATOM      9  C   UNL     1       0.791  -1.248   3.252  0.00  0.00    +0.058 C 
BRANCH   8  10
ATOM     10  C   UNL     1       2.311  -0.598   0.820  0.00  0.00    +0.151 C 
BRANCH  10  11
ATOM     11  C   UNL     1       2.701  -1.669  -0.166  0.00  0.00    -0.028 A 
ATOM     12  C   UNL     1       2.878  -2.971   0.264  0.00  0.00    +0.005 A 
ATOM     13  C   UNL     1       3.235  -3.955  -0.640  0.00  0.00    +0.000 A 
ATOM     14  C   UNL     1       3.415  -3.636  -1.973  0.00  0.00    +0.000 A 
ATOM     15  C   UNL     1       3.236  -2.334  -2.402  0.00  0.00    +0.000 A 
ATOM     16  C   UNL     1       2.875  -1.352  -1.500  0.00  0.00    +0.005 A 
ENDBRANCH  10  11
ENDBRANCH   8  10
ENDBRANCH   1   5
BRANCH   1  17
ATOM     17  O   UNL     1      -2.964   0.419  -1.492  0.00  0.00    -0.452 OA
BRANCH  17  18
ATOM     18  C   UNL     1      -3.940   1.409  -1.825  0.00  0.00    +0.263 C 
ATOM     19  C   UNL     1      -3.238   2.646  -2.389  0.00  0.00    +0.062 C 
BRANCH  18  20
ATOM     20  C   UNL     1      -4.887   0.854  -2.857  0.00  0.00    +0.288 C 
ATOM     21  O   UNL     1      -4.489  -0.136  -3.669  0.00  0.00    -0.267 OA
ATOM     22  N   UNL     1      -6.102   1.340  -2.961  0.00  0.00    -0.192 NA
BRANCH  22  23
ATOM     23  C   UNL     1      -6.942   0.848  -3.877  0.00  0.00    +0.166 C 
ATOM     24  N   UNL     1      -6.577  -0.134  -4.688  0.00  0.00    -0.218 NA
ATOM     25  C   UNL     1      -7.315  -0.579  -5.695  0.00  0.00    +0.225 C 
ATOM     26  N   UNL     1      -8.403   0.051  -6.123  0.00  0.00    -0.218 NA
ATOM     27  C   UNL     1      -8.717   1.175  -5.488  0.00  0.00    +0.164 C 
ATOM     28  N   UNL     1      -9.280   2.292  -5.845  0.00  0.00    -0.219 NA
ATOM     29  C   UNL     1      -9.039   3.264  -4.956  0.00  0.00    +0.218 C 
ATOM     30  N   UNL     1      -8.455   2.834  -3.871  0.00  0.00    -0.253 NA
ATOM     31  C   UNL     1      -8.340   1.384  -4.021  0.00  0.00    +0.242 C 
ENDBRANCH  22  23
ENDBRANCH  18  20
ENDBRANCH  17  18
ENDBRANCH   1  17
TORSDOF 7
