REMARK  Name = ZINC21777249
REMARK  6 active torsions:
REMARK  status: ('A' for Active; 'I' for Inactive)
REMARK    1  A    between atoms: C_4  and  C_7
REMARK    2  A    between atoms: C_10  and  C_12
REMARK    3  A    between atoms: C_12  and  C_14
REMARK    4  A    between atoms: C_12  and  N_21
REMARK    5  A    between atoms: N_21  and  C_22
REMARK    6  A    between atoms: C_22  and  C_23
REMARK                            x       y       z     vdW  Elec       q    Type
REMARK                         _______ _______ _______ _____ _____    ______ ____
ROOT
ATOM      1  C   UNL     1       1.239  -4.137  -1.456  0.00  0.00    +0.049 C 
ENDROOT
BRANCH   1   2
ATOM      2  C   UNL     1       2.662  -4.625  -1.361  0.00  0.00    -0.052 A 
ATOM      3  C   UNL     1       3.667  -3.959  -2.037  0.00  0.00    +0.003 A 
ATOM      4  C   UNL     1       4.973  -4.404  -1.947  0.00  0.00    +0.015 A 
ATOM      5  C   UNL     1       5.272  -5.521  -1.188  0.00  0.00    +0.018 A 
ATOM      6  C   UNL     1       4.265  -6.189  -0.516  0.00  0.00    +0.015 A 
ATOM      7  C   UNL     1       2.960  -5.741  -0.602  0.00  0.00    +0.003 A 
ATOM      8 BR   UNL     1       7.057  -6.133  -1.069  0.00  0.00    -0.050 Br
ENDBRANCH   1   2
BRANCH   1  12
ATOM      9  C   UNL     1      -0.528  -5.679  -4.218  0.00  0.00    +0.248 A 
ATOM     10  N   UNL     1       0.188  -4.757  -4.817  0.00  0.00    -0.107 NA
ATOM     11  N   UNL     1       0.879  -4.119  -3.938  0.00  0.00    -0.113 NA
ATOM     12  C   UNL     1       0.633  -4.605  -2.753  0.00  0.00    +0.208 A 
ATOM     13  O   UNL     1      -0.255  -5.603  -2.900  0.00  0.00    -0.422 OA
BRANCH   9  17
ATOM     14  C   UNL     1      -3.195  -8.406  -6.087  0.00  0.00    +0.000 A 
ATOM     15  C   UNL     1      -2.505  -7.484  -6.853  0.00  0.00    +0.001 A 
ATOM     16  C   UNL     1      -1.637  -6.595  -6.252  0.00  0.00    +0.013 A 
ATOM     17  C   UNL     1      -1.456  -6.628  -4.868  0.00  0.00    +0.038 A 
ATOM     18  C   UNL     1      -2.151  -7.565  -4.102  0.00  0.00    +0.013 A 
ATOM     19  C   UNL     1      -3.021  -8.444  -4.715  0.00  0.00    +0.001 A 
ENDBRANCH   9  17
ENDBRANCH   1  12
BRANCH   1  20
ATOM     20  N   UNL     1       1.221  -2.668  -1.409  0.00  0.00    +0.392 N 
ATOM     21  H   UNL     1       2.109  -2.274  -1.923  0.00  0.00    -0.084 HD
ATOM     22  H   UNL     1       0.313  -2.297  -1.907  0.00  0.00    -0.084 HD
BRANCH  20  23
ATOM     23  C   UNL     1       1.227  -2.186  -0.021  0.00  0.00    -0.045 C 
BRANCH  23  24
ATOM     24  C   UNL     1       1.208  -0.679  -0.013  0.00  0.00    -0.064 A 
ATOM     25  C   UNL     1       0.002  -0.004   0.002  0.00  0.00    +0.004 A 
ATOM     26  C   UNL     1      -0.017   1.378   0.010  0.00  0.00    +0.038 A 
ATOM     27  C   UNL     1       1.173   2.086   0.002  0.00  0.00    +0.123 A 
ATOM     28  C   UNL     1       2.381   1.408  -0.013  0.00  0.00    +0.038 A 
ATOM     29  C   UNL     1       2.397   0.026  -0.020  0.00  0.00    +0.004 A 
ATOM     30  F   UNL     1       1.156   3.437   0.009  0.00  0.00    -0.205 F 
ENDBRANCH  23  24
ENDBRANCH  20  23
ENDBRANCH   1  20
TORSDOF 6
