REMARK  Name = ZINC00715197
REMARK  5 active torsions:
REMARK  status: ('A' for Active; 'I' for Inactive)
REMARK    1  A    between atoms: C_1  and  C_2
REMARK    2  A    between atoms: C_3  and  C_17
REMARK    3  A    between atoms: C_4  and  C_10
REMARK    4  A    between atoms: C_17  and  O_19
REMARK    5  A    between atoms: O_19  and  C_20
REMARK                            x       y       z     vdW  Elec       q    Type
REMARK                         _______ _______ _______ _____ _____    ______ ____
ROOT
ATOM      1  C   UNL     1       7.605   1.854  -1.005  0.00  0.00    +0.061 C 
ATOM      2  C   UNL     1       7.746   0.382  -1.296  0.00  0.00    +0.021 C 
ATOM      3  C   UNL     1       6.667  -0.422  -1.188  0.00  0.00    +0.078 C 
ATOM      4  C   UNL     1       6.855  -1.897  -1.483  0.00  0.00    +0.144 C 
ATOM      5  N   UNL     1       8.205  -2.332  -1.879  0.00  0.00    -0.288 N 
ATOM      6  C   UNL     1       9.184  -1.407  -1.942  0.00  0.00    +0.304 C 
ATOM      7  O   UNL     1      10.303  -1.757  -2.261  0.00  0.00    -0.252 OA
ATOM      8  N   UNL     1       8.963  -0.116  -1.664  0.00  0.00    -0.273 N 
ATOM      9  H   UNL     1       8.387  -3.262  -2.084  0.00  0.00    +0.151 HD
ATOM     10  H   UNL     1       9.710   0.500  -1.728  0.00  0.00    +0.156 HD
ENDROOT
BRANCH   4  11
ATOM     11  C   UNL     1       6.452  -2.671  -0.255  0.00  0.00    -0.021 A 
ATOM     12  C   UNL     1       7.333  -2.793   0.805  0.00  0.00    +0.006 A 
ATOM     13  C   UNL     1       6.962  -3.499   1.934  0.00  0.00    +0.001 A 
ATOM     14  C   UNL     1       5.716  -4.093   2.000  0.00  0.00    +0.015 A 
ATOM     15  C   UNL     1       4.837  -3.976   0.939  0.00  0.00    +0.018 A 
ATOM     16  C   UNL     1       5.206  -3.265  -0.189  0.00  0.00    +0.021 A 
ATOM     17 BR   UNL     1       3.132  -4.789   1.028  0.00  0.00    -0.050 Br
ENDBRANCH   4  11
BRANCH   3  18
ATOM     18  C   UNL     1       5.406   0.092  -0.806  0.00  0.00    +0.339 C 
ATOM     19  O   UNL     1       5.302   1.256  -0.465  0.00  0.00    -0.245 OA
BRANCH  18  20
ATOM     20  O   UNL     1       4.319  -0.707  -0.820  0.00  0.00    -0.458 OA
BRANCH  20  21
ATOM     21  C   UNL     1       3.078  -0.120  -0.422  0.00  0.00    +0.177 C 
ATOM     22  C   UNL     1       2.188  -1.191   0.211  0.00  0.00    +0.044 C 
ATOM     23  C   UNL     1       1.052  -0.517   0.985  0.00  0.00    +0.004 C 
ATOM     24  C   UNL     1       0.003   0.002   0.001  0.00  0.00    +0.000 C 
ATOM     25  C   UNL     1      -0.013   1.531   0.030  0.00  0.00    +0.000 C 
ATOM     26  C   UNL     1       1.424   2.056   0.029  0.00  0.00    +0.000 C 
ATOM     27  C   UNL     1       2.013   1.928  -1.378  0.00  0.00    +0.004 C 
ATOM     28  C   UNL     1       2.375   0.467  -1.648  0.00  0.00    +0.044 C 
ENDBRANCH  20  21
ENDBRANCH  18  20
ENDBRANCH   3  18
TORSDOF 4
