REMARK  Name = ZINC01214205
REMARK  6 active torsions:
REMARK  status: ('A' for Active; 'I' for Inactive)
REMARK    1  A    between atoms: C_4  and  C_7
REMARK    2  A    between atoms: C_7  and  C_8
REMARK    3  A    between atoms: C_7  and  N_14
REMARK    4  A    between atoms: C_20  and  C_22
REMARK    5  A    between atoms: C_27  and  C_42
REMARK    6  A    between atoms: C_30  and  C_33
REMARK                            x       y       z     vdW  Elec       q    Type
REMARK                         _______ _______ _______ _____ _____    ______ ____
ROOT
ATOM      1  C   UNL     1       4.029  -3.767  -5.522  0.00  0.00    +0.149 A 
ATOM      2  C   UNL     1       4.447  -4.278  -6.772  0.00  0.00    +0.078 A 
ATOM      3  C   UNL     1       3.598  -3.808  -7.707  0.00  0.00    +0.119 A 
ATOM      4  N   UNL     1       2.668  -3.026  -7.084  0.00  0.00    -0.238 N 
ATOM      5  N   UNL     1       2.957  -3.020  -5.720  0.00  0.00    -0.164 NA
ATOM      6  C   UNL     1       1.576  -2.345  -7.785  0.00  0.00    +0.215 C 
ATOM      7  C   UNL     1       1.367  -3.017  -9.147  0.00  0.00    +0.063 C 
ATOM      8  C   UNL     1       2.708  -3.144  -9.878  0.00  0.00    +0.104 C 
ATOM      9  N   UNL     1       3.591  -4.025  -9.088  0.00  0.00    -0.322 N 
ATOM     10  H   UNL     1       4.135  -4.713  -9.503  0.00  0.00    +0.148 HD
ENDROOT
BRANCH   8  11
ATOM     11  C   UNL     1       2.485  -3.739 -11.245  0.00  0.00    -0.024 A 
ATOM     12  C   UNL     1       2.314  -5.104 -11.383  0.00  0.00    +0.009 A 
ATOM     13  C   UNL     1       2.109  -5.654 -12.635  0.00  0.00    +0.050 A 
ATOM     14  C   UNL     1       2.074  -4.838 -13.754  0.00  0.00    +0.166 A 
ATOM     15  C   UNL     1       2.247  -3.463 -13.614  0.00  0.00    +0.167 A 
ATOM     16  C   UNL     1       2.446  -2.918 -12.356  0.00  0.00    +0.055 A 
ATOM     17  O   UNL     1       2.172  -2.886 -14.849  0.00  0.00    -0.453 OA
ATOM     18  C   UNL     1       2.360  -3.962 -15.788  0.00  0.00    +0.466 C 
ATOM     19  O   UNL     1       1.892  -5.123 -15.076  0.00  0.00    -0.453 OA
ENDBRANCH   8  11
BRANCH   1  26
ATOM     20  N   UNL     1       4.209  -1.431  -1.114  0.00  0.00    -0.289 NA
ATOM     21  C   UNL     1       3.835  -1.052  -2.483  0.00  0.00    +0.104 C 
ATOM     22  C   UNL     1       3.280  -2.278  -3.216  0.00  0.00    +0.123 C 
ATOM     23  N   UNL     1       4.266  -3.366  -3.119  0.00  0.00    -0.294 N 
ATOM     24  C   UNL     1       4.792  -3.712  -1.790  0.00  0.00    +0.123 C 
ATOM     25  C   UNL     1       5.287  -2.429  -1.114  0.00  0.00    +0.104 C 
ATOM     26  C   UNL     1       4.675  -4.028  -4.219  0.00  0.00    +0.267 C 
ATOM     27  O   UNL     1       5.577  -4.840  -4.139  0.00  0.00    -0.268 OA
BRANCH  20  28
ATOM     28  C   UNL     1       4.584  -0.250  -0.325  0.00  0.00    +0.117 C 
BRANCH  28  32
ATOM     29  C   UNL     1       1.387   2.582  -0.395  0.00  0.00    +0.000 A 
ATOM     30  C   UNL     1       2.697   3.015  -0.484  0.00  0.00    +0.000 A 
ATOM     31  C   UNL     1       3.731   2.099  -0.461  0.00  0.00    +0.005 A 
ATOM     32  C   UNL     1       3.456   0.749  -0.349  0.00  0.00    -0.026 A 
ATOM     33  C   UNL     1       2.147   0.315  -0.259  0.00  0.00    +0.005 A 
ATOM     34  C   UNL     1       1.112   1.232  -0.283  0.00  0.00    +0.000 A 
ENDBRANCH  28  32
BRANCH  28  35
ATOM     35  C   UNL     1       4.859  -0.664   1.098  0.00  0.00    -0.026 A 
ATOM     36  C   UNL     1       4.059  -1.612   1.709  0.00  0.00    +0.005 A 
ATOM     37  C   UNL     1       4.311  -1.991   3.014  0.00  0.00    +0.000 A 
ATOM     38  C   UNL     1       5.363  -1.423   3.708  0.00  0.00    +0.000 A 
ATOM     39  C   UNL     1       6.163  -0.476   3.097  0.00  0.00    +0.000 A 
ATOM     40  C   UNL     1       5.914  -0.100   1.790  0.00  0.00    +0.005 A 
ENDBRANCH  28  35
ENDBRANCH  20  28
ENDBRANCH   1  26
BRANCH   6  41
ATOM     41  C   UNL     1       0.293  -2.447  -6.958  0.00  0.00    +0.412 C 
ATOM     42  F   UNL     1       0.493  -1.843  -5.712  0.00  0.00    -0.168 F 
ATOM     43  F   UNL     1      -0.748  -1.796  -7.630  0.00  0.00    -0.168 F 
ATOM     44  F   UNL     1      -0.039  -3.794  -6.777  0.00  0.00    -0.168 F 
ENDBRANCH   6  41
TORSDOF 6
