REMARK  Name = ZINC35930590
REMARK  6 active torsions:
REMARK  status: ('A' for Active; 'I' for Inactive)
REMARK    1  A    between atoms: C_1  and  C_2
REMARK    2  A    between atoms: C_4  and  C_32
REMARK    3  A    between atoms: C_6  and  C_24
REMARK    4  A    between atoms: N_9  and  C_18
REMARK    5  A    between atoms: C_10  and  C_12
REMARK    6  A    between atoms: C_24  and  C_26
REMARK                            x       y       z     vdW  Elec       q    Type
REMARK                         _______ _______ _______ _____ _____    ______ ____
ROOT
ATOM      1  C   UNL     1      -1.116   0.919  -0.074  0.00  0.00    +0.007 C 
ATOM      2  C   UNL     1      -0.413  -0.431  -0.225  0.00  0.00    -0.015 C 
ATOM      3  C   UNL     1       0.712  -0.310  -1.258  0.00  0.00    +0.029 C 
ATOM      4  C   UNL     1       1.458  -1.644  -1.344  0.00  0.00    +0.051 C 
ATOM      5  C   UNL     1       1.983  -2.019   0.044  0.00  0.00    -0.066 C 
ATOM      6  N   UNL     1       0.859  -2.146   0.979  0.00  0.00    +0.387 N 
ATOM      7  C   UNL     1       0.181  -0.852   1.121  0.00  0.00    -0.034 C 
ATOM      8  H   UNL     1       0.205  -2.829   0.627  0.00  0.00    -0.081 HD
ENDROOT
BRANCH   7   9
ATOM      9  C   UNL     1      -0.923  -0.972   2.140  0.00  0.00    -0.061 A 
ATOM     10  C   UNL     1      -1.798  -2.041   2.088  0.00  0.00    +0.002 A 
ATOM     11  C   UNL     1      -2.811  -2.151   3.023  0.00  0.00    +0.000 A 
ATOM     12  C   UNL     1      -2.947  -1.194   4.010  0.00  0.00    +0.000 A 
ATOM     13  C   UNL     1      -2.071  -0.125   4.063  0.00  0.00    +0.000 A 
ATOM     14  C   UNL     1      -1.056  -0.017   3.131  0.00  0.00    +0.002 A 
ENDBRANCH   7   9
BRANCH   6  15
ATOM     15  C   UNL     1       1.360  -2.581   2.289  0.00  0.00    -0.068 C 
ATOM     16  C   UNL     1       2.457  -1.624   2.759  0.00  0.00    -0.015 C 
ATOM     17  C   UNL     1       2.979  -2.078   4.124  0.00  0.00    -0.002 C 
ATOM     18  C   UNL     1       3.552  -3.492   4.007  0.00  0.00    -0.000 C 
ATOM     19  C   UNL     1       2.454  -4.449   3.537  0.00  0.00    -0.002 C 
ATOM     20  C   UNL     1       1.932  -3.995   2.172  0.00  0.00    -0.015 C 
ENDBRANCH   6  15
BRANCH   3  21
ATOM     21  C   UNL     1       0.125   0.029  -2.604  0.00  0.00    -0.043 A 
ATOM     22  C   UNL     1      -1.004  -0.632  -3.052  0.00  0.00    +0.004 A 
ATOM     23  C   UNL     1      -1.542  -0.321  -4.287  0.00  0.00    +0.000 A 
ATOM     24  C   UNL     1      -0.952   0.651  -5.073  0.00  0.00    +0.000 A 
ATOM     25  C   UNL     1       0.176   1.312  -4.625  0.00  0.00    +0.000 A 
ATOM     26  C   UNL     1       0.712   1.004  -3.388  0.00  0.00    +0.004 A 
ENDBRANCH   3  21
BRANCH   4  27
ATOM     27  C   UNL     1       0.519  -2.716  -1.834  0.00  0.00    +0.165 C 
ATOM     28  O   UNL     1      -0.475  -2.990  -1.195  0.00  0.00    -0.292 OA
BRANCH  27  29
ATOM     29  C   UNL     1       0.807  -3.430  -3.088  0.00  0.00    +0.018 A 
ATOM     30  C   UNL     1       1.954  -3.121  -3.825  0.00  0.00    +0.011 A 
ATOM     31  C   UNL     1       2.218  -3.795  -4.999  0.00  0.00    +0.001 A 
ATOM     32  C   UNL     1       1.350  -4.775  -5.448  0.00  0.00    +0.000 A 
ATOM     33  C   UNL     1       0.212  -5.086  -4.725  0.00  0.00    +0.001 A 
ATOM     34  C   UNL     1      -0.063  -4.425  -3.546  0.00  0.00    +0.011 A 
ENDBRANCH  27  29
ENDBRANCH   4  27
TORSDOF 5
