REMARK  Name = ZINC05273455
REMARK  3 active torsions:
REMARK  status: ('A' for Active; 'I' for Inactive)
REMARK    1  A    between atoms: C_4  and  O_19
REMARK    2  A    between atoms: C_5  and  C_7
REMARK    3  A    between atoms: N_8  and  C_9
REMARK                            x       y       z     vdW  Elec       q    Type
REMARK                         _______ _______ _______ _____ _____    ______ ____
ROOT
ATOM      1  C   UNL     1       1.237  -2.177   0.129  0.00  0.00    +0.123 C 
ATOM      2  N   UNL     1       2.386  -2.788   0.067  0.00  0.00    -0.255 NA
ENDROOT
BRANCH   2   3
ATOM      3  C   UNL     1       3.545  -2.088   0.265  0.00  0.00    +0.068 A 
ATOM      4  C   UNL     1       3.844  -0.985  -0.539  0.00  0.00    +0.031 A 
ATOM      5  C   UNL     1       5.013  -0.283  -0.337  0.00  0.00    +0.051 A 
ATOM      6  C   UNL     1       5.896  -0.666   0.664  0.00  0.00    +0.162 A 
ATOM      7  C   UNL     1       5.604  -1.762   1.470  0.00  0.00    +0.164 A 
ATOM      8  C   UNL     1       4.430  -2.469   1.276  0.00  0.00    +0.077 A 
ATOM      9  O   UNL     1       6.455  -2.145   2.461  0.00  0.00    -0.485 OA
ATOM     10  C   UNL     1       7.793  -1.641   2.390  0.00  0.00    +0.270 C 
ATOM     11  C   UNL     1       7.724  -0.137   2.091  0.00  0.00    +0.270 C 
ATOM     12  O   UNL     1       7.047   0.041   0.842  0.00  0.00    -0.485 OA
ENDBRANCH   2   3
BRANCH   1  17
ATOM     13  C   UNL     1       2.042   0.998   1.955  0.00  0.00    +0.001 A 
ATOM     14  C   UNL     1       1.038   1.836   1.498  0.00  0.00    +0.004 A 
ATOM     15  C   UNL     1       0.098   1.375   0.598  0.00  0.00    +0.046 A 
ATOM     16  C   UNL     1       0.153   0.066   0.144  0.00  0.00    +0.125 A 
ATOM     17  C   UNL     1       1.168  -0.786   0.603  0.00  0.00    +0.034 A 
ATOM     18  C   UNL     1       2.113  -0.306   1.514  0.00  0.00    +0.013 A 
BRANCH  16  19
ATOM     19  O   UNL     1      -0.771  -0.388  -0.741  0.00  0.00    -0.506 OA
ATOM     20  H   UNL     1      -0.559  -0.195  -1.665  0.00  0.00    +0.292 HD
ENDBRANCH  16  19
ENDBRANCH   1  17
TORSDOF 3
