REMARK  Name = ZINC09641672
REMARK  4 active torsions:
REMARK  status: ('A' for Active; 'I' for Inactive)
REMARK    1  A    between atoms: C_10  and  N_27
REMARK    2  A    between atoms: C_12  and  N_16
REMARK    3  A    between atoms: N_19  and  C_22
REMARK    4  A    between atoms: N_27  and  C_28
REMARK                            x       y       z     vdW  Elec       q    Type
REMARK                         _______ _______ _______ _____ _____    ______ ____
ROOT
ATOM      1  C   UNL     1      -3.571   6.309   0.055  0.00  0.00    +0.001 A 
ATOM      2  C   UNL     1      -4.795   5.654   0.064  0.00  0.00    +0.001 A 
ATOM      3  C   UNL     1      -4.856   4.280   0.062  0.00  0.00    +0.012 A 
ATOM      4  C   UNL     1      -3.679   3.522   0.051  0.00  0.00    +0.033 A 
ATOM      5  C   UNL     1      -2.432   4.193   0.041  0.00  0.00    +0.031 A 
ATOM      6  C   UNL     1      -2.397   5.591   0.044  0.00  0.00    +0.012 A 
ATOM      7  C   UNL     1      -1.194   3.415   0.029  0.00  0.00    +0.176 A 
ATOM      8  C   UNL     1      -1.352   2.052   0.018  0.00  0.00    +0.063 A 
ATOM      9  C   UNL     1      -2.577   1.300   0.033  0.00  0.00    +0.056 A 
ATOM     10  C   UNL     1      -2.462  -0.099   0.025  0.00  0.00    +0.041 A 
ATOM     11  C   UNL     1      -1.194  -0.694   0.010  0.00  0.00    +0.049 A 
ATOM     12  C   UNL     1       0.002  -0.004   0.002  0.00  0.00    +0.061 A 
ATOM     13  C   UNL     1      -0.018   1.464   0.010  0.00  0.00    +0.136 A 
ATOM     14  N   UNL     1       0.757   2.512   0.008  0.00  0.00    -0.076 NA
ATOM     15  O   UNL     1       0.134   3.573   0.019  0.00  0.00    -0.353 OA
ATOM     16  C   UNL     1      -3.778   2.046   0.048  0.00  0.00    +0.196 C 
ATOM     17  O   UNL     1      -4.864   1.489   0.058  0.00  0.00    -0.287 OA
ENDROOT
BRANCH  12  18
ATOM     18  N   UNL     1       1.201  -0.686  -0.014  0.00  0.00    -0.325 N 
ATOM     19  C   UNL     1       1.347  -1.466  -1.251  0.00  0.00    +0.124 C 
ATOM     20  C   UNL     1       2.720  -2.142  -1.265  0.00  0.00    +0.125 C 
ATOM     21  N   UNL     1       2.851  -3.005  -0.083  0.00  0.00    -0.314 N 
ATOM     22  C   UNL     1       2.705  -2.225   1.154  0.00  0.00    +0.125 C 
ATOM     23  C   UNL     1       1.332  -1.549   1.168  0.00  0.00    +0.124 C 
BRANCH  21  24
ATOM     24  C   UNL     1       4.059  -3.692  -0.099  0.00  0.00    +0.099 A 
ATOM     25  C   UNL     1       4.384  -4.491  -1.191  0.00  0.00    +0.042 A 
ATOM     26  C   UNL     1       5.589  -5.169  -1.194  0.00  0.00    +0.005 A 
ATOM     27  C   UNL     1       6.433  -5.025  -0.100  0.00  0.00    +0.018 A 
ATOM     28  C   UNL     1       6.047  -4.216   0.949  0.00  0.00    +0.084 A 
ATOM     29  N   UNL     1       4.874  -3.530   0.983  0.00  0.00    -0.350 N 
ATOM     30  H   UNL     1       4.616  -2.928   1.774  0.00  0.00    +0.166 HD
ENDBRANCH  21  24
ENDBRANCH  12  18
BRANCH  10  31
ATOM     31  N   UNL     1      -3.594  -0.885   0.032  0.00  0.00    -0.340 N 
ATOM     32  H   UNL     1      -4.472  -0.472   0.043  0.00  0.00    +0.146 HD
BRANCH  31  33
ATOM     33  C   UNL     1      -3.472  -2.345   0.023  0.00  0.00    +0.070 C 
ATOM     34  C   UNL     1      -3.318  -2.836  -1.418  0.00  0.00    +0.022 C 
ATOM     35  C   UNL     1      -3.190  -4.360  -1.427  0.00  0.00    +0.002 C 
ATOM     36  C   UNL     1      -4.445  -4.981  -0.809  0.00  0.00    +0.000 C 
ATOM     37  C   UNL     1      -4.599  -4.490   0.632  0.00  0.00    +0.002 C 
ATOM     38  C   UNL     1      -4.726  -2.966   0.642  0.00  0.00    +0.022 C 
ENDBRANCH  31  33
ENDBRANCH  10  31
TORSDOF 4
