REMARK  Name = ZINC36546784
REMARK  18 active torsions:
REMARK  status: ('A' for Active; 'I' for Inactive)
REMARK    1  A    between atoms: C_1  and  C_2
REMARK    2  A    between atoms: C_2  and  C_36
REMARK    3  A    between atoms: C_3  and  C_4
REMARK    4  A    between atoms: N_6  and  C_7
REMARK    5  A    between atoms: N_6  and  C_14
REMARK    6  A    between atoms: C_14  and  C_16
REMARK    7  A    between atoms: C_14  and  C_25
REMARK    8  A    between atoms: C_17  and  O_24
REMARK    9  A    between atoms: C_19  and  O_23
REMARK   10  A    between atoms: C_21  and  O_22
REMARK   11  A    between atoms: N_27  and  C_28
REMARK   12  A    between atoms: C_28  and  C_29
REMARK   13  A    between atoms: C_28  and  C_30
REMARK   14  A    between atoms: C_28  and  C_31
REMARK   15  A    between atoms: C_31  and  C_32
REMARK   16  A    between atoms: C_32  and  C_33
REMARK   17  A    between atoms: C_32  and  C_34
REMARK   18  A    between atoms: C_32  and  C_35
REMARK                            x       y       z     vdW  Elec       q    Type
REMARK                         _______ _______ _______ _____ _____    ______ ____
ROOT
ATOM      1  C   UNL     1      -1.425   0.526   5.105  0.00  0.00    +0.204 C 
ENDROOT
BRANCH   1   2
ATOM      2  C   UNL     1      -0.102  -0.153   5.352  0.00  0.00    +0.065 A 
ATOM      3  C   UNL     1       0.012  -1.526   5.194  0.00  0.00    +0.129 A 
ATOM      4  C   UNL     1       1.229  -2.151   5.422  0.00  0.00    +0.091 A 
ATOM      5  C   UNL     1       2.332  -1.402   5.806  0.00  0.00    +0.124 A 
ATOM      6  C   UNL     1       2.217  -0.029   5.963  0.00  0.00    +0.091 A 
ATOM      7  C   UNL     1       1.001   0.596   5.731  0.00  0.00    +0.129 A 
BRANCH   7   8
ATOM      8  O   UNL     1       0.890   1.942   5.880  0.00  0.00    -0.506 OA
ATOM      9  H   UNL     1       0.642   2.220   6.772  0.00  0.00    +0.292 HD
ENDBRANCH   7   8
BRANCH   5  10
ATOM     10  O   UNL     1       3.524  -2.015   6.030  0.00  0.00    -0.507 OA
ATOM     11  H   UNL     1       4.087  -2.077   5.246  0.00  0.00    +0.292 HD
ENDBRANCH   5  10
BRANCH   3  12
ATOM     12  O   UNL     1      -1.068  -2.260   4.818  0.00  0.00    -0.506 OA
ATOM     13  H   UNL     1      -1.117  -2.429   3.867  0.00  0.00    +0.292 HD
ENDBRANCH   3  12
ENDBRANCH   1   2
BRANCH   1  14
ATOM     14  C   UNL     1      -2.335   0.296   6.284  0.00  0.00    +0.239 C 
ATOM     15  O   UNL     1      -3.334  -0.381   6.156  0.00  0.00    -0.273 OA
ATOM     16  N   UNL     1      -2.040   0.843   7.479  0.00  0.00    -0.308 N 
ATOM     17  H   UNL     1      -1.242   1.385   7.581  0.00  0.00    +0.149 HD
BRANCH  16  18
ATOM     18  C   UNL     1      -2.925   0.620   8.626  0.00  0.00    +0.030 C 
ATOM     19  C   UNL     1      -4.167   1.504   8.491  0.00  0.00    +0.031 C 
ATOM     20  C   UNL     1      -3.347  -0.850   8.666  0.00  0.00    +0.031 C 
BRANCH  18  21
ATOM     21  C   UNL     1      -2.186   0.974   9.917  0.00  0.00    +0.031 C 
BRANCH  21  22
ATOM     22  C   UNL     1      -0.775   0.383   9.876  0.00  0.00    -0.036 C 
ATOM     23  C   UNL     1       0.120   1.260   8.998  0.00  0.00    +0.010 C 
ATOM     24  C   UNL     1      -0.203   0.329  11.294  0.00  0.00    +0.010 C 
ATOM     25  C   UNL     1      -0.832  -1.031   9.295  0.00  0.00    +0.010 C 
ENDBRANCH  21  22
ENDBRANCH  18  21
ENDBRANCH  16  18
ENDBRANCH   1  14
BRANCH   1  28
ATOM     26  C   UNL     1      -1.288  -0.268   2.805  0.00  0.00    +0.245 C 
ATOM     27  O   UNL     1      -0.097  -0.022   2.822  0.00  0.00    -0.270 OA
ATOM     28  N   UNL     1      -2.041  -0.030   3.897  0.00  0.00    -0.250 N 
BRANCH  28  29
ATOM     29  C   UNL     1      -3.411  -0.313   3.877  0.00  0.00    +0.056 A 
ATOM     30  C   UNL     1      -3.855  -1.616   4.056  0.00  0.00    +0.025 A 
ATOM     31  C   UNL     1      -5.208  -1.893   4.035  0.00  0.00    +0.002 A 
ATOM     32  C   UNL     1      -6.121  -0.873   3.838  0.00  0.00    +0.002 A 
ATOM     33  C   UNL     1      -5.683   0.426   3.659  0.00  0.00    +0.022 A 
ATOM     34  C   UNL     1      -4.331   0.711   3.684  0.00  0.00    +0.062 A 
ATOM     35 CL   UNL     1      -3.782   2.344   3.468  0.00  0.00    -0.082 Cl
ENDBRANCH  28  29
BRANCH  26  38
ATOM     36  C   UNL     1       0.347  -0.979   0.621  0.00  0.00    +0.039 C 
ATOM     37  C   UNL     1      -1.149  -1.142   0.546  0.00  0.00    -0.071 C 
ATOM     38  C   UNL     1      -1.906  -0.825   1.593  0.00  0.00    +0.066 C 
ATOM     39  C   UNL     1      -1.788  -1.664  -0.716  0.00  0.00    +0.039 C 
ENDBRANCH  26  38
ENDBRANCH   1  28
TORSDOF 11
