REMARK  Name = ZINC00919744
REMARK  7 active torsions:
REMARK  status: ('A' for Active; 'I' for Inactive)
REMARK    1  A    between atoms: C_1  and  C_2
REMARK    2  A    between atoms: C_5  and  N_8
REMARK    3  A    between atoms: C_9  and  C_25
REMARK    4  A    between atoms: C_12  and  S_13
REMARK    5  A    between atoms: S_13  and  C_14
REMARK    6  A    between atoms: C_14  and  C_15
REMARK    7  A    between atoms: C_21  and  C_24
REMARK                            x       y       z     vdW  Elec       q    Type
REMARK                         _______ _______ _______ _____ _____    ______ ____
ROOT
ATOM      1  N   UNL     1       1.237  -2.082  -0.021  0.00  0.00    -0.268 N 
ATOM      2  C   UNL     1       1.705  -2.903  -1.026  0.00  0.00    +0.205 A 
ATOM      3  N   UNL     1       1.537  -4.143  -0.619  0.00  0.00    -0.125 NA
ATOM      4  N   UNL     1       1.005  -4.152   0.551  0.00  0.00    -0.122 NA
ATOM      5  C   UNL     1       0.804  -2.923   0.969  0.00  0.00    +0.197 A 
ENDROOT
BRANCH   1  10
ATOM      6  C   UNL     1       1.147   3.593   0.011  0.00  0.00    +0.044 C 
ATOM      7  C   UNL     1       1.171   2.086   0.002  0.00  0.00    -0.050 A 
ATOM      8  C   UNL     1      -0.017   1.377   0.010  0.00  0.00    +0.005 A 
ATOM      9  C   UNL     1       0.002  -0.004   0.002  0.00  0.00    +0.026 A 
ATOM     10  C   UNL     1       1.214  -0.680  -0.013  0.00  0.00    +0.051 A 
ATOM     11  C   UNL     1       2.405   0.034  -0.021  0.00  0.00    +0.026 A 
ATOM     12  C   UNL     1       2.380   1.415  -0.013  0.00  0.00    +0.005 A 
ENDBRANCH   1  10
BRANCH   2  13
ATOM     13  C   UNL     1       2.282  -2.474  -2.309  0.00  0.00    +0.172 A 
ATOM     14  C   UNL     1       2.996  -3.257  -3.167  0.00  0.00    +0.053 A 
ATOM     15  C   UNL     1       3.349  -2.442  -4.260  0.00  0.00    +0.042 A 
ATOM     16  C   UNL     1       2.840  -1.217  -4.021  0.00  0.00    +0.196 A 
ATOM     17  O   UNL     1       2.192  -1.241  -2.845  0.00  0.00    -0.460 OA
ENDBRANCH   2  13
BRANCH   5  18
ATOM     18  S   UNL     1       0.104  -2.445   2.514  0.00  0.00    -0.076 S 
BRANCH  18  19
ATOM     19  C   UNL     1      -0.199  -4.076   3.239  0.00  0.00    +0.173 C 
BRANCH  19  20
ATOM     20  C   UNL     1      -0.814  -3.912   4.605  0.00  0.00    +0.226 C 
ATOM     21  O   UNL     1      -1.026  -2.802   5.045  0.00  0.00    -0.275 OA
ATOM     22  N   UNL     1      -1.128  -4.998   5.337  0.00  0.00    -0.301 N 
ATOM     23  C   UNL     1      -0.876  -6.350   4.818  0.00  0.00    +0.108 C 
ATOM     24  C   UNL     1      -2.177  -7.155   4.890  0.00  0.00    +0.019 C 
ATOM     25  C   UNL     1      -2.714  -7.123   6.323  0.00  0.00    +0.006 C 
ATOM     26  C   UNL     1      -3.019  -5.677   6.722  0.00  0.00    +0.003 C 
ATOM     27  C   UNL     1      -1.722  -4.854   6.673  0.00  0.00    +0.111 C 
ATOM     28  C   UNL     1      -3.587  -5.649   8.143  0.00  0.00    +0.009 C 
ENDBRANCH  19  20
ENDBRANCH  18  19
ENDBRANCH   5  18
TORSDOF 5
