REMARK  Name = ZINC40863499
REMARK  9 active torsions:
REMARK  status: ('A' for Active; 'I' for Inactive)
REMARK    1  A    between atoms: C_1  and  C_2
REMARK    2  A    between atoms: C_2  and  C_3
REMARK    3  A    between atoms: C_3  and  C_4
REMARK    4  A    between atoms: C_4  and  C_5
REMARK    5  A    between atoms: C_5  and  C_7
REMARK    6  A    between atoms: C_5  and  S_18
REMARK    7  A    between atoms: C_12  and  C_15
REMARK    8  A    between atoms: S_18  and  C_19
REMARK    9  A    between atoms: N_29  and  C_30
REMARK                            x       y       z     vdW  Elec       q    Type
REMARK                         _______ _______ _______ _____ _____    ______ ____
ROOT
ATOM      1  S   UNL     1      -4.221  -1.089  -0.986  0.00  0.00    -0.074 S 
ENDROOT
BRANCH   1   2
ATOM      2  C   UNL     1      -5.633  -2.125  -0.794  0.00  0.00    +0.177 A 
ATOM      3  N   UNL     1      -5.896  -2.610   0.394  0.00  0.00    -0.223 NA
ATOM      4  C   UNL     1      -6.965  -3.412   0.611  0.00  0.00    +0.079 A 
ATOM      5  C   UNL     1      -7.247  -3.930   1.878  0.00  0.00    +0.028 A 
ATOM      6  C   UNL     1      -8.338  -4.735   2.052  0.00  0.00    +0.002 A 
ATOM      7  C   UNL     1      -9.172  -5.048   0.987  0.00  0.00    +0.001 A 
ATOM      8  C   UNL     1      -8.922  -4.557  -0.265  0.00  0.00    +0.015 A 
ATOM      9  C   UNL     1      -7.816  -3.732  -0.471  0.00  0.00    +0.065 A 
ATOM     10  C   UNL     1      -7.499  -3.176  -1.793  0.00  0.00    +0.267 A 
ATOM     11  O   UNL     1      -8.195  -3.416  -2.762  0.00  0.00    -0.267 OA
ATOM     12  N   UNL     1      -6.408  -2.382  -1.893  0.00  0.00    -0.255 N 
BRANCH  12  13
ATOM     13  C   UNL     1      -6.067  -1.824  -3.128  0.00  0.00    +0.056 A 
ATOM     14  C   UNL     1      -6.504  -0.548  -3.482  0.00  0.00    +0.046 A 
ATOM     15  C   UNL     1      -6.146  -0.032  -4.710  0.00  0.00    +0.114 A 
ATOM     16  N   UNL     1      -5.400  -0.730  -5.545  0.00  0.00    -0.243 NA
ATOM     17  C   UNL     1      -4.966  -1.941  -5.248  0.00  0.00    +0.131 A 
ATOM     18  C   UNL     1      -5.277  -2.526  -4.035  0.00  0.00    +0.066 A 
ATOM     19 CL   UNL     1      -3.988  -2.807  -6.391  0.00  0.00    -0.062 Cl
ENDBRANCH  12  13
ENDBRANCH   1   2
BRANCH   1  20
ATOM     20  C   UNL     1      -3.530  -0.976   0.687  0.00  0.00    +0.140 C 
BRANCH  20  21
ATOM     21  C   UNL     1      -3.042  -2.333   1.122  0.00  0.00    +0.229 C 
ATOM     22  O   UNL     1      -2.721  -3.157   0.292  0.00  0.00    -0.274 OA
ATOM     23  N   UNL     1      -2.961  -2.632   2.434  0.00  0.00    -0.301 N 
ATOM     24  C   UNL     1      -3.352  -1.647   3.451  0.00  0.00    +0.108 C 
ATOM     25  C   UNL     1      -2.194  -1.473   4.439  0.00  0.00    +0.032 C 
ATOM     26  C   UNL     1      -1.802  -2.840   5.005  0.00  0.00    +0.078 C 
ATOM     27  C   UNL     1      -1.333  -3.750   3.868  0.00  0.00    +0.032 C 
ATOM     28  C   UNL     1      -2.487  -3.952   2.873  0.00  0.00    +0.108 C 
BRANCH  26  29
ATOM     29  C   UNL     1      -0.685  -2.669   6.003  0.00  0.00    +0.214 C 
ATOM     30  O   UNL     1      -0.247  -1.563   6.238  0.00  0.00    -0.276 OA
ATOM     31  N   UNL     1      -0.175  -3.744   6.634  0.00  0.00    -0.329 N 
ATOM     32  H   UNL     1      -0.526  -4.629   6.446  0.00  0.00    +0.145 HD
ATOM     33  H   UNL     1       0.544  -3.634   7.277  0.00  0.00    +0.145 HD
ENDBRANCH  26  29
ENDBRANCH  20  21
BRANCH  20  34
ATOM     34  C   UNL     1      -2.361   0.012   0.690  0.00  0.00    +0.024 C 
BRANCH  34  35
ATOM     35  C   UNL     1      -2.881   1.419   0.390  0.00  0.00    +0.001 C 
BRANCH  35  37
ATOM     36  C   UNL     1      -2.257   3.832   0.223  0.00  0.00    +0.004 C 
ATOM     37  C   UNL     1      -1.736   2.425   0.523  0.00  0.00    -0.003 C 
ENDBRANCH  35  37
ENDBRANCH  34  35
ENDBRANCH  20  34
ENDBRANCH   1  20
TORSDOF 8
