REMARK  Name = ZINC00885726
REMARK  9 active torsions:
REMARK  status: ('A' for Active; 'I' for Inactive)
REMARK    1  A    between atoms: C_4  and  C_7
REMARK    2  A    between atoms: C_7  and  N_8
REMARK    3  A    between atoms: N_8  and  C_9
REMARK    4  A    between atoms: C_9  and  C_11
REMARK    5  A    between atoms: C_9  and  C_18
REMARK    6  A    between atoms: N_20  and  C_21
REMARK    7  A    between atoms: C_21  and  C_22
REMARK    8  A    between atoms: C_28  and  C_30
REMARK    9  A    between atoms: C_33  and  C_36
REMARK                            x       y       z     vdW  Elec       q    Type
REMARK                         _______ _______ _______ _____ _____    ______ ____
ROOT
ATOM      1  N   UNL     1       4.103  -4.046  -4.157  0.00  0.00    -0.276 N 
ATOM      2  C   UNL     1       4.492  -3.123  -5.059  0.00  0.00    +0.264 C 
ATOM      3  O   UNL     1       4.691  -3.448  -6.215  0.00  0.00    -0.268 OA
ENDROOT
BRANCH   2   4
ATOM      4  C   UNL     1       4.675  -1.728  -4.647  0.00  0.00    +0.102 A 
ATOM      5  C   UNL     1       4.849  -0.649  -5.491  0.00  0.00    +0.033 A 
ATOM      6  C   UNL     1       4.982   0.487  -4.694  0.00  0.00    +0.028 A 
ATOM      7  C   UNL     1       4.896   0.087  -3.378  0.00  0.00    +0.047 A 
ATOM      8  N   UNL     1       4.709  -1.264  -3.351  0.00  0.00    -0.351 N 
ATOM      9  H   UNL     1       4.616  -1.807  -2.553  0.00  0.00    +0.166 HD
BRANCH   7  10
ATOM     10  C   UNL     1       4.992   0.971  -2.198  0.00  0.00    -0.002 A 
ATOM     11  C   UNL     1       4.883   0.438  -0.912  0.00  0.00    +0.010 A 
ATOM     12  C   UNL     1       4.979   1.267   0.186  0.00  0.00    +0.001 A 
ATOM     13  C   UNL     1       5.170   2.627   0.015  0.00  0.00    +0.000 A 
ATOM     14  C   UNL     1       5.273   3.163  -1.257  0.00  0.00    +0.001 A 
ATOM     15  C   UNL     1       5.185   2.343  -2.363  0.00  0.00    +0.010 A 
ENDBRANCH   7  10
ENDBRANCH   2   4
BRANCH   1  16
ATOM     16  C   UNL     1       3.957  -5.447  -4.559  0.00  0.00    +0.144 C 
BRANCH  16  20
ATOM     17  C   UNL     1       7.777  -7.357  -4.475  0.00  0.00    +0.000 A 
ATOM     18  C   UNL     1       7.185  -6.943  -3.296  0.00  0.00    +0.000 A 
ATOM     19  C   UNL     1       5.949  -6.324  -3.324  0.00  0.00    +0.005 A 
ATOM     20  C   UNL     1       5.305  -6.121  -4.529  0.00  0.00    -0.030 A 
ATOM     21  C   UNL     1       5.894  -6.540  -5.708  0.00  0.00    +0.005 A 
ATOM     22  C   UNL     1       7.133  -7.153  -5.681  0.00  0.00    +0.000 A 
ENDBRANCH  16  20
ENDBRANCH   1  16
BRANCH   1  23
ATOM     23  C   UNL     1       3.825  -3.648  -2.775  0.00  0.00    +0.193 C 
BRANCH  23  24
ATOM     24  C   UNL     1       3.381  -4.852  -1.985  0.00  0.00    -0.018 A 
ATOM     25  C   UNL     1       2.200  -5.494  -2.309  0.00  0.00    +0.009 A 
ATOM     26  C   UNL     1       1.795  -6.601  -1.588  0.00  0.00    +0.038 A 
ATOM     27  C   UNL     1       2.566  -7.061  -0.535  0.00  0.00    +0.123 A 
ATOM     28  C   UNL     1       3.746  -6.415  -0.208  0.00  0.00    +0.038 A 
ATOM     29  C   UNL     1       4.152  -5.311  -0.933  0.00  0.00    +0.009 A 
ATOM     30  F   UNL     1       2.168  -8.141   0.173  0.00  0.00    -0.205 F 
ENDBRANCH  23  24
BRANCH  23  31
ATOM     31  C   UNL     1       2.734  -2.608  -2.761  0.00  0.00    +0.238 C 
ATOM     32  O   UNL     1       2.111  -2.370  -3.773  0.00  0.00    -0.273 OA
ATOM     33  N   UNL     1       2.451  -1.943  -1.623  0.00  0.00    -0.311 N 
ATOM     34  H   UNL     1       2.950  -2.134  -0.813  0.00  0.00    +0.149 HD
BRANCH  33  35
ATOM     35  C   UNL     1       1.391  -0.933  -1.609  0.00  0.00    +0.135 C 
BRANCH  35  36
ATOM     36  C   UNL     1       1.275  -0.334  -0.206  0.00  0.00    +0.135 C 
ATOM     37  C   UNL     1       0.081   0.639  -0.149  0.00  0.00    +0.035 C 
ATOM     38  C   UNL     1       0.711   1.988   0.275  0.00  0.00    +0.031 C 
ATOM     39  C   UNL     1       2.042   1.534   0.926  0.00  0.00    +0.160 C 
ATOM     40  O   UNL     1       2.457   0.422   0.105  0.00  0.00    -0.375 OA
ENDBRANCH  35  36
ENDBRANCH  33  35
ENDBRANCH  23  31
ENDBRANCH   1  23
TORSDOF 9
