REMARK  Name = ZINC06383768
REMARK  4 active torsions:
REMARK  status: ('A' for Active; 'I' for Inactive)
REMARK    1  A    between atoms: C_1  and  C_2
REMARK    2  A    between atoms: C_2  and  N_9
REMARK    3  A    between atoms: C_10  and  C_12
REMARK    4  A    between atoms: C_12  and  N_13
REMARK                            x       y       z     vdW  Elec       q    Type
REMARK                         _______ _______ _______ _____ _____    ______ ____
ROOT
ATOM      1  N   UNL     1      -3.326   1.586  -0.514  0.00  0.00    -0.307 N 
ATOM      2  C   UNL     1      -4.491   1.884   0.094  0.00  0.00    +0.231 C 
ATOM      3  O   UNL     1      -4.682   3.001   0.526  0.00  0.00    -0.274 OA
ATOM      4  H   UNL     1      -3.173   0.692  -0.859  0.00  0.00    +0.149 HD
ENDROOT
BRANCH   1   6
ATOM      5  C   UNL     1      -2.841   3.782  -1.470  0.00  0.00    +0.033 C 
ATOM      6  C   UNL     1      -2.289   2.612  -0.653  0.00  0.00    +0.053 C 
ATOM      7  C   UNL     1      -1.876   3.112   0.741  0.00  0.00    +0.049 C 
ATOM      8  C   UNL     1      -1.039   1.995   1.430  0.00  0.00    +0.168 C 
ATOM      9  S   UNL     1      -0.017   1.417   0.010  0.00  0.00    -0.029 S 
ATOM     10  O   UNL     1       0.002  -0.004   0.002  0.00  0.00    -0.174 OA
ATOM     11  O   UNL     1       1.210   2.133   0.002  0.00  0.00    -0.174 OA
ATOM     12  C   UNL     1      -1.064   2.009  -1.382  0.00  0.00    +0.191 C 
ENDBRANCH   1   6
BRANCH   2  13
ATOM     13  C   UNL     1      -5.558   0.829   0.237  0.00  0.00    +0.212 C 
BRANCH  13  14
ATOM     14  N   UNL     1      -6.718   1.398   0.927  0.00  0.00    -0.225 N 
ATOM     15  C   UNL     1      -6.893   1.385   2.261  0.00  0.00    +0.254 C 
ATOM     16  O   UNL     1      -6.125   0.906   3.071  0.00  0.00    -0.270 OA
ATOM     17  C   UNL     1      -8.173   2.053   2.575  0.00  0.00    +0.049 A 
ATOM     18  C   UNL     1      -8.857   2.332   3.747  0.00  0.00    +0.014 A 
ATOM     19  C   UNL     1     -10.077   2.988   3.691  0.00  0.00    +0.001 A 
ATOM     20  C   UNL     1     -10.614   3.366   2.475  0.00  0.00    +0.001 A 
ATOM     21  C   UNL     1      -9.941   3.094   1.294  0.00  0.00    +0.014 A 
ATOM     22  C   UNL     1      -8.721   2.438   1.335  0.00  0.00    +0.049 A 
ATOM     23  C   UNL     1      -7.752   1.997   0.309  0.00  0.00    +0.254 C 
ATOM     24  O   UNL     1      -7.870   2.150  -0.890  0.00  0.00    -0.270 OA
ENDBRANCH  13  14
ENDBRANCH   2  13
TORSDOF 3
