REMARK  Name = ZINC63513789
REMARK  10 active torsions:
REMARK  status: ('A' for Active; 'I' for Inactive)
REMARK    1  A    between atoms: C_1  and  C_2
REMARK    2  A    between atoms: C_3  and  C_20
REMARK    3  A    between atoms: C_4  and  C_17
REMARK    4  A    between atoms: C_5  and  C_16
REMARK    5  A    between atoms: N_6  and  C_7
REMARK    6  A    between atoms: C_7  and  C_8
REMARK    7  A    between atoms: C_20  and  N_21
REMARK    8  A    between atoms: N_21  and  C_22
REMARK    9  A    between atoms: C_22  and  C_23
REMARK   10  A    between atoms: C_23  and  C_24
REMARK                            x       y       z     vdW  Elec       q    Type
REMARK                         _______ _______ _______ _____ _____    ______ ____
ROOT
ATOM      1  C   UNL     1      -0.542   0.488  -0.639  0.00  0.00    +0.064 C 
ATOM      2  C   UNL     1      -0.214  -0.863  -0.057  0.00  0.00    +0.018 A 
ATOM      3  C   UNL     1      -0.134  -2.011  -0.750  0.00  0.00    -0.030 A 
ATOM      4  C   UNL     1       0.209  -3.057   0.221  0.00  0.00    +0.085 A 
ATOM      5  C   UNL     1       0.306  -2.422   1.443  0.00  0.00    +0.031 A 
ATOM      6  N   UNL     1       0.056  -1.114   1.257  0.00  0.00    -0.343 N 
ATOM      7  C   UNL     1       0.640  -3.080   2.757  0.00  0.00    +0.064 C 
ENDROOT
BRANCH   4   8
ATOM      8  C   UNL     1       0.407  -4.486  -0.051  0.00  0.00    +0.388 C 
ATOM      9  O   UNL     1       0.288  -4.914  -1.192  0.00  0.00    -0.241 OA
ATOM     10  O   UNL     1       0.691  -5.250   0.862  0.00  0.00    -0.241 OA
ENDBRANCH   4   8
BRANCH   6  11
ATOM     11  C   UNL     1       0.068  -0.102   2.316  0.00  0.00    +0.158 C 
BRANCH  11  12
ATOM     12  C   UNL     1       1.482   0.365   2.549  0.00  0.00    -0.009 A 
ATOM     13  C   UNL     1       2.342  -0.394   3.320  0.00  0.00    +0.009 A 
ATOM     14  C   UNL     1       3.638   0.034   3.534  0.00  0.00    +0.039 A 
ATOM     15  C   UNL     1       4.077   1.223   2.976  0.00  0.00    +0.125 A 
ATOM     16  C   UNL     1       3.216   1.982   2.203  0.00  0.00    +0.058 A 
ATOM     17  C   UNL     1       1.919   1.550   1.985  0.00  0.00    +0.049 A 
ATOM     18 CL   UNL     1       0.840   2.499   1.011  0.00  0.00    -0.083 Cl
ATOM     19  F   UNL     1       5.344   1.641   3.185  0.00  0.00    -0.205 F 
ENDBRANCH  11  12
ENDBRANCH   6  11
BRANCH   3  20
ATOM     20  C   UNL     1      -0.353  -2.189  -2.231  0.00  0.00    -0.044 C 
BRANCH  20  21
ATOM     21  N   UNL     1       0.923  -2.017  -2.939  0.00  0.00    +0.382 N 
ATOM     22  H   UNL     1       1.284  -1.092  -2.761  0.00  0.00    -0.085 HD
ATOM     23  H   UNL     1       1.585  -2.705  -2.611  0.00  0.00    -0.085 HD
BRANCH  21  24
ATOM     24  C   UNL     1       0.710  -2.191  -4.382  0.00  0.00    -0.078 C 
BRANCH  24  25
ATOM     25  C   UNL     1       2.038  -2.011  -5.119  0.00  0.00    +0.014 C 
BRANCH  25  26
ATOM     26  C   UNL     1       1.819  -2.190  -6.599  0.00  0.00    -0.043 C 
ATOM     27  C   UNL     1       1.601  -1.216  -7.512  0.00  0.00    -0.001 A 
ATOM     28  C   UNL     1       1.506   0.244  -7.404  0.00  0.00    +0.010 A 
ATOM     29  C   UNL     1       1.274   0.971  -8.521  0.00  0.00    +0.001 A 
ATOM     30  C   UNL     1       1.123   0.365  -9.776  0.00  0.00    +0.002 A 
ATOM     31  C   UNL     1       1.198  -0.971  -9.955  0.00  0.00    +0.026 A 
ATOM     32  C   UNL     1       1.439  -1.831  -8.849  0.00  0.00    +0.043 A 
ATOM     33  N   UNL     1       1.552  -3.135  -8.765  0.00  0.00    -0.380 N 
ATOM     34  C   UNL     1       1.806  -3.494  -7.365  0.00  0.00    +0.144 C 
ATOM     35  H   UNL     1       1.484  -3.757  -9.506  0.00  0.00    +0.160 HD
ENDBRANCH  25  26
ENDBRANCH  24  25
ENDBRANCH  21  24
ENDBRANCH  20  21
ENDBRANCH   3  20
TORSDOF 8
