REMARK  Name = ZINC32089131
REMARK  7 active torsions:
REMARK  status: ('A' for Active; 'I' for Inactive)
REMARK    1  A    between atoms: C_1  and  C_2
REMARK    2  A    between atoms: N_5  and  C_11
REMARK    3  A    between atoms: C_7  and  C_10
REMARK    4  A    between atoms: C_11  and  C_13
REMARK    5  A    between atoms: C_11  and  C_15
REMARK    6  A    between atoms: C_13  and  N_14
REMARK    7  A    between atoms: C_18  and  O_22
REMARK                            x       y       z     vdW  Elec       q    Type
REMARK                         _______ _______ _______ _____ _____    ______ ____
ROOT
ATOM      1  C   UNL     1       0.012   1.142   2.429  0.00  0.00    +0.070 C 
ENDROOT
BRANCH   1   5
ATOM      2  C   UNL     1      -3.674   0.234  -0.706  0.00  0.00    +0.039 C 
ATOM      3  C   UNL     1      -2.561   1.211  -0.323  0.00  0.00    +0.130 C 
ATOM      4  C   UNL     1      -1.815   0.681   0.905  0.00  0.00    +0.116 C 
ATOM      5  N   UNL     1      -0.698   1.584   1.222  0.00  0.00    -0.292 NA
ATOM      6  C   UNL     1       0.222   1.694   0.081  0.00  0.00    +0.116 C 
ATOM      7  C   UNL     1      -0.545   2.214  -1.139  0.00  0.00    +0.130 C 
ATOM      8  O   UNL     1      -1.644   1.341  -1.412  0.00  0.00    -0.371 OA
ATOM      9  C   UNL     1       0.389   2.257  -2.349  0.00  0.00    +0.039 C 
ENDBRANCH   1   5
BRANCH   1  10
ATOM     10  C   UNL     1      -0.605   1.792   3.641  0.00  0.00    -0.031 A 
ATOM     11  C   UNL     1      -1.980   1.847   3.770  0.00  0.00    +0.009 A 
ATOM     12  C   UNL     1      -2.548   2.438   4.882  0.00  0.00    +0.047 A 
ATOM     13  C   UNL     1      -1.738   2.985   5.865  0.00  0.00    +0.131 A 
ATOM     14  C   UNL     1      -0.357   2.933   5.732  0.00  0.00    +0.060 A 
ATOM     15  C   UNL     1       0.206   2.336   4.620  0.00  0.00    +0.024 A 
ATOM     16 BR   UNL     1       0.752   3.678   7.070  0.00  0.00    -0.047 Br
BRANCH  13  17
ATOM     17  O   UNL     1      -2.294   3.572   6.958  0.00  0.00    -0.506 OA
ATOM     18  H   UNL     1      -1.651   4.005   7.738  0.00  0.00    +0.292 HD
ENDBRANCH  13  17
ENDBRANCH   1  10
BRANCH   1  19
ATOM     19  C   UNL     1      -0.096  -0.379   2.556  0.00  0.00    -0.063 C 
BRANCH  19  20
ATOM     20  N   UNL     1       0.491  -1.012   1.368  0.00  0.00    +0.379 N 
ATOM     21  H   UNL     1       0.414  -2.106   1.459  0.00  0.00    -0.090 HD
ATOM     22  H   UNL     1       1.550  -0.726   1.284  0.00  0.00    -0.090 HD
ATOM     23  H   UNL     1      -0.051  -0.680   0.470  0.00  0.00    -0.090 HD
ENDBRANCH  19  20
ENDBRANCH   1  19
TORSDOF 5
