REMARK  Name = ZINC40253238
REMARK  6 active torsions:
REMARK  status: ('A' for Active; 'I' for Inactive)
REMARK    1  A    between atoms: C_1  and  C_2
REMARK    2  A    between atoms: C_2  and  C_3
REMARK    3  A    between atoms: C_8  and  N_9
REMARK    4  A    between atoms: C_11  and  C_16
REMARK    5  A    between atoms: N_24  and  C_25
REMARK    6  A    between atoms: C_25  and  C_26
REMARK                            x       y       z     vdW  Elec       q    Type
REMARK                         _______ _______ _______ _____ _____    ______ ____
ROOT
ATOM      1  C   UNL     1       0.692  -0.834  -5.258  0.00  0.00    +0.116 A 
ATOM      2  N   UNL     1       1.841  -0.489  -4.755  0.00  0.00    -0.232 NA
ATOM      3  C   UNL     1       2.839  -0.878  -5.589  0.00  0.00    +0.089 A 
ATOM      4  C   UNL     1       4.231  -0.766  -5.544  0.00  0.00    +0.030 A 
ATOM      5  C   UNL     1       4.988  -1.270  -6.564  0.00  0.00    +0.002 A 
ATOM      6  C   UNL     1       4.389  -1.895  -7.648  0.00  0.00    +0.002 A 
ATOM      7  C   UNL     1       3.017  -2.017  -7.714  0.00  0.00    +0.028 A 
ATOM      8  C   UNL     1       2.232  -1.511  -6.687  0.00  0.00    +0.069 A 
ATOM      9  N   UNL     1       0.873  -1.472  -6.445  0.00  0.00    -0.318 N 
ENDROOT
BRANCH   1  12
ATOM     10  N   UNL     1      -1.505  -0.315  -2.391  0.00  0.00    -0.270 N 
ATOM     11  C   UNL     1      -0.735  -1.242  -3.227  0.00  0.00    +0.125 C 
ATOM     12  C   UNL     1      -0.646  -0.570  -4.615  0.00  0.00    +0.082 C 
ATOM     13  C   UNL     1      -0.801   0.925  -4.252  0.00  0.00    +0.109 C 
ATOM     14  C   UNL     1      -1.559   0.910  -2.943  0.00  0.00    +0.221 C 
ATOM     15  O   UNL     1      -2.130   1.865  -2.460  0.00  0.00    -0.275 OA
BRANCH  10  21
ATOM     16  C   UNL     1      -1.412  -0.526   0.013  0.00  0.00    -0.026 A 
ATOM     17  C   UNL     1      -2.015  -0.864   1.208  0.00  0.00    +0.005 A 
ATOM     18  C   UNL     1      -3.312  -1.342   1.219  0.00  0.00    +0.000 A 
ATOM     19  C   UNL     1      -4.010  -1.484   0.034  0.00  0.00    +0.002 A 
ATOM     20  C   UNL     1      -3.413  -1.147  -1.165  0.00  0.00    +0.024 A 
ATOM     21  C   UNL     1      -2.111  -0.661  -1.179  0.00  0.00    +0.039 A 
BRANCH  16  23
ATOM     22  C   UNL     1      -0.019   1.526   0.010  0.00  0.00    +0.009 C 
ATOM     23  C   UNL     1       0.002  -0.004   0.002  0.00  0.00    +0.033 C 
ENDBRANCH  16  23
ENDBRANCH  10  21
ENDBRANCH   1  12
BRANCH   9  24
ATOM     24  C   UNL     1      -0.178  -2.015  -7.309  0.00  0.00    +0.219 C 
BRANCH  24  25
ATOM     25  C   UNL     1      -0.621  -0.957  -8.287  0.00  0.00    +0.235 C 
ATOM     26  O   UNL     1      -0.109   0.142  -8.264  0.00  0.00    -0.274 OA
ATOM     27  N   UNL     1      -1.586  -1.232  -9.186  0.00  0.00    -0.300 N 
ATOM     28  C   UNL     1      -2.220  -2.557  -9.222  0.00  0.00    +0.108 C 
ATOM     29  C   UNL     1      -3.739  -2.380  -9.132  0.00  0.00    +0.019 C 
ATOM     30  C   UNL     1      -4.204  -1.430 -10.239  0.00  0.00    +0.003 C 
ATOM     31  C   UNL     1      -3.546  -0.062 -10.050  0.00  0.00    +0.019 C 
ATOM     32  C   UNL     1      -2.029  -0.211 -10.146  0.00  0.00    +0.108 C 
ENDBRANCH  24  25
ENDBRANCH   9  24
TORSDOF 5
