REMARK  Name = ZINC20872738
REMARK  6 active torsions:
REMARK  status: ('A' for Active; 'I' for Inactive)
REMARK    1  A    between atoms: C_9  and  O_23
REMARK    2  A    between atoms: C_10  and  C_11
REMARK    3  A    between atoms: C_11  and  N_12
REMARK    4  A    between atoms: N_12  and  C_13
REMARK    5  A    between atoms: O_23  and  C_24
REMARK    6  A    between atoms: C_24  and  C_25
REMARK                            x       y       z     vdW  Elec       q    Type
REMARK                         _______ _______ _______ _____ _____    ______ ____
ROOT
ATOM      1  C   UNL     1      -0.013   1.076   0.008  0.00  0.00    +0.001 A 
ATOM      2  C   UNL     1      -1.235   1.746   0.017  0.00  0.00    +0.001 A 
ATOM      3  C   UNL     1      -1.288   3.105   0.030  0.00  0.00    +0.009 A 
ATOM      4  C   UNL     1      -0.095   3.849   0.023  0.00  0.00    -0.013 A 
ATOM      5  C   UNL     1       1.148   3.167   0.008  0.00  0.00    -0.017 A 
ATOM      6  C   UNL     1       1.163   1.762   0.000  0.00  0.00    +0.008 A 
ATOM      7  C   UNL     1       2.342   3.909  -0.001  0.00  0.00    +0.012 A 
ATOM      8  C   UNL     1       2.292   5.268   0.006  0.00  0.00    +0.046 A 
ATOM      9  C   UNL     1       1.067   5.942   0.021  0.00  0.00    +0.123 A 
ATOM     10  C   UNL     1      -0.112   5.253   0.029  0.00  0.00    -0.015 A 
ENDROOT
BRANCH  10  11
ATOM     11  C   UNL     1      -1.423   5.995   0.045  0.00  0.00    -0.042 C 
BRANCH  11  12
ATOM     12  N   UNL     1      -1.837   6.230   1.435  0.00  0.00    +0.386 N 
ATOM     13  H   UNL     1      -1.955   5.265   1.950  0.00  0.00    -0.085 HD
ATOM     14  H   UNL     1      -1.071   6.828   1.949  0.00  0.00    -0.085 HD
BRANCH  12  15
ATOM     15  C   UNL     1      -3.115   6.953   1.489  0.00  0.00    -0.067 C 
ATOM     16  C   UNL     1      -4.197   6.129   0.788  0.00  0.00    -0.009 C 
ATOM     17  C   UNL     1      -5.527   6.882   0.844  0.00  0.00    -0.012 C 
ATOM     18  C   UNL     1      -5.924   7.108   2.305  0.00  0.00    +0.007 C 
ATOM     19  C   UNL     1      -4.842   7.931   3.006  0.00  0.00    -0.012 C 
ATOM     20  C   UNL     1      -3.511   7.178   2.950  0.00  0.00    -0.009 C 
ATOM     21  C   UNL     1      -4.694   9.282   2.304  0.00  0.00    +0.007 C 
ATOM     22  C   UNL     1      -4.297   9.057   0.843  0.00  0.00    -0.012 C 
ATOM     23  C   UNL     1      -5.379   8.233   0.142  0.00  0.00    +0.007 C 
ATOM     24  C   UNL     1      -2.966   8.304   0.787  0.00  0.00    -0.009 C 
ENDBRANCH  12  15
ENDBRANCH  11  12
ENDBRANCH  10  11
BRANCH   9  25
ATOM     25  O   UNL     1       1.050   7.301   0.027  0.00  0.00    -0.483 OA
BRANCH  25  26
ATOM     26  C   UNL     1       2.315   7.966   0.018  0.00  0.00    +0.324 C 
BRANCH  26  27
ATOM     27  C   UNL     1       2.098   9.457   0.027  0.00  0.00    +0.248 C 
ATOM     28  O   UNL     1       0.971   9.906   0.040  0.00  0.00    -0.272 OA
ATOM     29  N   UNL     1       3.156  10.292   0.021  0.00  0.00    -0.327 N 
ATOM     30  H   UNL     1       2.998  11.380   0.027  0.00  0.00    +0.145 HD
ATOM     31  H   UNL     1       4.178   9.885   0.009  0.00  0.00    +0.145 HD
ENDBRANCH  26  27
ENDBRANCH  25  26
ENDBRANCH   9  25
TORSDOF 6
