REMARK  Name = ZINC10912310
REMARK  4 active torsions:
REMARK  status: ('A' for Active; 'I' for Inactive)
REMARK    1  A    between atoms: C_3  and  C_24
REMARK    2  A    between atoms: N_4  and  C_11
REMARK    3  A    between atoms: C_7  and  C_8
REMARK    4  A    between atoms: C_11  and  C_12
REMARK                            x       y       z     vdW  Elec       q    Type
REMARK                         _______ _______ _______ _____ _____    ______ ____
ROOT
ATOM      1  C   UNL     1       0.069   1.471  -0.009  0.00  0.00    +0.020 A 
ATOM      2  C   UNL     1       1.308   2.072  -0.231  0.00  0.00    +0.031 A 
ATOM      3  C   UNL     1       2.438   1.319  -0.243  0.00  0.00    +0.126 A 
ATOM      4  N   UNL     1       2.392  -0.019  -0.041  0.00  0.00    -0.300 N 
ATOM      5  C   UNL     1       1.222  -0.649   0.178  0.00  0.00    +0.264 A 
ATOM      6  O   UNL     1       1.201  -1.855   0.357  0.00  0.00    -0.267 OA
ATOM      7  C   UNL     1       0.014   0.095   0.199  0.00  0.00    +0.101 A 
ENDROOT
BRANCH   7   8
ATOM      8  C   UNL     1      -1.274  -0.576   0.438  0.00  0.00    +0.247 C 
ATOM      9  O   UNL     1      -2.312   0.049   0.335  0.00  0.00    -0.270 OA
ATOM     10  N   UNL     1      -1.302  -1.882   0.769  0.00  0.00    -0.325 N 
ATOM     11  H   UNL     1      -0.481  -2.398   0.777  0.00  0.00    +0.145 HD
ATOM     12  H   UNL     1      -2.144  -2.305   0.999  0.00  0.00    +0.145 HD
ENDBRANCH   7   8
BRANCH   3  13
ATOM     13  C   UNL     1       3.768   1.985  -0.485  0.00  0.00    +0.433 C 
ATOM     14  F   UNL     1       3.564   3.335  -0.790  0.00  0.00    -0.164 F 
ATOM     15  F   UNL     1       4.557   1.881   0.665  0.00  0.00    -0.164 F 
ATOM     16  F   UNL     1       4.416   1.358  -1.554  0.00  0.00    -0.164 F 
ENDBRANCH   3  13
BRANCH   4  17
ATOM     17  C   UNL     1       3.635  -0.794  -0.062  0.00  0.00    +0.160 C 
BRANCH  17  18
ATOM     18  C   UNL     1       3.976  -1.235   1.338  0.00  0.00    -0.023 A 
ATOM     19  C   UNL     1       4.649  -0.374   2.187  0.00  0.00    +0.055 A 
ATOM     20  C   UNL     1       4.960  -0.782   3.473  0.00  0.00    +0.164 A 
ATOM     21  C   UNL     1       4.598  -2.049   3.908  0.00  0.00    +0.180 A 
ATOM     22  C   UNL     1       3.924  -2.908   3.056  0.00  0.00    +0.086 A 
ATOM     23  C   UNL     1       3.610  -2.495   1.772  0.00  0.00    +0.029 A 
ATOM     24 CL   UNL     1       3.470  -4.494   3.597  0.00  0.00    -0.080 Cl
ATOM     25  O   UNL     1       4.909  -2.441   5.178  0.00  0.00    -0.487 OA
ATOM     26  C   UNL     1       6.299  -2.630   5.450  0.00  0.00    +0.232 C 
ATOM     27  C   UNL     1       6.961  -1.310   5.815  0.00  0.00    +0.082 C 
ATOM     28  C   UNL     1       6.958  -0.323   4.659  0.00  0.00    +0.232 C 
ATOM     29  O   UNL     1       5.623   0.058   4.320  0.00  0.00    -0.488 OA
ENDBRANCH  17  18
ENDBRANCH   4  17
TORSDOF 4
