REMARK  Name = ZINC06276816
REMARK  5 active torsions:
REMARK  status: ('A' for Active; 'I' for Inactive)
REMARK    1  A    between atoms: C_4  and  C_7
REMARK    2  A    between atoms: C_7  and  C_8
REMARK    3  A    between atoms: C_7  and  S_14
REMARK    4  A    between atoms: S_14  and  C_15
REMARK    5  A    between atoms: C_19  and  N_21
REMARK                            x       y       z     vdW  Elec       q    Type
REMARK                         _______ _______ _______ _____ _____    ______ ____
ROOT
ATOM      1  C   UNL     1       3.711  -0.707  -0.039  0.00  0.00    +0.114 C 
ENDROOT
BRANCH   1   5
ATOM      2  C   UNL     1      -0.113   1.196  -0.084  0.00  0.00    +0.000 A 
ATOM      3  C   UNL     1       1.038   1.958  -0.010  0.00  0.00    +0.000 A 
ATOM      4  C   UNL     1       2.275   1.343   0.005  0.00  0.00    +0.005 A 
ATOM      5  C   UNL     1       2.362  -0.036  -0.055  0.00  0.00    -0.030 A 
ATOM      6  C   UNL     1       1.211  -0.798  -0.128  0.00  0.00    +0.005 A 
ATOM      7  C   UNL     1      -0.026  -0.183  -0.143  0.00  0.00    +0.000 A 
ENDBRANCH   1   5
BRANCH   1   8
ATOM      8  C   UNL     1       4.430  -0.421  -1.332  0.00  0.00    -0.030 A 
ATOM      9  C   UNL     1       4.856   0.862  -1.617  0.00  0.00    +0.005 A 
ATOM     10  C   UNL     1       5.520   1.123  -2.801  0.00  0.00    +0.000 A 
ATOM     11  C   UNL     1       5.748   0.103  -3.705  0.00  0.00    +0.000 A 
ATOM     12  C   UNL     1       5.317  -1.180  -3.423  0.00  0.00    +0.000 A 
ATOM     13  C   UNL     1       4.658  -1.442  -2.236  0.00  0.00    +0.005 A 
ENDBRANCH   1   8
BRANCH   1  14
ATOM     14  S   UNL     1       4.686  -0.069   1.347  0.00  0.00    -0.073 S 
BRANCH  14  15
ATOM     15  C   UNL     1       3.719  -0.657   2.697  0.00  0.00    +0.192 A 
ATOM     16  N   UNL     1       2.617  -1.350   2.449  0.00  0.00    -0.207 NA
ATOM     17  C   UNL     1       1.865  -1.815   3.444  0.00  0.00    +0.122 A 
ATOM     18  C   UNL     1       2.244  -1.554   4.758  0.00  0.00    +0.086 A 
ATOM     19  C   UNL     1       3.404  -0.818   4.979  0.00  0.00    +0.122 A 
ATOM     20  N   UNL     1       4.110  -0.391   3.935  0.00  0.00    -0.207 NA
ATOM     21  N   UNL     1       0.717  -2.544   3.175  0.00  0.00    -0.343 N 
ATOM     22  H   UNL     1       0.172  -2.876   3.905  0.00  0.00    +0.144 HD
ATOM     23  H   UNL     1       0.459  -2.722   2.257  0.00  0.00    +0.144 HD
BRANCH  19  24
ATOM     24  N   UNL     1       3.820  -0.535   6.271  0.00  0.00    -0.343 N 
ATOM     25  H   UNL     1       4.630  -0.022   6.418  0.00  0.00    +0.144 HD
ATOM     26  H   UNL     1       3.301  -0.850   7.028  0.00  0.00    +0.144 HD
ENDBRANCH  19  24
ENDBRANCH  14  15
ENDBRANCH   1  14
TORSDOF 5
