REMARK  Name = ZINC19770931
REMARK  9 active torsions:
REMARK  status: ('A' for Active; 'I' for Inactive)
REMARK    1  A    between atoms: C_1  and  C_2
REMARK    2  A    between atoms: C_3  and  C_31
REMARK    3  A    between atoms: C_4  and  C_22
REMARK    4  A    between atoms: C_10  and  C_15
REMARK    5  A    between atoms: C_25  and  N_28
REMARK    6  A    between atoms: N_28  and  C_29
REMARK    7  A    between atoms: N_28  and  C_30
REMARK    8  A    between atoms: C_31  and  O_33
REMARK    9  A    between atoms: O_33  and  C_34
REMARK                            x       y       z     vdW  Elec       q    Type
REMARK                         _______ _______ _______ _____ _____    ______ ____
ROOT
ATOM      1  C   UNL     1      -7.096   0.737  -3.865  0.00  0.00    +0.061 C 
ATOM      2  C   UNL     1      -6.483   0.655  -2.491  0.00  0.00    +0.016 C 
ATOM      3  C   UNL     1      -7.249   0.331  -1.436  0.00  0.00    +0.065 C 
ATOM      4  C   UNL     1      -6.672   0.232  -0.054  0.00  0.00    +0.092 C 
ATOM      5  C   UNL     1      -5.339   0.933   0.026  0.00  0.00    +0.024 C 
ATOM      6  C   UNL     1      -4.648   1.233  -1.094  0.00  0.00    +0.016 C 
ATOM      7  N   UNL     1      -5.150   0.910  -2.326  0.00  0.00    -0.321 N 
ATOM      8  C   UNL     1      -3.313   1.931  -1.020  0.00  0.00    +0.059 C 
ATOM      9  C   UNL     1      -2.602   1.545   0.279  0.00  0.00    +0.033 C 
ATOM     10  C   UNL     1      -3.501   1.934   1.458  0.00  0.00    +0.088 C 
ATOM     11  C   UNL     1      -4.836   1.260   1.298  0.00  0.00    +0.162 C 
ATOM     12  O   UNL     1      -5.492   0.994   2.286  0.00  0.00    -0.292 OA
ATOM     13  H   UNL     1      -4.469   0.858  -3.189  0.00  0.00    +0.152 HD
ENDROOT
BRANCH   9  14
ATOM     14  C   UNL     1      -1.291   2.281   0.377  0.00  0.00    -0.025 A 
ATOM     15  C   UNL     1      -1.273   3.663   0.394  0.00  0.00    +0.005 A 
ATOM     16  C   UNL     1      -0.070   4.338   0.478  0.00  0.00    +0.000 A 
ATOM     17  C   UNL     1       1.116   3.631   0.551  0.00  0.00    +0.001 A 
ATOM     18  C   UNL     1       1.099   2.250   0.541  0.00  0.00    +0.020 A 
ATOM     19  C   UNL     1      -0.105   1.573   0.456  0.00  0.00    +0.044 A 
ATOM     20 CL   UNL     1      -0.127  -0.163   0.443  0.00  0.00    -0.083 Cl
ENDBRANCH   9  14
BRANCH   4  21
ATOM     21  C   UNL     1      -6.489  -1.221   0.301  0.00  0.00    -0.035 A 
ATOM     22  C   UNL     1      -5.646  -2.015  -0.455  0.00  0.00    +0.006 A 
ATOM     23  C   UNL     1      -5.472  -3.346  -0.129  0.00  0.00    +0.023 A 
ATOM     24  C   UNL     1      -6.153  -3.889   0.953  0.00  0.00    +0.029 A 
ATOM     25  C   UNL     1      -7.003  -3.090   1.707  0.00  0.00    +0.023 A 
ATOM     26  C   UNL     1      -7.168  -1.759   1.379  0.00  0.00    +0.006 A 
BRANCH  24  27
ATOM     27  N   UNL     1      -5.984  -5.236   1.282  0.00  0.00    -0.336 N 
ATOM     28  C   UNL     1      -6.703  -5.807   2.423  0.00  0.00    +0.129 C 
ATOM     29  C   UNL     1      -5.087  -6.077   0.486  0.00  0.00    +0.129 C 
ENDBRANCH  24  27
ENDBRANCH   4  21
BRANCH   3  30
ATOM     30  C   UNL     1      -8.627   0.079  -1.631  0.00  0.00    +0.337 C 
ATOM     31  O   UNL     1      -9.130   0.258  -2.725  0.00  0.00    -0.245 OA
BRANCH  30  32
ATOM     32  O   UNL     1      -9.385  -0.360  -0.604  0.00  0.00    -0.465 OA
ATOM     33  C   UNL     1     -10.769  -0.594  -0.873  0.00  0.00    +0.280 C 
ENDBRANCH  30  32
ENDBRANCH   3  30
TORSDOF 5
