REMARK  Name = ZINC18246044
REMARK  7 active torsions:
REMARK  status: ('A' for Active; 'I' for Inactive)
REMARK    1  A    between atoms: C_4  and  N_7
REMARK    2  A    between atoms: N_9  and  C_26
REMARK    3  A    between atoms: C_12  and  C_15
REMARK    4  A    between atoms: C_15  and  C_16
REMARK    5  A    between atoms: N_18  and  C_19
REMARK    6  A    between atoms: C_26  and  C_27
REMARK    7  A    between atoms: C_27  and  C_28
REMARK                            x       y       z     vdW  Elec       q    Type
REMARK                         _______ _______ _______ _____ _____    ______ ____
ROOT
ATOM      1  N   UNL     1       3.551  -0.620  -0.051  0.00  0.00    -0.226 NA
ATOM      2  C   UNL     1       3.752  -1.645   0.743  0.00  0.00    +0.164 C 
ATOM      3  N   UNL     1       4.886  -2.421   0.861  0.00  0.00    -0.249 N 
ATOM      4  C   UNL     1       4.968  -3.434   1.706  0.00  0.00    +0.235 C 
ATOM      5  O   UNL     1       5.968  -4.112   1.804  0.00  0.00    -0.274 OA
ATOM      6  C   UNL     1       3.728  -3.697   2.546  0.00  0.00    +0.149 C 
ATOM      7  S   UNL     1       2.625  -2.358   1.932  0.00  0.00    -0.077 S 
ENDROOT
BRANCH   1  11
ATOM      8  C   UNL     1      -0.076   1.374   0.021  0.00  0.00    +0.000 A 
ATOM      9  C   UNL     1       1.106   2.094   0.005  0.00  0.00    +0.002 A 
ATOM     10  C   UNL     1       2.318   1.436  -0.019  0.00  0.00    +0.028 A 
ATOM     11  C   UNL     1       2.351   0.040  -0.027  0.00  0.00    +0.067 A 
ATOM     12  C   UNL     1       1.155  -0.681  -0.011  0.00  0.00    +0.028 A 
ATOM     13  C   UNL     1      -0.050  -0.010   0.013  0.00  0.00    +0.002 A 
ENDBRANCH   1  11
BRANCH   6  14
ATOM     14  C   UNL     1       3.145  -5.082   2.255  0.00  0.00    +0.120 C 
BRANCH  14  15
ATOM     15  C   UNL     1       1.996  -5.349   3.193  0.00  0.00    +0.219 C 
ATOM     16  O   UNL     1       1.675  -4.515   4.013  0.00  0.00    -0.275 OA
ATOM     17  N   UNL     1       1.324  -6.516   3.120  0.00  0.00    -0.283 N 
ATOM     18  H   UNL     1       1.538  -7.156   2.424  0.00  0.00    +0.155 HD
BRANCH  17  19
ATOM     19  C   UNL     1       0.318  -6.804   4.051  0.00  0.00    +0.069 A 
ATOM     20  C   UNL     1      -0.485  -5.785   4.544  0.00  0.00    +0.026 A 
ATOM     21  C   UNL     1      -1.477  -6.072   5.462  0.00  0.00    +0.002 A 
ATOM     22  C   UNL     1      -1.671  -7.372   5.890  0.00  0.00    +0.003 A 
ATOM     23  C   UNL     1      -0.873  -8.391   5.402  0.00  0.00    +0.040 A 
ATOM     24  C   UNL     1       0.118  -8.111   4.479  0.00  0.00    +0.144 A 
ATOM     25  F   UNL     1       0.894  -9.107   3.997  0.00  0.00    -0.204 F 
ENDBRANCH  17  19
ENDBRANCH  14  15
ENDBRANCH   6  14
BRANCH   3  26
ATOM     26  C   UNL     1       6.044  -2.110   0.019  0.00  0.00    +0.120 C 
BRANCH  26  27
ATOM     27  C   UNL     1       6.950  -1.113   0.745  0.00  0.00    +0.056 C 
BRANCH  27  28
ATOM     28  C   UNL     1       8.141  -0.793  -0.122  0.00  0.00    -0.021 A 
ATOM     29  C   UNL     1       9.345  -1.385  -0.074  0.00  0.00    +0.087 A 
ATOM     30  N   UNL     1      10.174  -0.832  -1.011  0.00  0.00    -0.360 N 
ATOM     31  H   UNL     1      11.095  -1.095  -1.166  0.00  0.00    +0.165 HD
ATOM     32  C   UNL     1       9.507   0.155  -1.702  0.00  0.00    +0.047 A 
ATOM     33  C   UNL     1       8.202   0.218  -1.180  0.00  0.00    +0.003 A 
ATOM     34  C   UNL     1       7.288   1.136  -1.699  0.00  0.00    +0.010 A 
ATOM     35  C   UNL     1       7.664   1.968  -2.716  0.00  0.00    +0.001 A 
ATOM     36  C   UNL     1       8.949   1.907  -3.238  0.00  0.00    +0.002 A 
ATOM     37  C   UNL     1       9.870   1.014  -2.734  0.00  0.00    +0.026 A 
ENDBRANCH  27  28
ENDBRANCH  26  27
ENDBRANCH   3  26
TORSDOF 7
