REMARK  Name = ZINC06844074
REMARK  5 active torsions:
REMARK  status: ('A' for Active; 'I' for Inactive)
REMARK    1  A    between atoms: C_1  and  C_2
REMARK    2  A    between atoms: C_2  and  C_3
REMARK    3  A    between atoms: C_9  and  C_21
REMARK    4  A    between atoms: C_12  and  C_14
REMARK    5  A    between atoms: C_24  and  C_27
REMARK                            x       y       z     vdW  Elec       q    Type
REMARK                         _______ _______ _______ _____ _____    ______ ____
ROOT
ATOM      1  C   UNL     1      -5.014   3.741  -0.468  0.00  0.00    -0.047 A 
ATOM      2  C   UNL     1      -6.094   3.295   0.269  0.00  0.00    +0.006 A 
ATOM      3  C   UNL     1      -6.022   2.094   0.946  0.00  0.00    +0.029 A 
ATOM      4  C   UNL     1      -4.861   1.315   0.894  0.00  0.00    +0.075 A 
ATOM      5  C   UNL     1      -3.769   1.764   0.148  0.00  0.00    +0.028 A 
ATOM      6  C   UNL     1      -3.860   2.983  -0.533  0.00  0.00    +0.015 A 
ATOM      7  C   UNL     1      -2.504   1.006   0.019  0.00  0.00    +0.098 C 
ATOM      8  N   UNL     1      -2.458  -0.280  -0.088  0.00  0.00    -0.180 NA
ATOM      9  N   UNL     1      -3.625  -1.050   0.008  0.00  0.00    -0.220 N 
ATOM     10  C   UNL     1      -4.352  -0.974   1.185  0.00  0.00    +0.146 C 
ATOM     11  N   UNL     1      -4.865   0.143   1.597  0.00  0.00    -0.230 NA
ATOM     12  H   UNL     1      -3.914  -1.616  -0.724  0.00  0.00    +0.176 HD
ENDROOT
BRANCH  10  13
ATOM     13  C   UNL     1      -4.547  -2.195   1.989  0.00  0.00    +0.016 A 
ATOM     14  C   UNL     1      -5.272  -2.140   3.183  0.00  0.00    +0.014 A 
ATOM     15  C   UNL     1      -5.455  -3.285   3.928  0.00  0.00    +0.039 A 
ATOM     16  C   UNL     1      -4.913  -4.488   3.500  0.00  0.00    +0.123 A 
ATOM     17  C   UNL     1      -4.189  -4.547   2.319  0.00  0.00    +0.039 A 
ATOM     18  C   UNL     1      -4.004  -3.410   1.563  0.00  0.00    +0.014 A 
ATOM     19  F   UNL     1      -5.091  -5.606   4.237  0.00  0.00    -0.205 F 
ENDBRANCH  10  13
BRANCH   7  20
ATOM     20  C   UNL     1      -1.230   1.759   0.017  0.00  0.00    +0.003 A 
ATOM     21  C   UNL     1      -0.089   1.204  -0.565  0.00  0.00    +0.010 A 
ATOM     22  C   UNL     1       1.094   1.914  -0.569  0.00  0.00    +0.004 A 
ATOM     23  C   UNL     1       1.153   3.170   0.009  0.00  0.00    -0.050 A 
ATOM     24  C   UNL     1       0.027   3.723   0.593  0.00  0.00    +0.004 A 
ATOM     25  C   UNL     1      -1.162   3.024   0.604  0.00  0.00    +0.010 A 
ATOM     26  C   UNL     1       2.449   3.939   0.002  0.00  0.00    +0.044 C 
ENDBRANCH   7  20
BRANCH   1  28
ATOM     27  C   UNL     1      -4.609   6.181  -0.288  0.00  0.00    +0.009 C 
ATOM     28  C   UNL     1      -5.094   5.054  -1.203  0.00  0.00    +0.032 C 
ENDBRANCH   1  28
TORSDOF 3
