REMARK  Name = ZINC41071142
REMARK  4 active torsions:
REMARK  status: ('A' for Active; 'I' for Inactive)
REMARK    1  A    between atoms: C_1  and  C_2
REMARK    2  A    between atoms: N_7  and  S_8
REMARK    3  A    between atoms: S_8  and  C_11
REMARK    4  A    between atoms: N_17  and  N_18
REMARK                            x       y       z     vdW  Elec       q    Type
REMARK                         _______ _______ _______ _____ _____    ______ ____
ROOT
ATOM      1  S   UNL     1      -0.096  -5.153  -0.024  0.00  0.00    +0.104 S 
ATOM      2  O   UNL     1      -0.774  -5.121   1.224  0.00  0.00    -0.146 OA
ATOM      3  O   UNL     1      -0.785  -5.108  -1.266  0.00  0.00    -0.146 OA
ENDROOT
BRANCH   1  10
ATOM      4  C   UNL     1      -0.018   1.503   0.010  0.00  0.00    +0.053 C 
ATOM      5  C   UNL     1       0.002  -0.004   0.002  0.00  0.00    +0.006 A 
ATOM      6  C   UNL     1      -1.023  -0.856   0.002  0.00  0.00    +0.095 A 
ATOM      7  N   UNL     1      -0.798  -2.201  -0.006  0.00  0.00    -0.339 N 
ATOM      8  C   UNL     1       0.505  -2.649  -0.014  0.00  0.00    +0.192 A 
ATOM      9  S   UNL     1       1.406  -1.107  -0.018  0.00  0.00    -0.054 S 
ATOM     10  N   UNL     1       0.961  -3.878  -0.022  0.00  0.00    -0.103 NA
ATOM     11  H   UNL     1      -1.538  -2.828  -0.006  0.00  0.00    +0.167 HD
ENDBRANCH   1  10
BRANCH   1  12
ATOM     12  C   UNL     1       0.868  -6.628  -0.036  0.00  0.00    +0.149 A 
ATOM     13  C   UNL     1       1.255  -7.212  -1.232  0.00  0.00    +0.145 A 
ATOM     14  N   UNL     1       1.978  -8.319  -1.206  0.00  0.00    -0.220 NA
ATOM     15  C   UNL     1       2.332  -8.869  -0.054  0.00  0.00    +0.229 A 
ATOM     16  N   UNL     1       1.978  -8.337   1.107  0.00  0.00    -0.220 NA
ATOM     17  C   UNL     1       1.260  -7.227   1.151  0.00  0.00    +0.145 A 
ATOM     18  N   UNL     1       3.089 -10.028  -0.063  0.00  0.00    -0.252 N 
ATOM     19  H   UNL     1       3.354 -10.427  -0.906  0.00  0.00    +0.169 HD
BRANCH  18  20
ATOM     20  N   UNL     1       3.463 -10.609   1.115  0.00  0.00    -0.254 NA
ATOM     21  H   UNL     1       4.008 -11.442   0.951  0.00  0.00    +0.140 HD
ATOM     22  H   UNL     1       3.967  -9.956   1.696  0.00  0.00    +0.140 HD
ENDBRANCH  18  20
ENDBRANCH   1  12
TORSDOF 3
