REMARK  Name = ZINC19824616
REMARK  6 active torsions:
REMARK  status: ('A' for Active; 'I' for Inactive)
REMARK    1  A    between atoms: C_1  and  C_2
REMARK    2  A    between atoms: C_3  and  C_23
REMARK    3  A    between atoms: C_4  and  N_22
REMARK    4  A    between atoms: C_9  and  C_10
REMARK    5  A    between atoms: C_17  and  C_21
REMARK    6  A    between atoms: C_18  and  C_19
REMARK                            x       y       z     vdW  Elec       q    Type
REMARK                         _______ _______ _______ _____ _____    ______ ____
ROOT
ATOM      1  C   UNL     1       4.114   1.700   0.606  0.00  0.00    +0.046 C 
ATOM      2  C   UNL     1       3.265   0.659  -0.077  0.00  0.00    -0.020 A 
ATOM      3  C   UNL     1       3.813  -0.563  -0.483  0.00  0.00    +0.095 A 
ATOM      4  C   UNL     1       2.985  -1.509  -1.117  0.00  0.00    +0.135 A 
ATOM      5  N   UNL     1       1.706  -1.258  -1.332  0.00  0.00    -0.230 NA
ATOM      6  C   UNL     1       1.147  -0.108  -0.962  0.00  0.00    +0.092 A 
ATOM      7  C   UNL     1       1.916   0.885  -0.321  0.00  0.00    +0.013 A 
ATOM      8  C   UNL     1       1.013   2.021  -0.044  0.00  0.00    -0.011 C 
ATOM      9  C   UNL     1       1.361   3.207   0.573  0.00  0.00    +0.019 C 
ATOM     10  C   UNL     1      -0.270   1.677  -0.526  0.00  0.00    -0.023 C 
ATOM     11  C   UNL     1      -0.225   0.414  -1.079  0.00  0.00    +0.081 C 
ATOM     12  C   UNL     1      -1.494   2.554  -0.453  0.00  0.00    +0.046 C 
ENDROOT
BRANCH   9  13
ATOM     13  C   UNL     1       0.320   4.156   0.974  0.00  0.00    +0.011 A 
ATOM     14  C   UNL     1      -0.754   3.732   1.770  0.00  0.00    +0.011 A 
ATOM     15  C   UNL     1      -1.725   4.633   2.146  0.00  0.00    +0.001 A 
ATOM     16  C   UNL     1      -1.651   5.953   1.732  0.00  0.00    +0.003 A 
ATOM     17  C   UNL     1      -0.600   6.383   0.942  0.00  0.00    +0.039 A 
ATOM     18  C   UNL     1       0.388   5.496   0.558  0.00  0.00    +0.131 A 
ATOM     19  F   UNL     1       1.414   5.916  -0.213  0.00  0.00    -0.205 F 
ENDBRANCH   9  13
BRANCH   4  20
ATOM     20  N   UNL     1       3.518  -2.720  -1.522  0.00  0.00    -0.342 N 
ATOM     21  H   UNL     1       2.879  -3.465  -2.018  0.00  0.00    +0.144 HD
ATOM     22  H   UNL     1       4.582  -2.938  -1.347  0.00  0.00    +0.144 HD
ENDBRANCH   4  20
BRANCH  11  23
ATOM     23  C   UNL     1      -1.332  -0.276  -1.670  0.00  0.00    +0.102 C 
ATOM     24  N   UNL     1      -2.210  -0.824  -2.139  0.00  0.00    -0.191 NA
ENDBRANCH  11  23
BRANCH   3  25
ATOM     25  C   UNL     1       5.198  -0.848  -0.255  0.00  0.00    +0.103 C 
ATOM     26  N   UNL     1       6.297  -1.074  -0.075  0.00  0.00    -0.191 NA
ENDBRANCH   3  25
TORSDOF 4
