REMARK  Name = ZINC26219031
REMARK  11 active torsions:
REMARK  status: ('A' for Active; 'I' for Inactive)
REMARK    1  A    between atoms: C_1  and  C_2
REMARK    2  A    between atoms: C_2  and  C_3
REMARK    3  A    between atoms: C_3  and  N_4
REMARK    4  A    between atoms: C_5  and  C_7
REMARK    5  A    between atoms: C_7  and  S_8
REMARK    6  A    between atoms: S_8  and  C_9
REMARK    7  A    between atoms: C_12  and  S_14
REMARK    8  A    between atoms: S_14  and  C_15
REMARK    9  A    between atoms: C_15  and  C_17
REMARK   10  A    between atoms: C_15  and  C_18
REMARK   11  A    between atoms: N_20  and  C_21
REMARK                            x       y       z     vdW  Elec       q    Type
REMARK                         _______ _______ _______ _____ _____    ______ ____
ROOT
ATOM      1  S   UNL     1       2.375  -3.685   5.974  0.00  0.00    -0.084 S 
ENDROOT
BRANCH   1   5
ATOM      2  C   UNL     1      -0.098  -2.811   2.397  0.00  0.00    +0.160 A 
ATOM      3  N   UNL     1       0.960  -2.043   2.573  0.00  0.00    -0.134 NA
ATOM      4  N   UNL     1       1.782  -2.246   3.658  0.00  0.00    -0.134 NA
ATOM      5  C   UNL     1       1.507  -3.208   4.517  0.00  0.00    +0.160 A 
ATOM      6  S   UNL     1       0.016  -3.895   3.812  0.00  0.00    -0.033 S 
BRANCH   2   7
ATOM      7  S   UNL     1      -1.304  -2.773   1.114  0.00  0.00    -0.088 S 
BRANCH   7   8
ATOM      8  C   UNL     1      -0.768  -1.408   0.047  0.00  0.00    +0.172 C 
BRANCH   8  10
ATOM      9  N   UNL     1      -1.527  -0.309  -2.035  0.00  0.00    -0.315 N 
ATOM     10  C   UNL     1      -1.727  -1.265  -1.107  0.00  0.00    +0.223 C 
ATOM     11  O   UNL     1      -2.679  -2.011  -1.200  0.00  0.00    -0.275 OA
ATOM     12  H   UNL     1      -0.663   0.368  -1.951  0.00  0.00    +0.149 HD
BRANCH   9  13
ATOM     13  C   UNL     1      -2.459  -0.170  -3.156  0.00  0.00    +0.104 C 
BRANCH  13  15
ATOM     14  C   UNL     1      -2.980   1.127  -5.228  0.00  0.00    +0.005 C 
ATOM     15  C   UNL     1      -2.006   0.982  -4.056  0.00  0.00    +0.015 C 
ENDBRANCH  13  15
ENDBRANCH   9  13
ENDBRANCH   8  10
ENDBRANCH   7   8
ENDBRANCH   2   7
ENDBRANCH   1   5
BRANCH   1  16
ATOM     16  C   UNL     1       3.775  -2.533   6.048  0.00  0.00    +0.136 C 
ATOM     17  C   UNL     1       4.698  -2.776   4.852  0.00  0.00    +0.029 C 
BRANCH  16  18
ATOM     18  C   UNL     1       4.541  -2.754   7.327  0.00  0.00    +0.230 C 
ATOM     19  O   UNL     1       4.497  -3.832   7.881  0.00  0.00    -0.274 OA
ATOM     20  N   UNL     1       5.274  -1.754   7.855  0.00  0.00    -0.282 N 
ATOM     21  H   UNL     1       5.380  -0.804   7.311  0.00  0.00    +0.155 HD
BRANCH  20  22
ATOM     22  C   UNL     1       5.900  -1.924   9.096  0.00  0.00    +0.071 A 
ATOM     23  C   UNL     1       5.226  -1.601  10.266  0.00  0.00    +0.065 A 
ATOM     24  C   UNL     1       5.845  -1.774  11.490  0.00  0.00    +0.042 A 
ATOM     25  C   UNL     1       7.139  -2.260  11.549  0.00  0.00    +0.044 A 
ATOM     26  C   UNL     1       7.816  -2.578  10.385  0.00  0.00    +0.042 A 
ATOM     27  C   UNL     1       7.200  -2.412   9.158  0.00  0.00    +0.065 A 
ATOM     28 CL   UNL     1       8.049  -2.812   7.698  0.00  0.00    -0.082 Cl
ATOM     29 CL   UNL     1       7.916  -2.470  13.087  0.00  0.00    -0.083 Cl
ATOM     30 CL   UNL     1       3.604  -0.985  10.193  0.00  0.00    -0.082 Cl
ENDBRANCH  20  22
ENDBRANCH  16  18
ENDBRANCH   1  16
TORSDOF 9
