REMARK  Name = ZINC40572064
REMARK  4 active torsions:
REMARK  status: ('A' for Active; 'I' for Inactive)
REMARK    1  A    between atoms: C_1  and  C_2
REMARK    2  A    between atoms: C_7  and  N_10
REMARK    3  A    between atoms: N_13  and  C_14
REMARK    4  A    between atoms: C_14  and  C_20
REMARK                            x       y       z     vdW  Elec       q    Type
REMARK                         _______ _______ _______ _____ _____    ______ ____
ROOT
ATOM      1  N   UNL     1      -0.612  -2.548   1.244  0.00  0.00    -0.297 N 
ATOM      2  C   UNL     1      -0.873  -3.776   1.733  0.00  0.00    +0.301 C 
ATOM      3  O   UNL     1       0.032  -4.463   2.165  0.00  0.00    -0.253 OA
ATOM      4  N   UNL     1      -2.137  -4.243   1.742  0.00  0.00    -0.284 N 
ATOM      5  H   UNL     1      -1.333  -2.000   0.898  0.00  0.00    +0.151 HD
ATOM      6  H   UNL     1      -2.859  -3.694   1.397  0.00  0.00    +0.151 HD
ENDROOT
BRANCH   1  12
ATOM      7  C   UNL     1      -0.019   1.526   0.010  0.00  0.00    +0.007 C 
ATOM      8  C   UNL     1       0.002  -0.004   0.002  0.00  0.00    -0.012 C 
ATOM      9  C   UNL     1       0.718  -0.497  -1.257  0.00  0.00    +0.003 C 
ATOM     10  C   UNL     1       0.739  -2.027  -1.265  0.00  0.00    +0.002 C 
ATOM     11  C   UNL     1       1.479  -2.534  -0.026  0.00  0.00    +0.022 C 
ATOM     12  C   UNL     1       0.763  -2.041   1.233  0.00  0.00    +0.075 C 
ATOM     13  C   UNL     1       0.742  -0.511   1.242  0.00  0.00    +0.025 C 
ENDBRANCH   1  12
BRANCH   4  14
ATOM     14  C   UNL     1      -2.422  -5.578   2.274  0.00  0.00    +0.137 C 
ATOM     15  C   UNL     1      -1.648  -6.623   1.468  0.00  0.00    +0.037 C 
ATOM     16  C   UNL     1      -2.078  -6.556   0.001  0.00  0.00    +0.003 C 
ATOM     17  C   UNL     1      -3.578  -6.839  -0.104  0.00  0.00    +0.000 C 
ATOM     18  C   UNL     1      -4.351  -5.793   0.702  0.00  0.00    +0.003 C 
ATOM     19  C   UNL     1      -3.922  -5.860   2.169  0.00  0.00    +0.037 C 
BRANCH  14  20
ATOM     20  C   UNL     1      -1.998  -5.644   3.719  0.00  0.00    +0.379 C 
ATOM     21  O   UNL     1      -1.505  -4.666   4.255  0.00  0.00    -0.244 OA
ATOM     22  O   UNL     1      -2.149  -6.675   4.352  0.00  0.00    -0.244 OA
ENDBRANCH  14  20
ENDBRANCH   4  14
TORSDOF 3
