REMARK  Name = ZINC27988766
REMARK  11 active torsions:
REMARK  status: ('A' for Active; 'I' for Inactive)
REMARK    1  A    between atoms: C_1  and  C_2
REMARK    2  A    between atoms: C_2  and  O_3
REMARK    3  A    between atoms: O_3  and  C_4
REMARK    4  A    between atoms: C_7  and  C_13
REMARK    5  A    between atoms: C_9  and  O_10
REMARK    6  A    between atoms: O_10  and  C_11
REMARK    7  A    between atoms: C_11  and  C_12
REMARK    8  A    between atoms: C_15  and  C_27
REMARK    9  A    between atoms: C_17  and  C_22
REMARK   10  A    between atoms: C_17  and  O_26
REMARK   11  A    between atoms: C_27  and  C_29
REMARK                            x       y       z     vdW  Elec       q    Type
REMARK                         _______ _______ _______ _____ _____    ______ ____
ROOT
ATOM      1  C   UNL     1       2.489   5.628  -0.713  0.00  0.00    +0.120 C 
ATOM      2  C   UNL     1       1.677   4.549   0.011  0.00  0.00    +0.145 C 
ATOM      3  C   UNL     1       1.452   4.997   1.459  0.00  0.00    +0.243 C 
ATOM      4  N   UNL     1       0.814   6.314   1.460  0.00  0.00    -0.264 N 
ATOM      5  C   UNL     1       1.016   7.188   0.463  0.00  0.00    +0.302 C 
ATOM      6  O   UNL     1       0.470   8.274   0.518  0.00  0.00    -0.253 OA
ATOM      7  N   UNL     1       1.795   6.912  -0.593  0.00  0.00    -0.292 N 
ATOM      8  H   UNL     1       0.153   6.605   2.290  0.00  0.00    +0.153 HD
ATOM      9  H   UNL     1       1.908   7.673  -1.379  0.00  0.00    +0.151 HD
ENDROOT
BRANCH   1  13
ATOM     10  C   UNL     1       2.873   4.595  -4.845  0.00  0.00    +0.162 A 
ATOM     11  C   UNL     1       1.705   5.177  -4.379  0.00  0.00    +0.050 A 
ATOM     12  C   UNL     1       1.582   5.505  -3.042  0.00  0.00    +0.009 A 
ATOM     13  C   UNL     1       2.626   5.264  -2.168  0.00  0.00    -0.023 A 
ATOM     14  C   UNL     1       3.795   4.684  -2.627  0.00  0.00    +0.055 A 
ATOM     15  C   UNL     1       3.922   4.347  -3.965  0.00  0.00    +0.162 A 
BRANCH  10  16
ATOM     16  O   UNL     1       2.994   4.267  -6.159  0.00  0.00    -0.489 OA
BRANCH  16  18
ATOM     17  C   UNL     1       2.197   4.116  -8.435  0.00  0.00    +0.048 C 
ATOM     18  C   UNL     1       1.877   4.551  -7.004  0.00  0.00    +0.226 C 
ENDBRANCH  16  18
ENDBRANCH  10  16
BRANCH  15  19
ATOM     19  O   UNL     1       5.071   3.776  -4.417  0.00  0.00    -0.489 OA
BRANCH  19  20
ATOM     20  C   UNL     1       6.105   3.551  -3.457  0.00  0.00    +0.226 C 
ATOM     21  C   UNL     1       7.309   2.906  -4.147  0.00  0.00    +0.048 C 
ENDBRANCH  19  20
ENDBRANCH  15  19
ENDBRANCH   1  13
BRANCH   3  22
ATOM     22  C   UNL     1       0.545   3.990   2.171  0.00  0.00    +0.436 C 
ATOM     23  F   UNL     1       1.152   2.729   2.162  0.00  0.00    -0.166 F 
ATOM     24  F   UNL     1       0.341   4.400   3.493  0.00  0.00    -0.166 F 
ATOM     25  F   UNL     1      -0.685   3.920   1.508  0.00  0.00    -0.166 F 
ENDBRANCH   3  22
BRANCH   3  26
ATOM     26  O   UNL     1       2.708   5.073   2.136  0.00  0.00    -0.364 OA
ATOM     27  H   UNL     1       2.745   5.380   3.192  0.00  0.00    +0.212 HD
ENDBRANCH   3  26
BRANCH   2  28
ATOM     28  C   UNL     1       2.438   3.248  -0.004  0.00  0.00    +0.179 C 
ATOM     29  O   UNL     1       3.652   3.255  -0.016  0.00  0.00    -0.291 OA
BRANCH  28  30
ATOM     30  C   UNL     1       1.739   2.021  -0.004  0.00  0.00    +0.055 A 
ATOM     31  C   UNL     1       2.243   0.725  -0.015  0.00  0.00    +0.019 A 
ATOM     32  C   UNL     1       1.331  -0.298  -0.012  0.00  0.00    +0.008 A 
ATOM     33  C   UNL     1       0.002  -0.004   0.002  0.00  0.00    +0.046 A 
ATOM     34  S   UNL     1      -0.021   1.729   0.012  0.00  0.00    -0.094 S 
ENDBRANCH  28  30
ENDBRANCH   2  28
TORSDOF 9
