REMARK  Name = ZINC36146077
REMARK  10 active torsions:
REMARK  status: ('A' for Active; 'I' for Inactive)
REMARK    1  A    between atoms: C_4  and  C_7
REMARK    2  A    between atoms: C_7  and  C_8
REMARK    3  A    between atoms: C_8  and  C_10
REMARK    4  A    between atoms: C_8  and  O_34
REMARK    5  A    between atoms: C_10  and  N_11
REMARK    6  A    between atoms: N_11  and  C_12
REMARK    7  A    between atoms: N_11  and  C_19
REMARK    8  A    between atoms: C_12  and  C_13
REMARK    9  A    between atoms: C_19  and  C_20
REMARK   10  A    between atoms: C_23  and  C_26
REMARK                            x       y       z     vdW  Elec       q    Type
REMARK                         _______ _______ _______ _____ _____    ______ ____
ROOT
ATOM      1  N   UNL     1       6.168  -1.768   2.835  0.00  0.00    +0.386 N 
ATOM      2  H   UNL     1       5.590  -2.376   3.397  0.00  0.00    -0.081 HD
ENDROOT
BRANCH   1   3
ATOM      3  C   UNL     1       5.665  -1.751   1.455  0.00  0.00    -0.046 C 
BRANCH   3   4
ATOM      4  C   UNL     1       4.182  -1.374   1.457  0.00  0.00    +0.102 C 
BRANCH   4   5
ATOM      5  O   UNL     1       3.441  -2.360   2.179  0.00  0.00    -0.393 OA
ATOM      6  H   UNL     1       3.509  -3.251   1.810  0.00  0.00    +0.210 HD
ENDBRANCH   4   5
BRANCH   4   7
ATOM      7  C   UNL     1       3.671  -1.306   0.017  0.00  0.00    +0.064 C 
BRANCH   7  11
ATOM      8  C   UNL     1      -0.368   0.082   0.000  0.00  0.00    +0.000 A 
ATOM      9  C   UNL     1       0.674   0.987  -0.080  0.00  0.00    +0.000 A 
ATOM     10  C   UNL     1       1.981   0.538  -0.075  0.00  0.00    +0.004 A 
ATOM     11  C   UNL     1       2.246  -0.816   0.012  0.00  0.00    -0.045 A 
ATOM     12  C   UNL     1       1.204  -1.721   0.093  0.00  0.00    +0.004 A 
ATOM     13  C   UNL     1      -0.103  -1.272   0.086  0.00  0.00    +0.000 A 
ENDBRANCH   7  11
ENDBRANCH   4   7
ENDBRANCH   3   4
ENDBRANCH   1   3
BRANCH   1  14
ATOM     14  C   UNL     1       6.129  -0.407   3.387  0.00  0.00    -0.043 C 
BRANCH  14  15
ATOM     15  C   UNL     1       6.973   0.505   2.535  0.00  0.00    -0.064 A 
ATOM     16  C   UNL     1       8.319   0.658   2.810  0.00  0.00    +0.002 A 
ATOM     17  C   UNL     1       9.094   1.495   2.029  0.00  0.00    +0.000 A 
ATOM     18  C   UNL     1       8.522   2.178   0.971  0.00  0.00    +0.000 A 
ATOM     19  C   UNL     1       7.176   2.024   0.696  0.00  0.00    +0.000 A 
ATOM     20  C   UNL     1       6.403   1.184   1.475  0.00  0.00    +0.002 A 
ENDBRANCH  14  15
ENDBRANCH   1  14
BRANCH   1  21
ATOM     21  C   UNL     1       7.552  -2.262   2.846  0.00  0.00    -0.030 C 
BRANCH  21  22
ATOM     22  C   UNL     1       8.033  -2.398   4.292  0.00  0.00    +0.194 C 
ATOM     23  C   UNL     1       9.505  -2.871   4.344  0.00  0.00    +0.104 C 
ATOM     24  C   UNL     1       9.509  -3.807   5.537  0.00  0.00    +0.091 C 
ATOM     25  N   UNL     1       8.286  -4.098   5.827  0.00  0.00    -0.089 NA
ATOM     26  O   UNL     1       7.353  -3.478   4.963  0.00  0.00    -0.392 OA
BRANCH  24  27
ATOM     27  C   UNL     1      10.707  -4.300   6.245  0.00  0.00    +0.001 A 
ATOM     28  C   UNL     1      11.980  -3.903   5.831  0.00  0.00    +0.011 A 
ATOM     29  C   UNL     1      13.095  -4.366   6.497  0.00  0.00    +0.022 A 
ATOM     30  C   UNL     1      12.955  -5.225   7.574  0.00  0.00    +0.059 A 
ATOM     31  C   UNL     1      11.695  -5.624   7.990  0.00  0.00    +0.060 A 
ATOM     32  C   UNL     1      10.571  -5.162   7.335  0.00  0.00    +0.031 A 
ATOM     33 CL   UNL     1      11.530  -6.701   9.342  0.00  0.00    -0.082 Cl
ATOM     34 CL   UNL     1      14.364  -5.805   8.406  0.00  0.00    -0.082 Cl
ENDBRANCH  24  27
ENDBRANCH  21  22
ENDBRANCH   1  21
TORSDOF 10
