REMARK  Name = ZINC25783473
REMARK  8 active torsions:
REMARK  status: ('A' for Active; 'I' for Inactive)
REMARK    1  A    between atoms: C_4  and  C_7
REMARK    2  A    between atoms: C_7  and  O_8
REMARK    3  A    between atoms: O_8  and  C_9
REMARK    4  A    between atoms: C_13  and  C_15
REMARK    5  A    between atoms: N_16  and  N_17
REMARK    6  A    between atoms: C_18  and  C_20
REMARK    7  A    between atoms: C_21  and  C_31
REMARK    8  A    between atoms: C_31  and  N_32
REMARK                            x       y       z     vdW  Elec       q    Type
REMARK                         _______ _______ _______ _____ _____    ______ ____
ROOT
ATOM      1  N   UNL     1      -3.034   5.995   0.019  0.00  0.00    -0.202 N 
ATOM      2  C   UNL     1      -1.781   6.490  -0.012  0.00  0.00    +0.284 C 
ATOM      3  O   UNL     1      -1.603   7.689  -0.112  0.00  0.00    -0.267 OA
ATOM      4  H   UNL     1      -3.195   4.907   0.028  0.00  0.00    +0.178 HD
ENDROOT
BRANCH   2   5
ATOM      5  C   UNL     1      -0.628   5.580   0.074  0.00  0.00    +0.154 A 
ATOM      6  C   UNL     1       0.187   5.174  -0.951  0.00  0.00    +0.079 A 
ATOM      7  N   UNL     1       1.088   4.352  -0.412  0.00  0.00    -0.135 NA
ATOM      8  N   UNL     1       0.871   4.246   0.850  0.00  0.00    -0.058 NA
ATOM      9  N   UNL     1      -0.141   4.960   1.199  0.00  0.00    -0.183 N 
ATOM     10  C   UNL     1      -0.657   5.080   2.493  0.00  0.00    +0.241 A 
ATOM     11  C   UNL     1      -0.207   4.330   3.669  0.00  0.00    +0.206 A 
ATOM     12  N   UNL     1      -0.915   4.712   4.696  0.00  0.00    -0.032 NA
ATOM     13  O   UNL     1      -1.834   5.694   4.248  0.00  0.00    -0.239 OA
ATOM     14  N   UNL     1      -1.622   5.876   2.859  0.00  0.00    -0.027 NA
ATOM     15  N   UNL     1       0.806   3.378   3.688  0.00  0.00    -0.337 N 
ATOM     16  H   UNL     1       1.067   2.871   4.629  0.00  0.00    +0.144 HD
ATOM     17  H   UNL     1       1.347   3.132   2.763  0.00  0.00    +0.144 HD
BRANCH   6  18
ATOM     18  C   UNL     1       0.082   5.574  -2.400  0.00  0.00    -0.018 C 
BRANCH  18  19
ATOM     19  N   UNL     1      -0.670   4.549  -3.137  0.00  0.00    +0.383 N 
ATOM     20  C   UNL     1      -2.020   4.353  -2.549  0.00  0.00    -0.078 C 
ATOM     21  C   UNL     1      -2.816   3.690  -3.701  0.00  0.00    -0.020 C 
ATOM     22  C   UNL     1      -2.273   4.411  -4.956  0.00  0.00    -0.020 C 
ATOM     23  C   UNL     1      -0.898   4.965  -4.538  0.00  0.00    -0.078 C 
ATOM     24  H   UNL     1      -0.062   3.634  -3.082  0.00  0.00    -0.081 HD
ENDBRANCH  18  19
ENDBRANCH   6  18
ENDBRANCH   2   5
BRANCH   1  26
ATOM     25  C   UNL     1      -5.338   6.389   0.070  0.00  0.00    +0.138 C 
ATOM     26  N   UNL     1      -4.131   6.866   0.040  0.00  0.00    -0.187 NA
BRANCH  25  31
ATOM     27  C   UNL     1      -8.870   7.663   0.144  0.00  0.00    +0.122 A 
ATOM     28  C   UNL     1      -8.659   9.036   0.133  0.00  0.00    +0.046 A 
ATOM     29  C   UNL     1      -7.374   9.543   0.101  0.00  0.00    +0.004 A 
ATOM     30  C   UNL     1      -6.290   8.688   0.086  0.00  0.00    +0.010 A 
ATOM     31  C   UNL     1      -6.492   7.306   0.091  0.00  0.00    -0.002 A 
ATOM     32  C   UNL     1      -7.792   6.796   0.124  0.00  0.00    +0.055 A 
BRANCH  27  33
ATOM     33  O   UNL     1     -10.137   7.171   0.176  0.00  0.00    -0.487 OA
BRANCH  33  34
ATOM     34  C   UNL     1     -11.203   8.123   0.196  0.00  0.00    +0.264 C 
BRANCH  34  38
ATOM     35  C   UNL     1     -14.946   6.068   0.293  0.00  0.00    +0.000 A 
ATOM     36  C   UNL     1     -14.313   6.407   1.474  0.00  0.00    +0.000 A 
ATOM     37  C   UNL     1     -13.101   7.072   1.442  0.00  0.00    +0.007 A 
ATOM     38  C   UNL     1     -12.523   7.398   0.230  0.00  0.00    -0.010 A 
ATOM     39  C   UNL     1     -13.159   7.064  -0.951  0.00  0.00    +0.007 A 
ATOM     40  C   UNL     1     -14.368   6.394  -0.920  0.00  0.00    +0.000 A 
ENDBRANCH  34  38
ENDBRANCH  33  34
ENDBRANCH  27  33
ENDBRANCH  25  31
ENDBRANCH   1  26
TORSDOF 8
