REMARK  Name = ZINC36161537
REMARK  14 active torsions:
REMARK  status: ('A' for Active; 'I' for Inactive)
REMARK    1  A    between atoms: C_1  and  C_2
REMARK    2  A    between atoms: C_15  and  C_17
REMARK    3  A    between atoms: C_17  and  N_18
REMARK    4  A    between atoms: N_18  and  C_19
REMARK    5  A    between atoms: N_18  and  C_24
REMARK    6  A    between atoms: C_19  and  C_20
REMARK    7  A    between atoms: C_20  and  C_21
REMARK    8  A    between atoms: C_21  and  O_22
REMARK    9  A    between atoms: O_22  and  C_23
REMARK   10  A    between atoms: C_24  and  C_25
REMARK   11  A    between atoms: C_25  and  C_27
REMARK   12  A    between atoms: C_25  and  O_35
REMARK   13  A    between atoms: C_27  and  O_28
REMARK   14  A    between atoms: O_28  and  C_29
REMARK                            x       y       z     vdW  Elec       q    Type
REMARK                         _______ _______ _______ _____ _____    ______ ____
ROOT
ATOM      1  N   UNL     1       2.428  -8.422   2.264  0.00  0.00    +0.386 N 
ATOM      2  H   UNL     1       1.815  -8.427   3.066  0.00  0.00    -0.081 HD
ENDROOT
BRANCH   1   3
ATOM      3  C   UNL     1       1.633  -8.234   1.042  0.00  0.00    -0.003 C 
BRANCH   3  17
ATOM      4  C   UNL     1      -3.876  -0.163   2.951  0.00  0.00    +0.008 C 
ATOM      5  C   UNL     1      -3.349  -1.550   2.579  0.00  0.00    -0.009 C 
ATOM      6  C   UNL     1      -2.811  -1.528   1.146  0.00  0.00    +0.008 C 
ATOM      7  C   UNL     1      -2.515  -2.954   0.680  0.00  0.00    +0.037 C 
ATOM      8  C   UNL     1      -1.612  -3.632   1.708  0.00  0.00    -0.023 A 
ATOM      9  C   UNL     1      -1.510  -3.139   2.965  0.00  0.00    -0.004 A 
ATOM     10  S   UNL     1      -0.374  -4.220   3.797  0.00  0.00    -0.073 S 
ATOM     11  C   UNL     1      -0.039  -5.326   2.463  0.00  0.00    +0.116 A 
ATOM     12  C   UNL     1      -0.827  -4.816   1.407  0.00  0.00    +0.075 A 
ATOM     13  C   UNL     1      -0.770  -5.514   0.155  0.00  0.00    +0.260 A 
ATOM     14  O   UNL     1      -1.411  -5.156  -0.818  0.00  0.00    -0.267 OA
ATOM     15  N   UNL     1       0.042  -6.598   0.123  0.00  0.00    -0.312 N 
ATOM     16  H   UNL     1       0.111  -7.100  -0.704  0.00  0.00    +0.170 HD
ATOM     17  C   UNL     1       0.762  -7.013   1.192  0.00  0.00    +0.094 A 
ATOM     18  N   UNL     1       0.736  -6.401   2.356  0.00  0.00    -0.229 NA
ATOM     19  C   UNL     1      -2.209  -1.941   3.530  0.00  0.00    +0.046 C 
ENDBRANCH   3  17
ENDBRANCH   1   3
BRANCH   1  20
ATOM     20  C   UNL     1       3.394  -7.323   2.393  0.00  0.00    -0.076 C 
BRANCH  20  21
ATOM     21  C   UNL     1       4.378  -7.370   1.222  0.00  0.00    +0.009 C 
BRANCH  21  22
ATOM     22  C   UNL     1       5.443  -6.287   1.407  0.00  0.00    +0.157 C 
BRANCH  22  23
ATOM     23  O   UNL     1       6.362  -6.330   0.314  0.00  0.00    -0.383 OA
ATOM     24  C   UNL     1       7.402  -5.353   0.390  0.00  0.00    +0.193 C 
ENDBRANCH  22  23
ENDBRANCH  21  22
ENDBRANCH  20  21
ENDBRANCH   1  20
BRANCH   1  25
ATOM     25  C   UNL     1       3.147  -9.701   2.188  0.00  0.00    -0.043 C 
BRANCH  25  26
ATOM     26  C   UNL     1       3.841  -9.975   3.523  0.00  0.00    +0.135 C 
BRANCH  26  27
ATOM     27  O   UNL     1       4.889  -9.024   3.720  0.00  0.00    -0.390 OA
ATOM     28  H   UNL     1       5.571  -9.044   3.035  0.00  0.00    +0.210 HD
ENDBRANCH  26  27
BRANCH  26  29
ATOM     29  C   UNL     1       4.429 -11.388   3.512  0.00  0.00    +0.258 C 
BRANCH  29  30
ATOM     30  O   UNL     1       4.975 -11.687   4.798  0.00  0.00    -0.489 OA
BRANCH  30  31
ATOM     31  C   UNL     1       5.541 -12.912   4.958  0.00  0.00    +0.121 A 
ATOM     32  C   UNL     1       5.575 -13.806   3.897  0.00  0.00    +0.045 A 
ATOM     33  C   UNL     1       6.152 -15.050   4.063  0.00  0.00    +0.004 A 
ATOM     34  C   UNL     1       6.693 -15.406   5.284  0.00  0.00    +0.000 A 
ATOM     35  C   UNL     1       6.660 -14.517   6.343  0.00  0.00    +0.004 A 
ATOM     36  C   UNL     1       6.090 -13.269   6.181  0.00  0.00    +0.045 A 
ENDBRANCH  30  31
ENDBRANCH  29  30
ENDBRANCH  26  29
ENDBRANCH  25  26
ENDBRANCH   1  25
TORSDOF 12
