REMARK  Name = ZINC02360877
REMARK  8 active torsions:
REMARK  status: ('A' for Active; 'I' for Inactive)
REMARK    1  A    between atoms: C_1  and  C_2
REMARK    2  A    between atoms: C_2  and  O_3
REMARK    3  A    between atoms: O_3  and  C_4
REMARK    4  A    between atoms: C_6  and  C_23
REMARK    5  A    between atoms: C_9  and  O_10
REMARK    6  A    between atoms: O_10  and  C_11
REMARK    7  A    between atoms: C_11  and  C_13
REMARK    8  A    between atoms: C_34  and  N_64
REMARK                            x       y       z     vdW  Elec       q    Type
REMARK                         _______ _______ _______ _____ _____    ______ ____
ROOT
ATOM      1  C   UNL     1      -6.703   1.061   4.479  0.00  0.00    +0.163 A 
ATOM      2  C   UNL     1      -5.744   2.053   4.611  0.00  0.00    +0.056 A 
ATOM      3  C   UNL     1      -4.469   1.730   5.036  0.00  0.00    -0.006 A 
ATOM      4  C   UNL     1      -4.151   0.420   5.342  0.00  0.00    +0.011 A 
ATOM      5  C   UNL     1      -5.104  -0.574   5.219  0.00  0.00    +0.050 A 
ATOM      6  C   UNL     1      -6.382  -0.257   4.788  0.00  0.00    +0.173 A 
ENDROOT
BRANCH   3   7
ATOM      7  C   UNL     1      -3.426   2.809   5.172  0.00  0.00    +0.190 C 
ATOM      8  N   UNL     1      -2.094   2.227   4.927  0.00  0.00    -0.316 N 
ATOM      9  C   UNL     1      -1.710   2.098   3.617  0.00  0.00    +0.080 A 
ATOM     10  C   UNL     1      -2.248   2.881   2.584  0.00  0.00    +0.068 A 
ATOM     11  C   UNL     1      -1.722   2.621   1.256  0.00  0.00    -0.027 A 
ATOM     12  C   UNL     1      -0.782   1.650   1.177  0.00  0.00    -0.021 A 
ATOM     13  S   UNL     1      -0.578   1.075   2.840  0.00  0.00    -0.080 S 
ATOM     14  C   UNL     1      -0.086   1.184  -0.064  0.00  0.00    -0.036 C 
ATOM     15  C   UNL     1      -1.103   3.131  -1.087  0.00  0.00    -0.074 C 
ATOM     16  C   UNL     1      -2.161   3.360  -0.004  0.00  0.00    +0.018 C 
ATOM     17  C   UNL     1      -0.108   1.417  -2.479  0.00  0.00    -0.096 C 
ATOM     18  C   UNL     1      -3.273   3.886   2.950  0.00  0.00    +0.248 C 
ATOM     19  O   UNL     1      -3.696   4.685   2.135  0.00  0.00    -0.270 OA
ATOM     20  N   UNL     1      -3.719   3.878   4.223  0.00  0.00    -0.289 N 
ATOM     21  H   UNL     1      -1.518   1.948   5.656  0.00  0.00    +0.149 HD
ATOM     22  H   UNL     1      -4.263   4.622   4.523  0.00  0.00    +0.151 HD
ATOM     23  N   UNL     1      -0.856   1.681  -1.230  0.00  0.00    +0.381 N 
ATOM     24  H   UNL     1      -1.756   1.190  -1.271  0.00  0.00    -0.082 HD
ENDBRANCH   3   7
BRANCH   1  25
ATOM     25  O   UNL     1      -7.956   1.377   4.056  0.00  0.00    -0.489 OA
BRANCH  25  27
ATOM     26  C   UNL     1      -9.665   2.910   3.300  0.00  0.00    +0.048 C 
ATOM     27  C   UNL     1      -8.213   2.750   3.757  0.00  0.00    +0.226 C 
ENDBRANCH  25  27
ENDBRANCH   1  25
BRANCH   6  28
ATOM     28  O   UNL     1      -7.321  -1.233   4.666  0.00  0.00    -0.419 OA
BRANCH  28  29
ATOM     29  C   UNL     1      -7.544  -1.717   3.428  0.00  0.00    +0.345 C 
ATOM     30  O   UNL     1      -6.853  -1.348   2.498  0.00  0.00    -0.245 OA
BRANCH  29  31
ATOM     31  C   UNL     1      -8.623  -2.693   3.201  0.00  0.00    +0.067 A 
ATOM     32  C   UNL     1      -9.498  -3.034   4.226  0.00  0.00    +0.015 A 
ATOM     33  C   UNL     1     -10.517  -3.951   4.009  0.00  0.00    +0.001 A 
ATOM     34  C   UNL     1     -10.695  -4.554   2.801  0.00  0.00    +0.008 A 
ATOM     35  C   UNL     1      -9.846  -4.261   1.721  0.00  0.00    -0.017 A 
ATOM     36  C   UNL     1      -8.794  -3.328   1.896  0.00  0.00    -0.004 A 
ATOM     37  C   UNL     1      -7.945  -3.034   0.823  0.00  0.00    +0.009 A 
ATOM     38  C   UNL     1      -8.139  -3.648  -0.378  0.00  0.00    +0.001 A 
ATOM     39  C   UNL     1      -9.171  -4.567  -0.553  0.00  0.00    +0.001 A 
ATOM     40  C   UNL     1     -10.016  -4.875   0.469  0.00  0.00    +0.008 A 
ENDBRANCH  29  31
ENDBRANCH  28  29
ENDBRANCH   6  28
TORSDOF 6
