REMARK  Name = ZINC11438923
REMARK  7 active torsions:
REMARK  status: ('A' for Active; 'I' for Inactive)
REMARK    1  A    between atoms: C_1  and  C_2
REMARK    2  A    between atoms: C_2  and  C_4
REMARK    3  A    between atoms: C_2  and  O_16
REMARK    4  A    between atoms: N_6  and  C_7
REMARK    5  A    between atoms: C_12  and  N_13
REMARK    6  A    between atoms: O_16  and  C_17
REMARK    7  A    between atoms: C_17  and  C_19
REMARK                            x       y       z     vdW  Elec       q    Type
REMARK                         _______ _______ _______ _____ _____    ______ ____
ROOT
ATOM      1  C   UNL     1       1.115   1.704  -0.022  0.00  0.00    +0.258 C 
ATOM      2  O   UNL     1       1.017   2.909  -0.120  0.00  0.00    -0.271 OA
ATOM      3  N   UNL     1       0.006   0.938   0.005  0.00  0.00    -0.281 N 
ATOM      4  H   UNL     1       0.084  -0.029  -0.001  0.00  0.00    +0.155 HD
ENDROOT
BRANCH   3   5
ATOM      5  C   UNL     1      -1.258   1.537   0.035  0.00  0.00    +0.064 A 
ATOM      6  C   UNL     1      -1.409   2.817   0.554  0.00  0.00    +0.025 A 
ATOM      7  C   UNL     1      -2.657   3.408   0.577  0.00  0.00    +0.002 A 
ATOM      8  C   UNL     1      -3.757   2.722   0.095  0.00  0.00    +0.002 A 
ATOM      9  C   UNL     1      -3.611   1.446  -0.416  0.00  0.00    +0.034 A 
ATOM     10  C   UNL     1      -2.365   0.852  -0.447  0.00  0.00    +0.147 A 
BRANCH  10  11
ATOM     11  N   UNL     1      -2.209  -0.515  -0.995  0.00  0.00    +0.058 N 
ATOM     12  O   UNL     1      -3.162  -1.081  -1.500  0.00  0.00    -0.126 OA
ATOM     13  O   UNL     1      -1.128  -1.073  -0.940  0.00  0.00    -0.126 OA
ENDBRANCH  10  11
ENDBRANCH   3   5
BRANCH   1  15
ATOM     14  C   UNL     1       2.636   0.399   1.438  0.00  0.00    +0.062 C 
ATOM     15  C   UNL     1       2.476   1.063   0.069  0.00  0.00    +0.259 C 
BRANCH  15  16
ATOM     16  O   UNL     1       3.501   2.078  -0.100  0.00  0.00    -0.449 OA
BRANCH  16  17
ATOM     17  C   UNL     1       4.664   1.686  -0.655  0.00  0.00    +0.341 C 
ATOM     18  O   UNL     1       4.818   0.528  -0.988  0.00  0.00    -0.245 OA
BRANCH  17  19
ATOM     19  C   UNL     1       5.752   2.664  -0.857  0.00  0.00    +0.072 A 
ATOM     20  C   UNL     1       5.576   3.997  -0.480  0.00  0.00    +0.016 A 
ATOM     21  C   UNL     1       6.598   4.904  -0.668  0.00  0.00    +0.001 A 
ATOM     22  C   UNL     1       7.792   4.498  -1.238  0.00  0.00    +0.001 A 
ATOM     23  C   UNL     1       7.972   3.180  -1.619  0.00  0.00    +0.015 A 
ATOM     24  C   UNL     1       6.960   2.261  -1.432  0.00  0.00    +0.027 A 
ATOM     25  I   UNL     1       7.233   0.266  -2.011  0.00  0.00    -0.043 I 
ENDBRANCH  17  19
ENDBRANCH  16  17
ENDBRANCH  15  16
ENDBRANCH   1  15
TORSDOF 6
