REMARK  Name = ZINC63028376
REMARK  10 active torsions:
REMARK  status: ('A' for Active; 'I' for Inactive)
REMARK    1  A    between atoms: C_1  and  C_2
REMARK    2  A    between atoms: C_2  and  N_3
REMARK    3  A    between atoms: N_3  and  C_4
REMARK    4  A    between atoms: C_4  and  C_6
REMARK    5  A    between atoms: C_4  and  C_7
REMARK    6  A    between atoms: C_7  and  C_9
REMARK    7  A    between atoms: C_7  and  C_19
REMARK    8  A    between atoms: C_14  and  N_15
REMARK    9  A    between atoms: C_19  and  C_20
REMARK   10  A    between atoms: C_19  and  C_21
REMARK                            x       y       z     vdW  Elec       q    Type
REMARK                         _______ _______ _______ _____ _____    ______ ____
ROOT
ATOM      1  C   UNL     1       1.876  -3.128  -3.686  0.00  0.00    +0.010 C 
ENDROOT
BRANCH   1   2
ATOM      2  C   UNL     1       1.579  -4.319  -2.812  0.00  0.00    -0.015 A 
ATOM      3  C   UNL     1       0.284  -4.792  -2.705  0.00  0.00    +0.007 A 
ATOM      4  C   UNL     1       0.011  -5.884  -1.904  0.00  0.00    +0.016 A 
ATOM      5  C   UNL     1       1.034  -6.505  -1.209  0.00  0.00    +0.020 A 
ATOM      6  C   UNL     1       2.329  -6.032  -1.316  0.00  0.00    +0.048 A 
ATOM      7  C   UNL     1       2.602  -4.942  -2.122  0.00  0.00    +0.131 A 
ATOM      8 BR   UNL     1       0.661  -8.000  -0.112  0.00  0.00    -0.050 Br
BRANCH   7   9
ATOM      9  N   UNL     1       3.989  -4.439  -2.241  0.00  0.00    +0.057 N 
ATOM     10  O   UNL     1       4.911  -5.218  -2.309  0.00  0.00    -0.126 OA
ATOM     11  O   UNL     1       4.200  -3.249  -2.272  0.00  0.00    -0.126 OA
ENDBRANCH   7   9
ENDBRANCH   1   2
BRANCH   1  12
ATOM     12  C   UNL     1       1.129  -3.271  -5.013  0.00  0.00    -0.011 C 
ATOM     13  C   UNL     1       1.368  -2.025  -5.869  0.00  0.00    +0.008 C 
ATOM     14  C   UNL     1       1.642  -4.506  -5.757  0.00  0.00    +0.008 C 
ENDBRANCH   1  12
BRANCH   1  15
ATOM     15  C   UNL     1       1.420  -1.850  -2.979  0.00  0.00    -0.067 C 
ATOM     16  C   UNL     1       2.215  -1.672  -1.684  0.00  0.00    -0.013 C 
BRANCH  15  17
ATOM     17  N   UNL     1      -0.011  -1.949  -2.665  0.00  0.00    +0.381 N 
ATOM     18  H   UNL     1      -0.155  -2.664  -1.968  0.00  0.00    -0.086 HD
ATOM     19  H   UNL     1      -0.523  -2.187  -3.501  0.00  0.00    -0.086 HD
BRANCH  17  21
ATOM     20  C   UNL     1      -1.981  -0.761  -1.822  0.00  0.00    -0.017 C 
ATOM     21  C   UNL     1      -0.489  -0.659  -2.149  0.00  0.00    -0.086 C 
ENDBRANCH  17  21
ENDBRANCH  15  17
ENDBRANCH   1  15
TORSDOF 6
