REMARK  Name = ZINC19724125
REMARK  6 active torsions:
REMARK  status: ('A' for Active; 'I' for Inactive)
REMARK    1  A    between atoms: C_1  and  N_2
REMARK    2  A    between atoms: N_2  and  C_3
REMARK    3  A    between atoms: N_2  and  C_4
REMARK    4  A    between atoms: C_7  and  N_10
REMARK    5  A    between atoms: C_12  and  C_18
REMARK    6  A    between atoms: C_18  and  N_19
REMARK                            x       y       z     vdW  Elec       q    Type
REMARK                         _______ _______ _______ _____ _____    ______ ____
ROOT
ATOM      1  N   UNL     1      -0.005  -2.763  -4.836  0.00  0.00    -0.192 N 
ATOM      2  C   UNL     1       0.481  -2.283  -6.141  0.00  0.00    +0.151 C 
ATOM      3  C   UNL     1       0.770  -3.485  -7.046  0.00  0.00    +0.079 C 
ATOM      4  N   UNL     1      -0.222  -4.536  -6.744  0.00  0.00    -0.174 NA
ATOM      5  S   UNL     1      -0.551  -4.316  -5.120  0.00  0.00    +0.112 S 
ATOM      6  O   UNL     1      -1.965  -4.298  -4.977  0.00  0.00    -0.138 OA
ATOM      7  O   UNL     1       0.293  -5.199  -4.393  0.00  0.00    -0.138 OA
ATOM      8  H   UNL     1      -0.592  -5.200  -7.346  0.00  0.00    +0.150 HD
ENDROOT
BRANCH   1  12
ATOM      9  C   UNL     1       0.000  -0.698  -1.214  0.00  0.00    +0.029 A 
ATOM     10  C   UNL     1       0.013  -2.086  -1.222  0.00  0.00    +0.025 A 
ATOM     11  C   UNL     1       0.011  -2.770  -2.421  0.00  0.00    +0.026 A 
ATOM     12  C   UNL     1      -0.004  -2.069  -3.620  0.00  0.00    +0.052 A 
ATOM     13  C   UNL     1      -0.017  -0.681  -3.613  0.00  0.00    +0.026 A 
ATOM     14  C   UNL     1      -0.021   0.003  -2.413  0.00  0.00    +0.025 A 
BRANCH   9  16
ATOM     15  C   UNL     1      -0.018   1.461   0.010  0.00  0.00    +0.129 C 
ATOM     16  N   UNL     1       0.002  -0.004   0.002  0.00  0.00    -0.336 N 
ATOM     17  C   UNL     1       0.024  -0.743   1.267  0.00  0.00    +0.129 C 
ENDBRANCH   9  16
ENDBRANCH   1  12
BRANCH   3  18
ATOM     18  C   UNL     1       0.649  -3.068  -8.513  0.00  0.00    -0.064 C 
BRANCH  18  19
ATOM     19  N   UNL     1       0.809  -4.248  -9.373  0.00  0.00    +0.379 N 
ATOM     20  H   UNL     1       0.090  -4.923  -9.155  0.00  0.00    -0.090 HD
ATOM     21  H   UNL     1       0.729  -3.973 -10.340  0.00  0.00    -0.090 HD
ATOM     22  H   UNL     1       1.716  -4.660  -9.213  0.00  0.00    -0.090 HD
ENDBRANCH  18  19
ENDBRANCH   3  18
TORSDOF 4
