REMARK  Name = ZINC16568209
REMARK  11 active torsions:
REMARK  status: ('A' for Active; 'I' for Inactive)
REMARK    1  A    between atoms: C_1  and  C_2
REMARK    2  A    between atoms: C_2  and  N_3
REMARK    3  A    between atoms: N_6  and  C_7
REMARK    4  A    between atoms: C_7  and  C_9
REMARK    5  A    between atoms: C_7  and  C_16
REMARK    6  A    between atoms: C_9  and  C_10
REMARK    7  A    between atoms: C_19  and  S_30
REMARK    8  A    between atoms: N_20  and  C_21
REMARK    9  A    between atoms: C_24  and  N_27
REMARK   10  A    between atoms: S_30  and  C_31
REMARK   11  A    between atoms: C_31  and  C_32
REMARK                            x       y       z     vdW  Elec       q    Type
REMARK                         _______ _______ _______ _____ _____    ______ ____
ROOT
ATOM      1  C   UNL     1       1.269  -6.685  -1.717  0.00  0.00    +0.159 A 
ATOM      2  N   UNL     1       1.276  -6.397  -0.446  0.00  0.00    -0.131 NA
ATOM      3  N   UNL     1       1.262  -5.123  -0.281  0.00  0.00    -0.122 NA
ATOM      4  C   UNL     1       1.244  -4.521  -1.448  0.00  0.00    +0.196 A 
ATOM      5  N   UNL     1       1.241  -5.500  -2.403  0.00  0.00    -0.273 N 
ENDROOT
BRANCH   5   6
ATOM      6  C   UNL     1       1.219  -5.326  -3.795  0.00  0.00    +0.050 A 
ATOM      7  C   UNL     1       0.127  -5.761  -4.532  0.00  0.00    +0.028 A 
ATOM      8  C   UNL     1       0.106  -5.584  -5.902  0.00  0.00    +0.035 A 
ATOM      9  C   UNL     1       1.176  -4.984  -6.540  0.00  0.00    +0.126 A 
ATOM     10  C   UNL     1       2.268  -4.554  -5.808  0.00  0.00    +0.035 A 
ATOM     11  C   UNL     1       2.292  -4.724  -4.437  0.00  0.00    +0.028 A 
BRANCH   9  12
ATOM     12  N   UNL     1       1.153  -4.801  -8.008  0.00  0.00    +0.056 N 
ATOM     13  O   UNL     1       2.095  -4.273  -8.571  0.00  0.00    -0.126 OA
ATOM     14  O   UNL     1       0.192  -5.179  -8.654  0.00  0.00    -0.126 OA
ENDBRANCH   9  12
ENDBRANCH   5   6
BRANCH   1  15
ATOM     15  C   UNL     1       1.280  -8.066  -2.320  0.00  0.00    +0.147 C 
BRANCH  15  19
ATOM     16  N   UNL     1      -1.104 -10.766  -1.580  0.00  0.00    -0.300 N 
ATOM     17  C   UNL     1      -0.221  -9.984  -2.232  0.00  0.00    +0.300 C 
ATOM     18  O   UNL     1       0.087 -10.240  -3.380  0.00  0.00    -0.253 OA
ATOM     19  N   UNL     1       0.321  -8.916  -1.612  0.00  0.00    -0.289 N 
ATOM     20  H   UNL     1      -1.349 -10.561  -0.664  0.00  0.00    +0.150 HD
ATOM     21  H   UNL     1       0.075  -8.712  -0.696  0.00  0.00    +0.151 HD
BRANCH  16  23
ATOM     22  C   UNL     1      -2.654 -12.637  -1.300  0.00  0.00    +0.024 C 
ATOM     23  C   UNL     1      -1.692 -11.926  -2.254  0.00  0.00    +0.102 C 
ENDBRANCH  16  23
ENDBRANCH  15  19
BRANCH  15  24
ATOM     24  C   UNL     1       2.682  -8.666  -2.195  0.00  0.00    +0.065 C 
BRANCH  24  25
ATOM     25  C   UNL     1       2.726  -9.994  -2.906  0.00  0.00    -0.045 A 
ATOM     26  C   UNL     1       2.425 -11.155  -2.219  0.00  0.00    +0.004 A 
ATOM     27  C   UNL     1       2.461 -12.373  -2.872  0.00  0.00    +0.000 A 
ATOM     28  C   UNL     1       2.807 -12.431  -4.209  0.00  0.00    +0.000 A 
ATOM     29  C   UNL     1       3.112 -11.270  -4.895  0.00  0.00    +0.000 A 
ATOM     30  C   UNL     1       3.072 -10.052  -4.243  0.00  0.00    +0.004 A 
ENDBRANCH  24  25
ENDBRANCH  15  24
ENDBRANCH   1  15
BRANCH   4  31
ATOM     31  S   UNL     1       1.219  -2.782  -1.729  0.00  0.00    -0.081 S 
BRANCH  31  32
ATOM     32  C   UNL     1       1.227  -2.186  -0.020  0.00  0.00    +0.112 C 
BRANCH  32  33
ATOM     33  C   UNL     1       1.208  -0.679  -0.013  0.00  0.00    -0.037 A 
ATOM     34  C   UNL     1       0.002  -0.004   0.002  0.00  0.00    +0.007 A 
ATOM     35  C   UNL     1      -0.017   1.378   0.010  0.00  0.00    +0.038 A 
ATOM     36  C   UNL     1       1.173   2.086   0.002  0.00  0.00    +0.123 A 
ATOM     37  C   UNL     1       2.381   1.408  -0.013  0.00  0.00    +0.038 A 
ATOM     38  C   UNL     1       2.397   0.026  -0.020  0.00  0.00    +0.007 A 
ATOM     39  F   UNL     1       1.156   3.437   0.009  0.00  0.00    -0.205 F 
ENDBRANCH  32  33
ENDBRANCH  31  32
ENDBRANCH   4  31
TORSDOF 10
