REMARK  Name = ZINC05145974
REMARK  9 active torsions:
REMARK  status: ('A' for Active; 'I' for Inactive)
REMARK    1  A    between atoms: C_1  and  C_2
REMARK    2  A    between atoms: C_2  and  O_3
REMARK    3  A    between atoms: O_3  and  C_4
REMARK    4  A    between atoms: C_7  and  C_9
REMARK    5  A    between atoms: C_13  and  N_14
REMARK    6  A    between atoms: C_15  and  C_17
REMARK    7  A    between atoms: C_20  and  C_24
REMARK    8  A    between atoms: C_21  and  C_23
REMARK    9  A    between atoms: C_26  and  C_30
REMARK                            x       y       z     vdW  Elec       q    Type
REMARK                         _______ _______ _______ _____ _____    ______ ____
ROOT
ATOM      1  C   UNL     1       2.236   0.844   3.643  0.00  0.00    +0.069 A 
ATOM      2  C   UNL     1       1.387   1.034   2.479  0.00  0.00    -0.023 A 
ATOM      3  C   UNL     1       2.035   1.365   1.342  0.00  0.00    -0.004 A 
ATOM      4  S   UNL     1       3.745   1.426   1.796  0.00  0.00    -0.077 S 
ATOM      5  C   UNL     1       3.604   1.018   3.474  0.00  0.00    +0.085 A 
ATOM      6  C   UNL     1       1.427   1.620  -0.003  0.00  0.00    +0.046 C 
ATOM      7  C   UNL     1      -0.013   1.086   0.008  0.00  0.00    -0.009 C 
ATOM      8  C   UNL     1      -0.714   1.583   1.276  0.00  0.00    +0.008 C 
ATOM      9  C   UNL     1      -0.129   0.881   2.503  0.00  0.00    +0.037 C 
ATOM     10  C   UNL     1      -0.758   1.595  -1.227  0.00  0.00    +0.008 C 
ENDROOT
BRANCH   1  14
ATOM     11  C   UNL     1       1.003  -1.148   6.477  0.00  0.00    +0.407 C 
ATOM     12  O   UNL     1       0.668  -0.279   7.256  0.00  0.00    -0.226 OA
ATOM     13  N   UNL     1       1.523  -0.815   5.278  0.00  0.00    -0.217 N 
ATOM     14  C   UNL     1       1.671   0.482   4.945  0.00  0.00    +0.255 C 
ATOM     15  O   UNL     1       1.336   1.353   5.726  0.00  0.00    -0.270 OA
ATOM     16  H   UNL     1       1.790  -1.510   4.656  0.00  0.00    +0.161 HD
BRANCH  11  17
ATOM     17  O   UNL     1       0.855  -2.444   6.809  0.00  0.00    -0.450 OA
BRANCH  17  19
ATOM     18  C   UNL     1       0.198  -4.243   8.313  0.00  0.00    +0.048 C 
ATOM     19  C   UNL     1       0.289  -2.729   8.116  0.00  0.00    +0.230 C 
ENDBRANCH  17  19
ENDBRANCH  11  17
ENDBRANCH   1  14
BRANCH   5  20
ATOM     20  N   UNL     1       4.610   0.895   4.418  0.00  0.00    -0.275 N 
ATOM     21  C   UNL     1       5.894   1.104   4.065  0.00  0.00    +0.249 C 
ATOM     22  O   UNL     1       6.168   1.401   2.918  0.00  0.00    -0.270 OA
ATOM     23  H   UNL     1       4.391   0.658   5.332  0.00  0.00    +0.156 HD
BRANCH  21  24
ATOM     24  C   UNL     1       6.968   0.973   5.072  0.00  0.00    +0.037 A 
ATOM     25  C   UNL     1       6.655   0.638   6.391  0.00  0.00    +0.013 A 
ATOM     26  C   UNL     1       7.663   0.511   7.324  0.00  0.00    +0.004 A 
ATOM     27  C   UNL     1       8.980   0.727   6.958  0.00  0.00    -0.047 A 
ATOM     28  C   UNL     1       9.296   1.064   5.654  0.00  0.00    -0.047 A 
ATOM     29  C   UNL     1       8.299   1.188   4.709  0.00  0.00    +0.016 A 
ATOM     30  C   UNL     1      10.733   1.297   5.265  0.00  0.00    +0.044 C 
ATOM     31  C   UNL     1      10.075   0.594   7.985  0.00  0.00    +0.044 C 
ENDBRANCH  21  24
ENDBRANCH   5  20
TORSDOF 5
