REMARK  Name = ZINC20739918
REMARK  6 active torsions:
REMARK  status: ('A' for Active; 'I' for Inactive)
REMARK    1  A    between atoms: C_1  and  C_2
REMARK    2  A    between atoms: N_13  and  C_16
REMARK    3  A    between atoms: C_19  and  N_25
REMARK    4  A    between atoms: C_20  and  N_22
REMARK    5  A    between atoms: C_28  and  C_31
REMARK    6  A    between atoms: C_28  and  N_34
REMARK                            x       y       z     vdW  Elec       q    Type
REMARK                         _______ _______ _______ _____ _____    ______ ____
ROOT
ATOM      1  C   UNL     1       7.042  -1.225   7.833  0.00  0.00    +0.046 A 
ATOM      2  C   UNL     1       7.579  -0.504   6.775  0.00  0.00    +0.026 A 
ATOM      3  C   UNL     1       6.777  -0.127   5.718  0.00  0.00    +0.027 A 
ATOM      4  C   UNL     1       5.430  -0.469   5.712  0.00  0.00    +0.060 A 
ATOM      5  C   UNL     1       4.891  -1.186   6.772  0.00  0.00    +0.149 A 
ATOM      6  C   UNL     1       5.697  -1.567   7.827  0.00  0.00    +0.058 A 
ENDROOT
BRANCH   1  16
ATOM      7  C   UNL     1      10.905  -1.046  12.927  0.00  0.00    +0.007 C 
ATOM      8  C   UNL     1      11.070  -2.374  12.185  0.00  0.00    -0.013 C 
ATOM      9  C   UNL     1       9.991  -3.341  12.659  0.00  0.00    +0.004 C 
ATOM     10  C   UNL     1       8.583  -2.890  12.221  0.00  0.00    +0.014 C 
ATOM     11  C   UNL     1       8.619  -2.778  10.715  0.00  0.00    +0.088 C 
ATOM     12  C   UNL     1       9.595  -1.608  10.389  0.00  0.00    +0.088 C 
ATOM     13  C   UNL     1      10.990  -2.115  10.670  0.00  0.00    +0.016 C 
ATOM     14  C   UNL     1       9.184  -1.308   8.983  0.00  0.00    +0.230 C 
ATOM     15  O   UNL     1       9.888  -0.885   8.091  0.00  0.00    -0.275 OA
ATOM     16  N   UNL     1       7.859  -1.607   8.908  0.00  0.00    -0.210 N 
ATOM     17  C   UNL     1       7.401  -2.309   9.981  0.00  0.00    +0.230 C 
ATOM     18  O   UNL     1       6.244  -2.514  10.279  0.00  0.00    -0.275 OA
ENDBRANCH   1  16
BRANCH   4  19
ATOM     19  N   UNL     1       4.616  -0.087   4.641  0.00  0.00    -0.328 N 
ATOM     20  C   UNL     1       4.502   1.374   4.562  0.00  0.00    +0.104 C 
ATOM     21  C   UNL     1       3.493   1.750   3.474  0.00  0.00    +0.016 C 
ATOM     22  C   UNL     1       3.961   1.183   2.131  0.00  0.00    +0.015 C 
ATOM     23  C   UNL     1       4.120  -0.335   2.254  0.00  0.00    +0.016 C 
ATOM     24  C   UNL     1       5.110  -0.651   3.378  0.00  0.00    +0.104 C 
BRANCH  22  25
ATOM     25  N   UNL     1       2.967   1.491   1.095  0.00  0.00    +0.389 N 
ATOM     26  C   UNL     1       3.427   1.040  -0.225  0.00  0.00    -0.077 C 
ATOM     27  C   UNL     1       2.438   1.504  -1.297  0.00  0.00    -0.019 C 
ATOM     28  C   UNL     1       1.053   0.925  -0.992  0.00  0.00    -0.004 C 
ATOM     29  C   UNL     1       0.619   1.371   0.407  0.00  0.00    -0.019 C 
ATOM     30  C   UNL     1       1.661   0.910   1.429  0.00  0.00    -0.077 C 
ATOM     31  H   UNL     1       2.848   2.583   1.052  0.00  0.00    -0.080 HD
ENDBRANCH  22  25
BRANCH  22  32
ATOM     32  C   UNL     1       5.285   1.799   1.759  0.00  0.00    +0.200 C 
ATOM     33  O   UNL     1       6.315   1.193   1.964  0.00  0.00    -0.278 OA
ATOM     34  N   UNL     1       5.324   3.024   1.198  0.00  0.00    -0.330 N 
ATOM     35  H   UNL     1       6.290   3.474   0.926  0.00  0.00    +0.145 HD
ATOM     36  H   UNL     1       4.390   3.574   1.012  0.00  0.00    +0.145 HD
ENDBRANCH  22  32
ENDBRANCH   4  19
BRANCH   5  37
ATOM     37  N   UNL     1       3.456  -1.546   6.769  0.00  0.00    +0.058 N 
ATOM     38  O   UNL     1       2.962  -2.091   7.740  0.00  0.00    -0.126 OA
ATOM     39  O   UNL     1       2.767  -1.296   5.796  0.00  0.00    -0.126 OA
ENDBRANCH   5  37
TORSDOF 5
