REMARK  Name = ZINC32949676
REMARK  6 active torsions:
REMARK  status: ('A' for Active; 'I' for Inactive)
REMARK    1  A    between atoms: C_4  and  C_7
REMARK    2  A    between atoms: N_15  and  C_16
REMARK    3  A    between atoms: C_16  and  C_17
REMARK    4  A    between atoms: C_17  and  N_18
REMARK    5  A    between atoms: N_18  and  S_19
REMARK    6  A    between atoms: S_19  and  C_22
REMARK                            x       y       z     vdW  Elec       q    Type
REMARK                         _______ _______ _______ _____ _____    ______ ____
ROOT
ATOM      1  C   UNL     1       2.054  -2.989   0.020  0.00  0.00    +0.142 C 
ENDROOT
BRANCH   1  10
ATOM      2  C   UNL     1      -0.341  -2.177  -0.024  0.00  0.00    +0.143 A 
ATOM      3  N   UNL     1      -0.974  -1.030  -0.029  0.00  0.00    -0.226 NA
ATOM      4  C   UNL     1      -0.074  -0.018  -0.002  0.00  0.00    +0.109 A 
ATOM      5  C   UNL     1      -0.188   1.377   0.006  0.00  0.00    +0.033 A 
ATOM      6  C   UNL     1       0.973   2.126   0.036  0.00  0.00    +0.022 A 
ATOM      7  C   UNL     1       2.201   1.484   0.059  0.00  0.00    +0.113 A 
ATOM      8  N   UNL     1       2.288   0.169   0.050  0.00  0.00    -0.236 NA
ATOM      9  C   UNL     1       1.209  -0.597   0.021  0.00  0.00    +0.161 A 
ATOM     10  N   UNL     1       1.011  -1.961   0.006  0.00  0.00    -0.307 N 
BRANCH   2  14
ATOM     11  C   UNL     1      -2.204  -5.995  -0.090  0.00  0.00    +0.000 A 
ATOM     12  C   UNL     1      -0.889  -5.863  -0.500  0.00  0.00    +0.001 A 
ATOM     13  C   UNL     1      -0.278  -4.626  -0.481  0.00  0.00    +0.011 A 
ATOM     14  C   UNL     1      -0.990  -3.506  -0.048  0.00  0.00    +0.018 A 
ATOM     15  C   UNL     1      -2.314  -3.647   0.370  0.00  0.00    +0.011 A 
ATOM     16  C   UNL     1      -2.914  -4.889   0.341  0.00  0.00    +0.001 A 
ENDBRANCH   2  14
ENDBRANCH   1  10
BRANCH   1  17
ATOM     17  C   UNL     1       2.526  -3.256  -1.411  0.00  0.00    +0.127 C 
BRANCH  17  18
ATOM     18  N   UNL     1       3.570  -4.284  -1.397  0.00  0.00    -0.188 NA
ATOM     19  H   UNL     1       4.177  -4.439  -0.493  0.00  0.00    +0.148 HD
BRANCH  18  20
ATOM     20  S   UNL     1       4.005  -5.041  -2.804  0.00  0.00    +0.058 S 
ATOM     21  O   UNL     1       5.044  -5.952  -2.470  0.00  0.00    -0.153 OA
ATOM     22  O   UNL     1       2.800  -5.457  -3.431  0.00  0.00    -0.153 OA
BRANCH  20  23
ATOM     23  C   UNL     1       4.723  -3.820  -3.852  0.00  0.00    +0.106 A 
ATOM     24  C   UNL     1       3.929  -3.105  -4.729  0.00  0.00    +0.029 A 
ATOM     25  C   UNL     1       4.498  -2.149  -5.544  0.00  0.00    +0.006 A 
ATOM     26  C   UNL     1       5.865  -1.905  -5.498  0.00  0.00    -0.044 A 
ATOM     27  C   UNL     1       6.656  -2.618  -4.626  0.00  0.00    -0.042 A 
ATOM     28  C   UNL     1       6.080  -3.578  -3.803  0.00  0.00    +0.032 A 
ATOM     29  C   UNL     1       8.143  -2.400  -4.516  0.00  0.00    +0.035 C 
ATOM     30  C   UNL     1       8.669  -1.661  -5.744  0.00  0.00    +0.005 C 
ATOM     31  C   UNL     1       7.808  -0.411  -5.962  0.00  0.00    +0.005 C 
ATOM     32  C   UNL     1       6.422  -0.857  -6.426  0.00  0.00    +0.035 C 
ENDBRANCH  20  23
ENDBRANCH  18  20
ENDBRANCH  17  18
ENDBRANCH   1  17
TORSDOF 6
