REMARK  Name = ZINC25472826
REMARK  5 active torsions:
REMARK  status: ('A' for Active; 'I' for Inactive)
REMARK    1  A    between atoms: C_6  and  C_7
REMARK    2  A    between atoms: C_7  and  N_8
REMARK    3  A    between atoms: N_11  and  C_14
REMARK    4  A    between atoms: C_14  and  N_15
REMARK    5  A    between atoms: N_18  and  C_27
REMARK                            x       y       z     vdW  Elec       q    Type
REMARK                         _______ _______ _______ _____ _____    ______ ____
ROOT
ATOM      1  C   UNL     1      -4.464   6.003  -5.219  0.00  0.00    +0.072 C 
ENDROOT
BRANCH   1   2
ATOM      2  N   UNL     1      -3.304   6.719  -5.755  0.00  0.00    -0.256 N 
ATOM      3  C   UNL     1      -3.203   8.052  -5.938  0.00  0.00    +0.178 A 
ATOM      4  S   UNL     1      -4.408   9.216  -5.585  0.00  0.00    -0.011 S 
ATOM      5  N   UNL     1      -1.980   8.301  -6.446  0.00  0.00    -0.288 N 
ATOM      6  C   UNL     1      -1.317   7.104  -6.588  0.00  0.00    +0.218 A 
ATOM      7  N   UNL     1      -2.097   6.146  -6.178  0.00  0.00    -0.136 NA
ATOM      8  N   UNL     1      -0.033   6.945  -7.085  0.00  0.00    -0.300 N 
ATOM      9  C   UNL     1       0.092   7.539  -8.422  0.00  0.00    +0.108 C 
ATOM     10  C   UNL     1       1.551   7.474  -8.878  0.00  0.00    +0.019 C 
ATOM     11  C   UNL     1       2.008   6.013  -8.904  0.00  0.00    +0.003 C 
ATOM     12  C   UNL     1       1.823   5.404  -7.511  0.00  0.00    +0.019 C 
ATOM     13  C   UNL     1       0.356   5.529  -7.096  0.00  0.00    +0.108 C 
BRANCH   5  14
ATOM     14  C   UNL     1      -1.448   9.622  -6.793  0.00  0.00    +0.093 C 
ATOM     15  C   UNL     1      -2.141  10.844  -6.188  0.00  0.00    +0.027 C 
ATOM     16  C   UNL     1      -2.316  10.523  -7.674  0.00  0.00    +0.027 C 
ENDBRANCH   5  14
ENDBRANCH   1   2
BRANCH   1  20
ATOM     17  N   UNL     1      -3.892   4.530  -1.301  0.00  0.00    -0.302 NA
ATOM     18  C   UNL     1      -2.878   5.441  -1.849  0.00  0.00    +0.066 C 
ATOM     19  C   UNL     1      -2.988   5.465  -3.375  0.00  0.00    -0.061 C 
ATOM     20  N   UNL     1      -4.340   5.894  -3.759  0.00  0.00    +0.394 N 
ATOM     21  C   UNL     1      -5.355   4.983  -3.211  0.00  0.00    -0.061 C 
ATOM     22  C   UNL     1      -5.244   4.959  -1.685  0.00  0.00    +0.066 C 
ATOM     23  H   UNL     1      -4.514   6.893  -3.332  0.00  0.00    -0.079 HD
BRANCH  17  24
ATOM     24  C   UNL     1      -3.769   4.421   0.159  0.00  0.00    +0.119 C 
BRANCH  24  30
ATOM     25  C   UNL     1      -2.387   2.372   0.628  0.00  0.00    +0.024 A 
ATOM     26  C   UNL     1      -1.175   1.792   0.950  0.00  0.00    +0.111 A 
ATOM     27  N   UNL     1      -0.099   2.533   1.130  0.00  0.00    -0.263 NA
ATOM     28  C   UNL     1      -0.135   3.846   1.016  0.00  0.00    +0.111 A 
ATOM     29  C   UNL     1      -1.313   4.496   0.701  0.00  0.00    +0.024 A 
ATOM     30  C   UNL     1      -2.465   3.750   0.504  0.00  0.00    -0.031 A 
ENDBRANCH  24  30
ENDBRANCH  17  24
ENDBRANCH   1  20
TORSDOF 5
