REMARK  Name = ZINC39711413
REMARK  11 active torsions:
REMARK  status: ('A' for Active; 'I' for Inactive)
REMARK    1  A    between atoms: C_1  and  C_2
REMARK    2  A    between atoms: C_2  and  O_3
REMARK    3  A    between atoms: O_3  and  C_4
REMARK    4  A    between atoms: C_11  and  C_16
REMARK    5  A    between atoms: C_16  and  C_18
REMARK    6  A    between atoms: C_16  and  N_28
REMARK    7  A    between atoms: N_23  and  C_24
REMARK    8  A    between atoms: C_24  and  C_25
REMARK    9  A    between atoms: C_24  and  C_26
REMARK   10  A    between atoms: C_24  and  C_27
REMARK   11  A    between atoms: N_31  and  C_34
REMARK                            x       y       z     vdW  Elec       q    Type
REMARK                         _______ _______ _______ _____ _____    ______ ____
ROOT
ATOM      1  C   UNL     1       1.600  -6.280   4.993  0.00  0.00    +0.115 C 
ENDROOT
BRANCH   1   9
ATOM      2  C   UNL     1       0.802  -1.825   1.306  0.00  0.00    +0.121 A 
ATOM      3  C   UNL     1       0.249  -2.667   0.334  0.00  0.00    +0.047 A 
ATOM      4  C   UNL     1       0.320  -4.021   0.414  0.00  0.00    +0.027 A 
ATOM      5  C   UNL     1       0.965  -4.641   1.500  0.00  0.00    +0.041 A 
ATOM      6  N   UNL     1       1.026  -5.971   1.566  0.00  0.00    -0.284 N 
ATOM      7  C   UNL     1       1.615  -6.619   2.557  0.00  0.00    +0.226 C 
ATOM      8  O   UNL     1       1.640  -7.835   2.562  0.00  0.00    -0.275 OA
ATOM      9  C   UNL     1       2.259  -5.842   3.683  0.00  0.00    +0.119 C 
ATOM     10  C   UNL     1       2.192  -4.329   3.614  0.00  0.00    -0.003 C 
ATOM     11  C   UNL     1       1.556  -3.780   2.540  0.00  0.00    -0.004 A 
ATOM     12  C   UNL     1       1.451  -2.328   2.392  0.00  0.00    +0.055 A 
ATOM     13  H   UNL     1       0.619  -6.488   0.854  0.00  0.00    +0.155 HD
BRANCH   2  14
ATOM     14  O   UNL     1       0.693  -0.477   1.160  0.00  0.00    -0.492 OA
BRANCH  14  16
ATOM     15  C   UNL     1      -0.019   1.526   0.010  0.00  0.00    +0.048 C 
ATOM     16  C   UNL     1       0.002  -0.004   0.002  0.00  0.00    +0.225 C 
ENDBRANCH  14  16
ENDBRANCH   2  14
ENDBRANCH   1   9
BRANCH   1  17
ATOM     17  N   UNL     1       1.907  -7.694   5.246  0.00  0.00    -0.299 NA
ATOM     18  C   UNL     1       1.218  -8.175   6.452  0.00  0.00    +0.066 C 
ATOM     19  C   UNL     1       1.516  -9.664   6.646  0.00  0.00    -0.063 C 
ATOM     20  N   UNL     1       2.965  -9.860   6.780  0.00  0.00    +0.383 N 
ATOM     21  C   UNL     1       3.638  -9.397   5.558  0.00  0.00    -0.063 C 
ATOM     22  C   UNL     1       3.357  -7.907   5.354  0.00  0.00    +0.066 C 
ATOM     23  H   UNL     1       3.304  -9.332   7.570  0.00  0.00    -0.081 HD
BRANCH  20  24
ATOM     24  C   UNL     1       3.250 -11.286   6.985  0.00  0.00    -0.068 C 
ATOM     25  C   UNL     1       2.551 -11.768   8.258  0.00  0.00    -0.015 C 
ATOM     26  C   UNL     1       2.847 -13.253   8.471  0.00  0.00    -0.002 C 
ATOM     27  C   UNL     1       4.357 -13.458   8.610  0.00  0.00    -0.000 C 
ATOM     28  C   UNL     1       5.056 -12.976   7.337  0.00  0.00    -0.002 C 
ATOM     29  C   UNL     1       4.760 -11.490   7.123  0.00  0.00    -0.015 C 
ENDBRANCH  20  24
ENDBRANCH   1  17
BRANCH   1  30
ATOM     30  C   UNL     1       0.084  -6.099   4.886  0.00  0.00    +0.236 C 
ATOM     31  N   UNL     1      -0.443  -6.852   3.740  0.00  0.00    -0.148 NA
ATOM     32  N   UNL     1      -0.965  -6.063   2.950  0.00  0.00    -0.069 NA
ATOM     33  N   UNL     1      -0.893  -4.738   3.380  0.00  0.00    -0.179 N 
ATOM     34  N   UNL     1      -0.247  -4.689   4.591  0.00  0.00    -0.179 NA
ATOM     35  H   UNL     1      -1.244  -3.972   2.900  0.00  0.00    +0.191 HD
BRANCH  34  36
ATOM     36  C   UNL     1      -1.117  -4.124   5.631  0.00  0.00    +0.035 C 
ATOM     37  C   UNL     1      -0.402  -4.187   6.983  0.00  0.00    +0.029 C 
ATOM     38  C   UNL     1      -1.437  -2.667   5.291  0.00  0.00    +0.029 C 
ATOM     39  C   UNL     1      -2.416  -4.929   5.703  0.00  0.00    +0.029 C 
ENDBRANCH  34  36
ENDBRANCH   1  30
TORSDOF 7
