REMARK  Name = ZINC63994284
REMARK  14 active torsions:
REMARK  status: ('A' for Active; 'I' for Inactive)
REMARK    1  A    between atoms: C_1  and  C_2
REMARK    2  A    between atoms: C_4  and  C_36
REMARK    3  A    between atoms: C_7  and  C_13
REMARK    4  A    between atoms: C_9  and  C_12
REMARK    5  A    between atoms: C_20  and  C_28
REMARK    6  A    between atoms: N_22  and  C_23
REMARK    7  A    between atoms: C_23  and  C_24
REMARK    8  A    between atoms: C_24  and  C_25
REMARK    9  A    between atoms: C_25  and  C_26
REMARK   10  A    between atoms: C_25  and  C_27
REMARK   11  A    between atoms: N_30  and  C_31
REMARK   12  A    between atoms: C_31  and  C_32
REMARK   13  A    between atoms: C_32  and  O_33
REMARK   14  A    between atoms: O_33  and  C_34
REMARK                            x       y       z     vdW  Elec       q    Type
REMARK                         _______ _______ _______ _____ _____    ______ ____
ROOT
ATOM      1  C   UNL     1      -1.163  -5.302   1.757  0.00  0.00    +0.242 C 
ATOM      2  O   UNL     1      -2.154  -5.230   1.060  0.00  0.00    -0.273 OA
ATOM      3  N   UNL     1      -1.151  -6.120   2.828  0.00  0.00    -0.295 N 
ATOM      4  C   UNL     1      -0.009  -6.131   3.754  0.00  0.00    +0.114 C 
ATOM      5  C   UNL     1      -0.471  -5.647   5.135  0.00  0.00    +0.074 C 
ATOM      6  C   UNL     1      -1.768  -6.331   5.480  0.00  0.00    +0.046 A 
ATOM      7  C   UNL     1      -2.575  -6.939   4.575  0.00  0.00    +0.023 A 
ATOM      8  C   UNL     1      -3.668  -7.437   5.301  0.00  0.00    +0.152 A 
ATOM      9  N   UNL     1      -3.461  -7.113   6.566  0.00  0.00    -0.166 NA
ATOM     10  N   UNL     1      -2.352  -6.467   6.683  0.00  0.00    -0.267 N 
ATOM     11  C   UNL     1      -2.286  -7.021   3.104  0.00  0.00    +0.147 C 
ENDROOT
BRANCH   1  18
ATOM     12  C   UNL     1      -0.170   1.160  -0.867  0.00  0.00    +0.044 C 
ATOM     13  C   UNL     1      -0.062  -0.328  -0.656  0.00  0.00    -0.050 A 
ATOM     14  C   UNL     1       0.150  -1.161  -1.764  0.00  0.00    +0.008 A 
ATOM     15  C   UNL     1       0.258  -2.502  -1.657  0.00  0.00    -0.027 A 
ATOM     16  C   UNL     1       0.157  -3.133  -0.387  0.00  0.00    +0.046 A 
ATOM     17  N   UNL     1       0.226  -4.393  -0.029  0.00  0.00    -0.370 N 
ATOM     18  C   UNL     1       0.053  -4.476   1.425  0.00  0.00    +0.193 C 
ATOM     19  C   UNL     1      -0.134  -3.054   1.903  0.00  0.00    -0.033 C 
ATOM     20  C   UNL     1      -0.067  -2.276   0.799  0.00  0.00    -0.000 A 
ATOM     21  C   UNL     1      -0.167  -0.825   0.597  0.00  0.00    +0.013 A 
ATOM     22  C   UNL     1      -0.351  -2.596   3.322  0.00  0.00    +0.042 C 
ATOM     23  C   UNL     1       0.486  -3.336  -2.892  0.00  0.00    +0.046 C 
ATOM     24  H   UNL     1       0.367  -5.144  -0.627  0.00  0.00    +0.161 HD
ENDBRANCH   1  18
BRANCH   8  25
ATOM     25  C   UNL     1      -4.825  -8.178   4.758  0.00  0.00    +0.265 C 
ATOM     26  O   UNL     1      -4.893  -8.411   3.567  0.00  0.00    -0.268 OA
ATOM     27  N   UNL     1      -5.805  -8.596   5.583  0.00  0.00    -0.308 N 
ATOM     28  H   UNL     1      -5.751  -8.411   6.534  0.00  0.00    +0.149 HD
BRANCH  27  29
ATOM     29  C   UNL     1      -6.952  -9.331   5.045  0.00  0.00    +0.132 C 
BRANCH  29  30
ATOM     30  C   UNL     1      -7.911  -9.686   6.183  0.00  0.00    +0.178 C 
BRANCH  30  31
ATOM     31  O   UNL     1      -8.457  -8.487   6.737  0.00  0.00    -0.381 OA
ATOM     32  C   UNL     1      -9.370  -8.708   7.814  0.00  0.00    +0.194 C 
ENDBRANCH  30  31
ENDBRANCH  29  30
ENDBRANCH  27  29
ENDBRANCH   8  25
BRANCH  10  33
ATOM     33  C   UNL     1      -1.807  -5.956   7.943  0.00  0.00    +0.144 C 
BRANCH  33  34
ATOM     34  C   UNL     1      -2.320  -4.535   8.181  0.00  0.00    +0.026 C 
BRANCH  34  35
ATOM     35  C   UNL     1      -1.750  -4.001   9.497  0.00  0.00    -0.015 C 
ATOM     36  C   UNL     1      -0.231  -3.869   9.379  0.00  0.00    +0.007 C 
ATOM     37  C   UNL     1      -2.360  -2.630   9.798  0.00  0.00    +0.007 C 
ENDBRANCH  34  35
ENDBRANCH  33  34
ENDBRANCH  10  33
TORSDOF 8
