REMARK  Name = ZINC12882638
REMARK  6 active torsions:
REMARK  status: ('A' for Active; 'I' for Inactive)
REMARK    1  A    between atoms: C_1  and  C_2
REMARK    2  A    between atoms: C_7  and  C_36
REMARK    3  A    between atoms: C_20  and  C_22
REMARK    4  A    between atoms: C_22  and  N_66
REMARK    5  A    between atoms: C_25  and  C_28
REMARK    6  A    between atoms: C_25  and  O_35
REMARK                            x       y       z     vdW  Elec       q    Type
REMARK                         _______ _______ _______ _____ _____    ______ ____
ROOT
ATOM      1  C   UNL     1       1.480   2.150  -5.346  0.00  0.00    +0.010 C 
ATOM      2  C   UNL     1       2.248   2.815  -4.202  0.00  0.00    +0.021 C 
ATOM      3  C   UNL     1       2.330   4.299  -4.463  0.00  0.00    +0.006 C 
ATOM      4  C   UNL     1       1.113   5.018  -3.882  0.00  0.00    +0.001 C 
ATOM      5  C   UNL     1       1.192   4.887  -2.361  0.00  0.00    +0.010 C 
ATOM      6  C   UNL     1       1.044   3.445  -1.942  0.00  0.00    +0.003 C 
ATOM      7  C   UNL     1       1.592   2.405  -2.888  0.00  0.00    +0.104 C 
ATOM      8  C   UNL     1       2.054   1.058  -2.325  0.00  0.00    +0.159 C 
ATOM      9  O   UNL     1       0.796   1.194  -2.968  0.00  0.00    -0.363 OA
ATOM     10  C   UNL     1       2.129   0.806  -0.835  0.00  0.00    +0.073 C 
ATOM     11  C   UNL     1       1.354   1.827  -0.001  0.00  0.00    +0.183 C 
ATOM     12  C   UNL     1       1.466   3.243  -0.507  0.00  0.00    +0.054 C 
ATOM     13  O   UNL     1      -0.016   1.341   0.009  0.00  0.00    -0.461 OA
ATOM     14  C   UNL     1       0.002  -0.004   0.002  0.00  0.00    +0.309 C 
ATOM     15  O   UNL     1      -0.906  -0.714   0.364  0.00  0.00    -0.251 OA
ATOM     16  C   UNL     1       1.334  -0.494  -0.529  0.00  0.00    +0.090 C 
ATOM     17  C   UNL     1      -0.467   3.200  -1.931  0.00  0.00    +0.014 C 
ENDROOT
BRANCH  16  18
ATOM     18  C   UNL     1       1.131  -1.310  -1.808  0.00  0.00    -0.064 C 
BRANCH  18  24
ATOM     19  C   UNL     1       1.217  -3.425  -0.633  0.00  0.00    -0.076 C 
ATOM     20  C   UNL     1       0.381  -4.633  -0.203  0.00  0.00    +0.021 C 
ATOM     21  C   UNL     1      -0.086  -5.393  -1.448  0.00  0.00    +0.088 C 
ATOM     22  C   UNL     1      -0.885  -4.445  -2.345  0.00  0.00    +0.021 C 
ATOM     23  C   UNL     1      -0.012  -3.242  -2.713  0.00  0.00    -0.076 C 
ATOM     24  N   UNL     1       0.384  -2.540  -1.474  0.00  0.00    +0.380 N 
ATOM     25  H   UNL     1      -0.463  -2.284  -0.951  0.00  0.00    -0.082 HD
BRANCH  21  26
ATOM     26  C   UNL     1      -0.958  -6.550  -1.034  0.00  0.00    -0.016 A 
ATOM     27  C   UNL     1      -2.323  -6.373  -0.902  0.00  0.00    +0.008 A 
ATOM     28  C   UNL     1      -3.124  -7.436  -0.528  0.00  0.00    +0.020 A 
ATOM     29  C   UNL     1      -2.559  -8.673  -0.277  0.00  0.00    +0.041 A 
ATOM     30  C   UNL     1      -1.193  -8.848  -0.404  0.00  0.00    +0.020 A 
ATOM     31  C   UNL     1      -0.393  -7.787  -0.783  0.00  0.00    +0.008 A 
ATOM     32 CL   UNL     1      -3.565 -10.006   0.200  0.00  0.00    -0.084 Cl
ENDBRANCH  21  26
BRANCH  21  33
ATOM     33  O   UNL     1       1.051  -5.883  -2.162  0.00  0.00    -0.384 OA
ATOM     34  H   UNL     1       1.604  -6.491  -1.652  0.00  0.00    +0.211 HD
ENDBRANCH  21  33
ENDBRANCH  18  24
ENDBRANCH  16  18
TORSDOF 4
