REMARK  Name = ZINC00942078
REMARK  8 active torsions:
REMARK  status: ('A' for Active; 'I' for Inactive)
REMARK    1  A    between atoms: C_1  and  O_2
REMARK    2  A    between atoms: O_2  and  C_3
REMARK    3  A    between atoms: C_3  and  C_5
REMARK    4  A    between atoms: C_10  and  N_11
REMARK    5  A    between atoms: C_12  and  C_14
REMARK    6  A    between atoms: C_14  and  O_15
REMARK    7  A    between atoms: O_15  and  C_16
REMARK    8  A    between atoms: C_21  and  N_22
REMARK                            x       y       z     vdW  Elec       q    Type
REMARK                         _______ _______ _______ _____ _____    ______ ____
ROOT
ATOM      1  N   UNL     1      -3.714  -2.119   0.212  0.00  0.00    -0.282 N 
ATOM      2  C   UNL     1      -4.862  -2.796   0.414  0.00  0.00    +0.255 C 
ATOM      3  O   UNL     1      -4.835  -3.996   0.592  0.00  0.00    -0.272 OA
ATOM      4  H   UNL     1      -3.727  -1.152   0.146  0.00  0.00    +0.155 HD
ENDROOT
BRANCH   1  10
ATOM      5  C   UNL     1      -1.326  -2.249   0.602  0.00  0.00    +0.081 A 
ATOM      6  C   UNL     1      -0.123  -2.949   0.477  0.00  0.00    +0.032 A 
ATOM      7  C   UNL     1      -0.108  -4.187  -0.130  0.00  0.00    +0.019 A 
ATOM      8  C   UNL     1      -1.280  -4.737  -0.627  0.00  0.00    +0.017 A 
ATOM      9  C   UNL     1      -2.474  -4.055  -0.515  0.00  0.00    +0.025 A 
ATOM     10  C   UNL     1      -2.510  -2.809   0.098  0.00  0.00    +0.048 A 
ATOM     11 BR   UNL     1       1.519  -5.136  -0.292  0.00  0.00    -0.050 Br
BRANCH   5  12
ATOM     12  C   UNL     1      -1.351  -0.928   1.255  0.00  0.00    +0.341 C 
ATOM     13  O   UNL     1      -2.379  -0.281   1.278  0.00  0.00    -0.245 OA
BRANCH  12  15
ATOM     14  C   UNL     1      -0.330   0.869   2.450  0.00  0.00    +0.280 C 
ATOM     15  O   UNL     1      -0.233  -0.438   1.825  0.00  0.00    -0.464 OA
ENDBRANCH  12  15
ENDBRANCH   5  12
ENDBRANCH   1  10
BRANCH   2  16
ATOM     16  C   UNL     1      -6.179  -2.063   0.418  0.00  0.00    +0.325 C 
BRANCH  16  17
ATOM     17  O   UNL     1      -7.240  -2.991   0.651  0.00  0.00    -0.480 OA
BRANCH  17  18
ATOM     18  C   UNL     1      -8.502  -2.489   0.685  0.00  0.00    +0.151 A 
ATOM     19  C   UNL     1      -8.715  -1.130   0.505  0.00  0.00    +0.048 A 
ATOM     20  C   UNL     1      -9.999  -0.622   0.536  0.00  0.00    +0.004 A 
ATOM     21  C   UNL     1     -11.072  -1.466   0.757  0.00  0.00    +0.002 A 
ATOM     22  C   UNL     1     -10.863  -2.820   0.942  0.00  0.00    +0.036 A 
ATOM     23  C   UNL     1      -9.580  -3.333   0.907  0.00  0.00    +0.168 A 
BRANCH  23  24
ATOM     24  N   UNL     1      -9.357  -4.783   1.105  0.00  0.00    +0.060 N 
ATOM     25  O   UNL     1     -10.304  -5.524   1.300  0.00  0.00    -0.126 OA
ATOM     26  O   UNL     1      -8.226  -5.235   1.075  0.00  0.00    -0.126 OA
ENDBRANCH  23  24
ENDBRANCH  17  18
ENDBRANCH  16  17
ENDBRANCH   2  16
TORSDOF 7
