REMARK  Name = ZINC58423512
REMARK  6 active torsions:
REMARK  status: ('A' for Active; 'I' for Inactive)
REMARK    1  A    between atoms: C_1  and  C_2
REMARK    2  A    between atoms: C_4  and  C_7
REMARK    3  A    between atoms: C_7  and  C_9
REMARK    4  A    between atoms: C_7  and  N_10
REMARK    5  A    between atoms: C_11  and  C_13
REMARK    6  A    between atoms: C_19  and  C_22
REMARK                            x       y       z     vdW  Elec       q    Type
REMARK                         _______ _______ _______ _____ _____    ______ ____
ROOT
ATOM      1  C   UNL     1      -2.736  -5.860  -1.725  0.00  0.00    +0.038 A 
ATOM      2  C   UNL     1      -3.046  -5.943  -0.352  0.00  0.00    +0.015 A 
ATOM      3  C   UNL     1      -3.808  -6.944   0.143  0.00  0.00    +0.032 A 
ATOM      4  C   UNL     1      -4.316  -7.940  -0.726  0.00  0.00    +0.114 A 
ATOM      5  C   UNL     1      -3.997  -7.861  -2.162  0.00  0.00    +0.050 A 
ATOM      6  C   UNL     1      -3.206  -6.801  -2.626  0.00  0.00    +0.027 A 
ATOM      7  C   UNL     1      -4.618  -8.956  -2.766  0.00  0.00    +0.175 A 
ATOM      8  O   UNL     1      -5.255  -9.642  -1.807  0.00  0.00    -0.353 OA
ATOM      9  N   UNL     1      -5.063  -9.009  -0.557  0.00  0.00    -0.078 NA
ENDROOT
BRANCH   7  10
ATOM     10  C   UNL     1      -4.580  -9.295  -4.199  0.00  0.00    +0.021 A 
ATOM     11  C   UNL     1      -5.758  -9.636  -4.872  0.00  0.00    +0.011 A 
ATOM     12  C   UNL     1      -5.714  -9.953  -6.213  0.00  0.00    +0.001 A 
ATOM     13  C   UNL     1      -4.509  -9.934  -6.894  0.00  0.00    +0.000 A 
ATOM     14  C   UNL     1      -3.339  -9.598  -6.234  0.00  0.00    +0.001 A 
ATOM     15  C   UNL     1      -3.368  -9.273  -4.895  0.00  0.00    +0.011 A 
ENDBRANCH   7  10
BRANCH   1  17
ATOM     16  N   UNL     1      -1.436  -3.825  -1.346  0.00  0.00    -0.300 N 
ATOM     17  C   UNL     1      -1.900  -4.747  -2.212  0.00  0.00    +0.245 C 
ATOM     18  O   UNL     1      -1.630  -4.662  -3.394  0.00  0.00    -0.270 OA
ATOM     19  H   UNL     1      -1.651  -3.893  -0.403  0.00  0.00    +0.150 HD
BRANCH  16  20
ATOM     20  C   UNL     1      -0.605  -2.719  -1.830  0.00  0.00    +0.159 C 
ATOM     21  C   UNL     1       0.855  -3.172  -1.903  0.00  0.00    +0.038 C 
BRANCH  20  25
ATOM     22  C   UNL     1      -1.141   1.962  -0.128  0.00  0.00    +0.091 C 
ATOM     23  C   UNL     1      -0.953   0.467  -0.135  0.00  0.00    +0.169 A 
ATOM     24  N   UNL     1      -0.890  -0.305  -1.226  0.00  0.00    -0.195 NA
ATOM     25  C   UNL     1      -0.722  -1.552  -0.884  0.00  0.00    +0.247 A 
ATOM     26  O   UNL     1      -0.672  -1.617   0.453  0.00  0.00    -0.336 OA
ATOM     27  N   UNL     1      -0.819  -0.284   0.921  0.00  0.00    -0.062 NA
ENDBRANCH  20  25
ENDBRANCH  16  20
ENDBRANCH   1  17
TORSDOF 4
