REMARK  Name = ZINC40013021
REMARK  9 active torsions:
REMARK  status: ('A' for Active; 'I' for Inactive)
REMARK    1  A    between atoms: C_1  and  C_2
REMARK    2  A    between atoms: C_4  and  C_12
REMARK    3  A    between atoms: C_12  and  C_14
REMARK    4  A    between atoms: C_14  and  O_15
REMARK    5  A    between atoms: O_15  and  C_16
REMARK    6  A    between atoms: C_16  and  C_18
REMARK    7  A    between atoms: C_22  and  S_24
REMARK    8  A    between atoms: S_24  and  N_27
REMARK    9  A    between atoms: C_33  and  C_35
REMARK                            x       y       z     vdW  Elec       q    Type
REMARK                         _______ _______ _______ _____ _____    ______ ____
ROOT
ATOM      1  C   UNL     1      -6.849  -0.757  -2.855  0.00  0.00    +0.061 A 
ATOM      2  C   UNL     1      -6.415   0.042  -3.915  0.00  0.00    +0.015 A 
ATOM      3  C   UNL     1      -7.281   0.348  -4.944  0.00  0.00    +0.003 A 
ATOM      4  C   UNL     1      -8.578  -0.134  -4.927  0.00  0.00    +0.028 A 
ATOM      5  C   UNL     1      -9.015  -0.926  -3.880  0.00  0.00    +0.106 A 
ATOM      6  C   UNL     1      -8.157  -1.245  -2.848  0.00  0.00    +0.043 A 
ENDROOT
BRANCH   5   7
ATOM      7  S   UNL     1     -10.669  -1.534  -3.868  0.00  0.00    +0.061 S 
ATOM      8  O   UNL     1     -10.994  -1.799  -2.510  0.00  0.00    -0.153 OA
ATOM      9  O   UNL     1     -11.433  -0.649  -4.676  0.00  0.00    -0.153 OA
BRANCH   7  10
ATOM     10  N   UNL     1     -10.659  -2.995  -4.646  0.00  0.00    -0.174 NA
ATOM     11  C   UNL     1     -10.871  -3.071  -6.098  0.00  0.00    +0.128 C 
ATOM     12  C   UNL     1      -9.688  -3.818  -6.728  0.00  0.00    +0.125 C 
ATOM     13  N   UNL     1      -9.467  -5.063  -5.979  0.00  0.00    -0.299 N 
ATOM     14  C   UNL     1      -9.255  -4.987  -4.527  0.00  0.00    +0.125 C 
ATOM     15  C   UNL     1     -10.432  -4.240  -3.898  0.00  0.00    +0.128 C 
ATOM     16  C   UNL     1      -9.459  -6.252  -6.612  0.00  0.00    +0.213 C 
ATOM     17  O   UNL     1      -9.735  -6.313  -7.792  0.00  0.00    -0.276 OA
ATOM     18  C   UNL     1      -9.106  -7.507  -5.856  0.00  0.00    +0.109 C 
ENDBRANCH   7  10
ENDBRANCH   5   7
BRANCH   1  19
ATOM     19  C   UNL     1      -5.926  -1.090  -1.750  0.00  0.00    +0.340 C 
ATOM     20  O   UNL     1      -6.305  -1.789  -0.832  0.00  0.00    -0.245 OA
BRANCH  19  21
ATOM     21  O   UNL     1      -4.665  -0.617  -1.761  0.00  0.00    -0.453 OA
BRANCH  21  22
ATOM     22  C   UNL     1      -3.828  -0.978  -0.661  0.00  0.00    +0.311 C 
BRANCH  22  23
ATOM     23  C   UNL     1      -2.464  -0.363  -0.844  0.00  0.00    +0.199 C 
ATOM     24  O   UNL     1      -2.232   0.319  -1.821  0.00  0.00    -0.289 OA
BRANCH  23  27
ATOM     25  C   UNL     1      -0.057   1.486   0.111  0.00  0.00    +0.035 C 
ATOM     26  C   UNL     1      -0.042  -0.044   0.102  0.00  0.00    +0.111 C 
ATOM     27  C   UNL     1      -1.458  -0.579   0.121  0.00  0.00    +0.029 C 
ATOM     28  C   UNL     1      -1.557  -1.324   1.282  0.00  0.00    +0.007 A 
ATOM     29  C   UNL     1      -2.614  -2.066   1.861  0.00  0.00    +0.010 A 
ATOM     30  C   UNL     1      -2.429  -2.712   3.034  0.00  0.00    +0.001 A 
ATOM     31  C   UNL     1      -1.208  -2.683   3.727  0.00  0.00    +0.002 A 
ATOM     32  C   UNL     1      -0.138  -2.004   3.261  0.00  0.00    +0.026 A 
ATOM     33  C   UNL     1      -0.254  -1.272   1.988  0.00  0.00    +0.043 A 
ATOM     34  N   UNL     1       0.601  -0.549   1.319  0.00  0.00    -0.377 N 
ATOM     35  H   UNL     1       1.517  -0.373   1.584  0.00  0.00    +0.160 HD
ENDBRANCH  23  27
ENDBRANCH  22  23
ENDBRANCH  21  22
ENDBRANCH  19  21
ENDBRANCH   1  19
TORSDOF 7
