REMARK  Name = ZINC01495474
REMARK  3 active torsions:
REMARK  status: ('A' for Active; 'I' for Inactive)
REMARK    1  A    between atoms: C_4  and  C_7
REMARK    2  A    between atoms: C_7  and  C_8
REMARK    3  A    between atoms: C_7  and  N_47
REMARK                            x       y       z     vdW  Elec       q    Type
REMARK                         _______ _______ _______ _____ _____    ______ ____
ROOT
ATOM      1  C   UNL     1      -1.477   8.031   2.320  0.00  0.00    -0.058 C 
ATOM      2  C   UNL     1      -1.566   6.504   2.268  0.00  0.00    +0.089 C 
ATOM      3  N   UNL     1      -2.354   6.101   1.094  0.00  0.00    -0.303 N 
ATOM      4  C   UNL     1      -1.738   6.596  -0.145  0.00  0.00    +0.089 C 
ATOM      5  C   UNL     1      -1.649   8.123  -0.093  0.00  0.00    -0.058 C 
ATOM      6  C   UNL     1      -2.516   4.727   1.053  0.00  0.00    +0.218 A 
ATOM      7  N   UNL     1      -3.204   4.187   0.059  0.00  0.00    -0.222 NA
ATOM      8  C   UNL     1      -3.377   2.877  -0.011  0.00  0.00    +0.131 A 
ATOM      9  C   UNL     1      -2.829   2.069   0.974  0.00  0.00    +0.054 A 
ATOM     10  C   UNL     1      -2.120   2.669   2.004  0.00  0.00    +0.131 A 
ATOM     11  N   UNL     1      -1.979   3.984   2.010  0.00  0.00    -0.222 NA
ATOM     12 BR   UNL     1      -3.050   0.192   0.917  0.00  0.00    -0.047 Br
ATOM     13  N   UNL     1      -0.837   8.514   1.078  0.00  0.00    +0.389 N 
ATOM     14  H   UNL     1       0.094   8.088   0.995  0.00  0.00    -0.080 HD
ENDROOT
BRANCH  13  15
ATOM     15  C   UNL     1      -0.689   9.984   1.124  0.00  0.00    -0.007 C 
BRANCH  15  19
ATOM     16  C   UNL     1       1.673  11.038   4.524  0.00  0.00    +0.000 A 
ATOM     17  C   UNL     1       0.538  11.766   4.218  0.00  0.00    +0.000 A 
ATOM     18  C   UNL     1      -0.227  11.425   3.118  0.00  0.00    +0.002 A 
ATOM     19  C   UNL     1       0.144  10.356   2.323  0.00  0.00    -0.057 A 
ATOM     20  C   UNL     1       1.276   9.625   2.632  0.00  0.00    +0.002 A 
ATOM     21  C   UNL     1       2.043   9.969   3.729  0.00  0.00    +0.000 A 
ENDBRANCH  15  19
BRANCH  15  22
ATOM     22  C   UNL     1       0.004  10.446  -0.132  0.00  0.00    -0.057 A 
ATOM     23  C   UNL     1       1.098   9.751  -0.613  0.00  0.00    +0.002 A 
ATOM     24  C   UNL     1       1.731  10.172  -1.768  0.00  0.00    +0.000 A 
ATOM     25  C   UNL     1       1.275  11.293  -2.436  0.00  0.00    +0.000 A 
ATOM     26  C   UNL     1       0.184  11.991  -1.952  0.00  0.00    +0.000 A 
ATOM     27  C   UNL     1      -0.452  11.567  -0.800  0.00  0.00    +0.002 A 
ENDBRANCH  15  22
ENDBRANCH  13  15
TORSDOF 3
