REMARK  Name = ZINC22561423
REMARK  17 active torsions:
REMARK  status: ('A' for Active; 'I' for Inactive)
REMARK    1  A    between atoms: C_1  and  C_2
REMARK    2  A    between atoms: C_4  and  C_14
REMARK    3  A    between atoms: C_5  and  C_13
REMARK    4  A    between atoms: N_6  and  C_7
REMARK    5  A    between atoms: C_7  and  C_9
REMARK    6  A    between atoms: C_7  and  C_10
REMARK    7  A    between atoms: C_10  and  O_11
REMARK    8  A    between atoms: O_11  and  C_12
REMARK    9  A    between atoms: C_14  and  C_16
REMARK   10  A    between atoms: C_16  and  S_17
REMARK   11  A    between atoms: S_17  and  C_18
REMARK   12  A    between atoms: C_21  and  C_30
REMARK   13  A    between atoms: N_22  and  C_23
REMARK   14  A    between atoms: C_30  and  C_32
REMARK   15  A    between atoms: C_30  and  N_33
REMARK   16  A    between atoms: N_33  and  C_34
REMARK   17  A    between atoms: N_33  and  C_35
REMARK                            x       y       z     vdW  Elec       q    Type
REMARK                         _______ _______ _______ _____ _____    ______ ____
ROOT
ATOM      1  C   UNL     1      -4.503   3.210   7.428  0.00  0.00    +0.196 A 
ATOM      2  N   UNL     1      -4.438   4.440   6.971  0.00  0.00    -0.122 NA
ATOM      3  N   UNL     1      -5.022   5.241   7.789  0.00  0.00    -0.135 NA
ATOM      4  C   UNL     1      -5.491   4.579   8.808  0.00  0.00    +0.125 A 
ATOM      5  N   UNL     1      -5.182   3.259   8.614  0.00  0.00    -0.275 N 
ENDROOT
BRANCH   5   6
ATOM      6  C   UNL     1      -5.495   2.182   9.457  0.00  0.00    +0.050 A 
ATOM      7  C   UNL     1      -6.820   1.827   9.667  0.00  0.00    +0.028 A 
ATOM      8  C   UNL     1      -7.125   0.763  10.494  0.00  0.00    +0.022 A 
ATOM      9  C   UNL     1      -6.112   0.059  11.120  0.00  0.00    +0.041 A 
ATOM     10  C   UNL     1      -4.791   0.415  10.915  0.00  0.00    +0.022 A 
ATOM     11  C   UNL     1      -4.480   1.474  10.085  0.00  0.00    +0.028 A 
ATOM     12 CL   UNL     1      -6.499  -1.274  12.163  0.00  0.00    -0.084 Cl
ENDBRANCH   5   6
BRANCH   4  13
ATOM     13  C   UNL     1      -6.240   5.158   9.981  0.00  0.00    -0.003 C 
ATOM     14  C   UNL     1      -5.260   5.883  10.905  0.00  0.00    -0.005 C 
BRANCH  13  15
ATOM     15  N   UNL     1      -7.250   6.109   9.496  0.00  0.00    +0.382 N 
ATOM     16  C   UNL     1      -8.080   6.605  10.602  0.00  0.00    -0.096 C 
ATOM     17  C   UNL     1      -6.620   7.221   8.771  0.00  0.00    -0.096 C 
ATOM     18  H   UNL     1      -7.907   5.576   8.793  0.00  0.00    -0.082 HD
ENDBRANCH  13  15
ENDBRANCH   4  13
BRANCH   1  19
ATOM     19  S   UNL     1      -3.845   1.770   6.655  0.00  0.00    -0.078 S 
BRANCH  19  20
ATOM     20  C   UNL     1      -3.126   2.511   5.168  0.00  0.00    +0.157 C 
BRANCH  20  21
ATOM     21  C   UNL     1      -2.488   1.434   4.329  0.00  0.00    +0.175 C 
ATOM     22  O   UNL     1      -2.517   0.279   4.699  0.00  0.00    -0.291 OA
BRANCH  21  26
ATOM     23  C   UNL     1      -0.671   4.067   0.363  0.00  0.00    +0.063 C 
ATOM     24  C   UNL     1      -1.037   2.962   1.320  0.00  0.00    +0.017 A 
ATOM     25  C   UNL     1      -1.708   3.120   2.473  0.00  0.00    +0.034 A 
ATOM     26  C   UNL     1      -1.833   1.782   3.066  0.00  0.00    +0.039 A 
ATOM     27  C   UNL     1      -1.212   0.918   2.184  0.00  0.00    +0.027 A 
ATOM     28  N   UNL     1      -0.739   1.640   1.153  0.00  0.00    -0.343 N 
ATOM     29  C   UNL     1      -1.084  -0.574   2.351  0.00  0.00    +0.064 C 
BRANCH  28  30
ATOM     30  C   UNL     1      -0.011   1.086   0.009  0.00  0.00    +0.110 C 
ATOM     31  C   UNL     1      -0.694   1.521  -1.289  0.00  0.00    +0.033 C 
BRANCH  30  32
ATOM     32  C   UNL     1       1.430   1.600   0.024  0.00  0.00    +0.184 C 
BRANCH  32  33
ATOM     33  O   UNL     1       2.174   0.962  -1.017  0.00  0.00    -0.381 OA
ATOM     34  C   UNL     1       3.541   1.373  -1.090  0.00  0.00    +0.194 C 
ENDBRANCH  32  33
ENDBRANCH  30  32
ENDBRANCH  28  30
ENDBRANCH  21  26
ENDBRANCH  20  21
ENDBRANCH  19  20
ENDBRANCH   1  19
TORSDOF 10
