REMARK  Name = ZINC59171163
REMARK  11 active torsions:
REMARK  status: ('A' for Active; 'I' for Inactive)
REMARK    1  A    between atoms: C_1  and  C_2
REMARK    2  A    between atoms: C_2  and  N_3
REMARK    3  A    between atoms: N_3  and  C_4
REMARK    4  A    between atoms: N_3  and  C_6
REMARK    5  A    between atoms: C_4  and  C_5
REMARK    6  A    between atoms: C_11  and  C_26
REMARK    7  A    between atoms: N_13  and  C_14
REMARK    8  A    between atoms: C_18  and  O_20
REMARK    9  A    between atoms: O_20  and  C_21
REMARK   10  A    between atoms: C_21  and  C_22
REMARK   11  A    between atoms: C_26  and  N_28
REMARK                            x       y       z     vdW  Elec       q    Type
REMARK                         _______ _______ _______ _____ _____    ______ ____
ROOT
ATOM      1  C   UNL     1      -0.866  -0.790  -2.300  0.00  0.00    +0.033 A 
ATOM      2  C   UNL     1      -2.188  -0.495  -2.637  0.00  0.00    +0.024 A 
ATOM      3  C   UNL     1      -2.634  -0.679  -3.912  0.00  0.00    +0.013 A 
ATOM      4  C   UNL     1      -1.763  -1.176  -4.893  0.00  0.00    +0.018 A 
ATOM      5  C   UNL     1      -2.225  -1.405  -6.213  0.00  0.00    +0.027 A 
ATOM      6  C   UNL     1      -1.390  -2.081  -7.093  0.00  0.00    +0.064 A 
ATOM      7  C   UNL     1      -0.088  -2.543  -6.573  0.00  0.00    +0.209 A 
ATOM      8  N   UNL     1       0.535  -3.570  -7.110  0.00  0.00    -0.325 N 
ATOM      9  O   UNL     1       0.444  -1.869  -5.521  0.00  0.00    -0.439 OA
ATOM     10  C   UNL     1      -0.419  -1.446  -4.565  0.00  0.00    +0.139 A 
ATOM     11  C   UNL     1       0.018  -1.256  -3.265  0.00  0.00    +0.070 A 
ATOM     12  H   UNL     1       0.099  -4.096  -7.798  0.00  0.00    +0.169 HD
ENDROOT
BRANCH   8  13
ATOM     13  C   UNL     1       1.798  -3.895  -6.698  0.00  0.00    +0.045 A 
ATOM     14  C   UNL     1       2.760  -2.896  -6.529  0.00  0.00    +0.026 A 
ATOM     15  C   UNL     1       4.032  -3.228  -6.113  0.00  0.00    +0.006 A 
ATOM     16  C   UNL     1       4.360  -4.548  -5.861  0.00  0.00    +0.046 A 
ATOM     17  C   UNL     1       3.411  -5.548  -6.026  0.00  0.00    +0.122 A 
ATOM     18  C   UNL     1       2.129  -5.226  -6.438  0.00  0.00    +0.071 A 
BRANCH  17  19
ATOM     19  O   UNL     1       3.739  -6.843  -5.777  0.00  0.00    -0.492 OA
BRANCH  19  20
ATOM     20  C   UNL     1       5.077  -7.103  -5.350  0.00  0.00    +0.225 C 
ATOM     21  C   UNL     1       5.258  -8.605  -5.121  0.00  0.00    +0.048 C 
ENDBRANCH  19  20
ENDBRANCH  17  19
ENDBRANCH   8  13
BRANCH   6  22
ATOM     22  C   UNL     1      -1.788  -2.329  -8.486  0.00  0.00    +0.082 C 
ATOM     23  S   UNL     1      -0.673  -3.025  -9.584  0.00  0.00    -0.035 S 
BRANCH  22  24
ATOM     24  N   UNL     1      -3.030  -2.008  -8.900  0.00  0.00    -0.352 N 
ATOM     25  H   UNL     1      -3.661  -1.613  -8.278  0.00  0.00    +0.143 HD
ATOM     26  H   UNL     1      -3.292  -2.171  -9.819  0.00  0.00    +0.143 HD
ENDBRANCH  22  24
ENDBRANCH   6  22
BRANCH   1  27
ATOM     27  N   UNL     1      -0.429  -0.611  -0.993  0.00  0.00    -0.330 N 
BRANCH  27  29
ATOM     28  C   UNL     1      -1.305   1.409   0.072  0.00  0.00    +0.024 C 
ATOM     29  C   UNL     1      -1.358  -0.119   0.029  0.00  0.00    +0.102 C 
ENDBRANCH  27  29
BRANCH  27  30
ATOM     30  C   UNL     1       0.959  -0.913  -0.636  0.00  0.00    +0.102 C 
ATOM     31  C   UNL     1       1.066  -2.376  -0.200  0.00  0.00    +0.024 C 
ENDBRANCH  27  30
ENDBRANCH   1  27
TORSDOF 8
