REMARK  Name = ZINC64137432
REMARK  8 active torsions:
REMARK  status: ('A' for Active; 'I' for Inactive)
REMARK    1  A    between atoms: C_1  and  C_2
REMARK    2  A    between atoms: C_2  and  C_4
REMARK    3  A    between atoms: C_2  and  N_14
REMARK    4  A    between atoms: C_7  and  C_9
REMARK    5  A    between atoms: N_14  and  C_15
REMARK    6  A    between atoms: C_15  and  C_16
REMARK    7  A    between atoms: C_16  and  C_18
REMARK    8  A    between atoms: C_16  and  C_24
REMARK                            x       y       z     vdW  Elec       q    Type
REMARK                         _______ _______ _______ _____ _____    ______ ____
ROOT
ATOM      1  C   UNL     1       0.584  -1.081   3.565  0.00  0.00    +0.061 C 
ENDROOT
BRANCH   1   2
ATOM      2  C   UNL     1      -0.367  -1.282   4.717  0.00  0.00    -0.033 C 
ATOM      3  C   UNL     1      -0.613  -2.437   5.377  0.00  0.00    -0.000 A 
ATOM      4  C   UNL     1      -0.090  -3.800   5.225  0.00  0.00    +0.010 A 
ATOM      5  C   UNL     1      -0.538  -4.770   6.054  0.00  0.00    +0.001 A 
ATOM      6  C   UNL     1      -1.486  -4.508   7.052  0.00  0.00    +0.002 A 
ATOM      7  C   UNL     1      -2.013  -3.281   7.253  0.00  0.00    +0.026 A 
ATOM      8  C   UNL     1      -1.614  -2.185   6.439  0.00  0.00    +0.043 A 
ATOM      9  N   UNL     1      -1.972  -0.924   6.436  0.00  0.00    -0.380 N 
ATOM     10  C   UNL     1      -1.234  -0.231   5.374  0.00  0.00    +0.145 C 
ATOM     11  H   UNL     1      -2.615  -0.517   7.037  0.00  0.00    +0.160 HD
ENDBRANCH   1   2
BRANCH   1  12
ATOM     12  C   UNL     1       1.634  -0.072   3.951  0.00  0.00    -0.039 A 
ATOM     13  C   UNL     1       1.262   1.210   4.310  0.00  0.00    +0.004 A 
ATOM     14  C   UNL     1       2.226   2.135   4.663  0.00  0.00    +0.000 A 
ATOM     15  C   UNL     1       3.562   1.779   4.658  0.00  0.00    +0.000 A 
ATOM     16  C   UNL     1       3.934   0.497   4.300  0.00  0.00    +0.000 A 
ATOM     17  C   UNL     1       2.970  -0.430   3.951  0.00  0.00    +0.004 A 
ENDBRANCH   1  12
BRANCH   1  18
ATOM     18  C   UNL     1      -0.191  -0.572   2.348  0.00  0.00    +0.094 C 
BRANCH  18  19
ATOM     19  N   UNL     1       0.713  -0.491   1.192  0.00  0.00    -0.305 NA
ATOM     20  H   UNL     1       1.151  -1.381   1.012  0.00  0.00    +0.123 HD
BRANCH  19  22
ATOM     21  C   UNL     1      -0.019   1.526   0.010  0.00  0.00    +0.034 C 
ATOM     22  C   UNL     1       0.002  -0.004   0.002  0.00  0.00    +0.139 C 
BRANCH  22  23
ATOM     23  C   UNL     1       0.707  -0.490  -1.238  0.00  0.00    +0.234 A 
ATOM     24  N   UNL     1       1.994  -0.476  -1.446  0.00  0.00    -0.110 NA
ATOM     25  N   UNL     1       2.248  -0.966  -2.608  0.00  0.00    -0.107 NA
ATOM     26  C   UNL     1       1.120  -1.313  -3.188  0.00  0.00    +0.255 A 
ATOM     27  O   UNL     1       0.123  -1.022  -2.327  0.00  0.00    -0.418 OA
BRANCH  26  28
ATOM     28  C   UNL     1       0.972  -1.911  -4.524  0.00  0.00    +0.076 A 
ATOM     29  C   UNL     1       1.950  -2.241  -5.444  0.00  0.00    +0.021 A 
ATOM     30  C   UNL     1       1.562  -2.796  -6.641  0.00  0.00    +0.008 A 
ATOM     31  C   UNL     1       0.241  -3.002  -6.880  0.00  0.00    +0.046 A 
ATOM     32  S   UNL     1      -0.515  -2.407  -5.377  0.00  0.00    -0.092 S 
ENDBRANCH  26  28
ENDBRANCH  22  23
ENDBRANCH  19  22
ENDBRANCH  18  19
ENDBRANCH   1  18
TORSDOF 7
