REMARK  Name = ZINC39664816
REMARK  10 active torsions:
REMARK  status: ('A' for Active; 'I' for Inactive)
REMARK    1  A    between atoms: C_1  and  N_2
REMARK    2  A    between atoms: N_2  and  C_3
REMARK    3  A    between atoms: N_2  and  C_4
REMARK    4  A    between atoms: C_4  and  C_5
REMARK    5  A    between atoms: C_5  and  C_7
REMARK    6  A    between atoms: C_5  and  N_13
REMARK    7  A    between atoms: C_14  and  C_16
REMARK    8  A    between atoms: C_27  and  C_29
REMARK    9  A    between atoms: C_33  and  O_34
REMARK   10  A    between atoms: O_34  and  C_35
REMARK                            x       y       z     vdW  Elec       q    Type
REMARK                         _______ _______ _______ _____ _____    ______ ____
ROOT
ATOM      1  C   UNL     1      -3.891   0.017   1.926  0.00  0.00    +0.100 C 
ATOM      2  C   UNL     1      -4.266  -1.344   1.297  0.00  0.00    +0.121 C 
ATOM      3  N   UNL     1      -5.566  -1.101   0.628  0.00  0.00    -0.296 N 
ATOM      4  C   UNL     1      -5.428   0.251   0.034  0.00  0.00    +0.115 C 
ATOM      5  C   UNL     1      -4.654   1.061   1.093  0.00  0.00    -0.004 C 
ATOM      6  C   UNL     1      -3.676   2.015   0.416  0.00  0.00    -0.010 C 
ATOM      7  C   UNL     1      -4.460   3.078  -0.358  0.00  0.00    -0.082 C 
ATOM      8  N   UNL     1      -5.332   3.814   0.565  0.00  0.00    +0.379 N 
ATOM      9  C   UNL     1      -6.330   2.906   1.142  0.00  0.00    -0.082 C 
ATOM     10  C   UNL     1      -5.625   1.835   1.979  0.00  0.00    -0.010 C 
ATOM     11  C   UNL     1      -6.633  -1.923   0.572  0.00  0.00    +0.251 C 
ATOM     12  O   UNL     1      -6.625  -2.972   1.187  0.00  0.00    -0.270 OA
ATOM     13  H   UNL     1      -4.775   4.214   1.305  0.00  0.00    -0.086 HD
ATOM     14  H   UNL     1      -5.802   4.554   0.064  0.00  0.00    -0.086 HD
ENDROOT
BRANCH  11  15
ATOM     15  C   UNL     1      -7.806  -1.551  -0.234  0.00  0.00    +0.087 A 
ATOM     16  C   UNL     1      -7.688  -0.772  -1.364  0.00  0.00    +0.063 A 
ATOM     17  S   UNL     1      -9.260  -0.621  -1.929  0.00  0.00    -0.081 S 
ATOM     18  C   UNL     1     -10.127  -1.575  -0.702  0.00  0.00    +0.120 A 
ATOM     19  C   UNL     1      -9.136  -1.991   0.119  0.00  0.00    +0.158 A 
ATOM     20 CL   UNL     1     -11.829  -1.898  -0.591  0.00  0.00    -0.072 Cl
BRANCH  19  21
ATOM     21  O   UNL     1      -9.377  -2.770   1.210  0.00  0.00    -0.492 OA
ATOM     22  C   UNL     1      -9.649  -2.097   2.440  0.00  0.00    +0.277 C 
ENDBRANCH  19  21
ENDBRANCH  11  15
BRANCH   1  24
ATOM     23  N   UNL     1      -1.778   1.012   2.741  0.00  0.00    -0.310 N 
ATOM     24  C   UNL     1      -2.405   0.249   1.824  0.00  0.00    +0.219 C 
ATOM     25  O   UNL     1      -1.774  -0.250   0.917  0.00  0.00    -0.275 OA
ATOM     26  H   UNL     1      -2.267   1.348   3.509  0.00  0.00    +0.149 HD
BRANCH  23  27
ATOM     27  C   UNL     1      -0.359   1.335   2.579  0.00  0.00    +0.087 C 
BRANCH  27  28
ATOM     28  C   UNL     1      -0.180   2.831   2.577  0.00  0.00    -0.029 A 
ATOM     29  C   UNL     1      -0.909   3.615   3.452  0.00  0.00    +0.005 A 
ATOM     30  C   UNL     1      -0.746   4.988   3.451  0.00  0.00    +0.000 A 
ATOM     31  C   UNL     1       0.147   5.577   2.575  0.00  0.00    +0.000 A 
ATOM     32  C   UNL     1       0.876   4.793   1.700  0.00  0.00    +0.000 A 
ATOM     33  C   UNL     1       0.716   3.420   1.705  0.00  0.00    +0.005 A 
ENDBRANCH  27  28
BRANCH  27  34
ATOM     34  C   UNL     1       0.438   0.728   3.736  0.00  0.00    -0.052 C 
BRANCH  34  36
ATOM     35  C   UNL     1       0.779  -1.368   2.619  0.00  0.00    -0.097 C 
ATOM     36  N   UNL     1       0.188  -0.719   3.796  0.00  0.00    +0.377 N 
ATOM     37  C   UNL     1       0.795  -1.270   5.015  0.00  0.00    -0.097 C 
ATOM     38  H   UNL     1      -0.807  -0.888   3.810  0.00  0.00    -0.083 HD
ENDBRANCH  34  36
ENDBRANCH  27  34
ENDBRANCH  23  27
ENDBRANCH   1  24
TORSDOF 7
