REMARK  Name = ZINC12032709
REMARK  9 active torsions:
REMARK  status: ('A' for Active; 'I' for Inactive)
REMARK    1  A    between atoms: C_1  and  C_2
REMARK    2  A    between atoms: C_2  and  O_3
REMARK    3  A    between atoms: O_3  and  C_4
REMARK    4  A    between atoms: C_4  and  C_6
REMARK    5  A    between atoms: C_10  and  N_11
REMARK    6  A    between atoms: C_12  and  C_14
REMARK    7  A    between atoms: C_14  and  S_15
REMARK    8  A    between atoms: S_15  and  C_16
REMARK    9  A    between atoms: C_22  and  C_24
REMARK                            x       y       z     vdW  Elec       q    Type
REMARK                         _______ _______ _______ _____ _____    ______ ____
ROOT
ATOM      1  N   UNL     1      -1.640  -1.854   0.008  0.00  0.00    -0.279 N 
ATOM      2  C   UNL     1      -1.412  -0.526   0.013  0.00  0.00    +0.228 C 
ATOM      3  O   UNL     1      -2.344   0.250   0.026  0.00  0.00    -0.275 OA
ATOM      4  H   UNL     1      -0.894  -2.474  -0.003  0.00  0.00    +0.155 HD
ENDROOT
BRANCH   1   9
ATOM      5  C   UNL     1      -3.373  -3.653   0.009  0.00  0.00    +0.091 A 
ATOM      6  C   UNL     1      -4.808  -3.889   0.028  0.00  0.00    -0.021 A 
ATOM      7  C   UNL     1      -5.573  -2.776   0.040  0.00  0.00    -0.004 A 
ATOM      8  S   UNL     1      -4.420  -1.433   0.036  0.00  0.00    -0.077 S 
ATOM      9  C   UNL     1      -2.940  -2.334   0.018  0.00  0.00    +0.086 A 
ATOM     10  C   UNL     1      -7.069  -2.710   0.053  0.00  0.00    +0.043 C 
ATOM     11  C   UNL     1      -7.619  -4.092  -0.327  0.00  0.00    +0.005 C 
ATOM     12  C   UNL     1      -6.889  -5.157   0.497  0.00  0.00    +0.005 C 
ATOM     13  C   UNL     1      -5.439  -5.276   0.027  0.00  0.00    +0.037 C 
BRANCH   5  14
ATOM     14  C   UNL     1      -2.421  -4.765  -0.014  0.00  0.00    +0.342 C 
ATOM     15  O   UNL     1      -2.014  -5.238   1.030  0.00  0.00    -0.245 OA
BRANCH  14  16
ATOM     16  O   UNL     1      -1.996  -5.265  -1.192  0.00  0.00    -0.461 OA
BRANCH  16  18
ATOM     17  C   UNL     1      -0.688  -6.796  -2.562  0.00  0.00    +0.048 C 
ATOM     18  C   UNL     1      -1.052  -6.367  -1.139  0.00  0.00    +0.229 C 
ENDBRANCH  16  18
ENDBRANCH  14  16
ENDBRANCH   5  14
ENDBRANCH   1   9
BRANCH   2  19
ATOM     19  C   UNL     1       0.002  -0.004   0.002  0.00  0.00    +0.172 C 
BRANCH  19  20
ATOM     20  S   UNL     1      -0.022   1.810   0.012  0.00  0.00    -0.088 S 
BRANCH  20  21
ATOM     21  C   UNL     1       1.681   2.259  -0.002  0.00  0.00    +0.160 A 
ATOM     22  N   UNL     1       2.764   1.495  -0.010  0.00  0.00    -0.133 NA
ATOM     23  N   UNL     1       3.926   1.986  -0.023  0.00  0.00    -0.125 NA
ATOM     24  C   UNL     1       4.136   3.292  -0.019  0.00  0.00    +0.189 A 
ATOM     25  S   UNL     1       2.444   3.879  -0.000  0.00  0.00    -0.024 S 
ATOM     26  N   UNL     1       5.331   4.006  -0.025  0.00  0.00    -0.263 N 
ATOM     27  C   UNL     1       6.508   3.350  -0.039  0.00  0.00    +0.222 C 
ATOM     28  O   UNL     1       6.527   2.137  -0.046  0.00  0.00    -0.275 OA
ATOM     29  H   UNL     1       5.317   4.976  -0.020  0.00  0.00    +0.157 HD
BRANCH  27  30
ATOM     30  C   UNL     1       7.802   4.123  -0.047  0.00  0.00    +0.075 C 
ATOM     31  C   UNL     1       7.859   5.010  -1.292  0.00  0.00    +0.013 C 
ATOM     32  C   UNL     1       9.172   5.795  -1.299  0.00  0.00    +0.001 C 
ATOM     33  C   UNL     1      10.350   4.818  -1.315  0.00  0.00    +0.000 C 
ATOM     34  C   UNL     1      10.293   3.931  -0.070  0.00  0.00    +0.001 C 
ATOM     35  C   UNL     1       8.980   3.146  -0.062  0.00  0.00    +0.013 C 
ENDBRANCH  27  30
ENDBRANCH  20  21
ENDBRANCH  19  20
ENDBRANCH   2  19
TORSDOF 8
