REMARK  Name = ZINC46667412
REMARK  8 active torsions:
REMARK  status: ('A' for Active; 'I' for Inactive)
REMARK    1  A    between atoms: C_1  and  C_2
REMARK    2  A    between atoms: C_4  and  C_34
REMARK    3  A    between atoms: C_10  and  C_13
REMARK    4  A    between atoms: C_13  and  O_15
REMARK    5  A    between atoms: O_15  and  C_16
REMARK    6  A    between atoms: C_16  and  C_17
REMARK    7  A    between atoms: N_19  and  C_20
REMARK    8  A    between atoms: N_19  and  C_28
REMARK                            x       y       z     vdW  Elec       q    Type
REMARK                         _______ _______ _______ _____ _____    ______ ____
ROOT
ATOM      1  C   UNL     1      -1.179 -10.013   2.015  0.00  0.00    +0.328 C 
ENDROOT
BRANCH   1   2
ATOM      2  C   UNL     1      -0.898 -10.161   3.488  0.00  0.00    +0.254 C 
ATOM      3  O   UNL     1      -0.455  -9.223   4.118  0.00  0.00    -0.272 OA
ATOM      4  N   UNL     1      -1.140 -11.334   4.106  0.00  0.00    -0.291 N 
BRANCH   4   5
ATOM      5  C   UNL     1      -0.978 -11.444   5.558  0.00  0.00    +0.099 C 
ATOM      6  C   UNL     1      -1.865 -10.402   6.260  0.00  0.00    +0.047 C 
ATOM      7  C   UNL     1      -1.468 -10.291   7.752  0.00  0.00    +0.168 C 
ATOM      8  S   UNL     1       0.312 -10.757   7.732  0.00  0.00    -0.029 S 
ATOM      9  O   UNL     1       1.093  -9.608   8.032  0.00  0.00    -0.174 OA
ATOM     10  O   UNL     1       0.488 -11.942   8.496  0.00  0.00    -0.174 OA
ATOM     11  C   UNL     1       0.502 -11.160   5.944  0.00  0.00    +0.188 C 
ENDBRANCH   4   5
BRANCH   4  12
ATOM     12  C   UNL     1      -1.564 -12.499   3.325  0.00  0.00    +0.077 C 
ATOM     13  C   UNL     1      -0.687 -12.624   2.078  0.00  0.00    +0.022 C 
ATOM     14  C   UNL     1      -1.130 -13.841   1.263  0.00  0.00    +0.002 C 
ATOM     15  C   UNL     1      -2.591 -13.669   0.844  0.00  0.00    +0.000 C 
ATOM     16  C   UNL     1      -3.469 -13.543   2.091  0.00  0.00    +0.002 C 
ATOM     17  C   UNL     1      -3.026 -12.327   2.906  0.00  0.00    +0.022 C 
ENDBRANCH   4  12
ENDBRANCH   1   2
BRANCH   1  18
ATOM     18  O   UNL     1      -1.340  -8.629   1.697  0.00  0.00    -0.452 OA
BRANCH  18  19
ATOM     19  C   UNL     1      -1.598  -8.323   0.410  0.00  0.00    +0.341 C 
ATOM     20  O   UNL     1      -1.684  -9.207  -0.419  0.00  0.00    -0.245 OA
BRANCH  19  30
ATOM     21  C   UNL     1      -2.188  -0.087  -3.276  0.00  0.00    +0.067 C 
ATOM     22  C   UNL     1      -2.290  -1.085  -2.151  0.00  0.00    +0.061 A 
ATOM     23  C   UNL     1      -2.667  -0.799  -0.834  0.00  0.00    +0.048 A 
ATOM     24  C   UNL     1      -2.637  -1.954  -0.131  0.00  0.00    +0.044 A 
ATOM     25  N   UNL     1      -2.251  -2.942  -0.981  0.00  0.00    -0.219 N 
ATOM     26  N   UNL     1      -2.046  -2.366  -2.241  0.00  0.00    -0.170 NA
ATOM     27  C   UNL     1      -2.092  -4.289  -0.656  0.00  0.00    +0.154 A 
ATOM     28  C   UNL     1      -2.203  -5.253  -1.655  0.00  0.00    +0.049 A 
ATOM     29  C   UNL     1      -2.045  -6.584  -1.328  0.00  0.00    +0.020 A 
ATOM     30  C   UNL     1      -1.775  -6.915   0.008  0.00  0.00    +0.077 A 
ATOM     31  C   UNL     1      -1.679  -5.891   0.953  0.00  0.00    +0.128 A 
ATOM     32  N   UNL     1      -1.832  -4.633   0.596  0.00  0.00    -0.235 NA
ATOM     33  C   UNL     1      -2.970  -2.116   1.330  0.00  0.00    +0.066 C 
ENDBRANCH  19  30
ENDBRANCH  18  19
ENDBRANCH   1  18
TORSDOF 6
