REMARK  Name = ZINC10649838
REMARK  9 active torsions:
REMARK  status: ('A' for Active; 'I' for Inactive)
REMARK    1  A    between atoms: C_1  and  C_2
REMARK    2  A    between atoms: C_2  and  O_3
REMARK    3  A    between atoms: O_3  and  C_4
REMARK    4  A    between atoms: C_4  and  C_6
REMARK    5  A    between atoms: C_7  and  C_21
REMARK    6  A    between atoms: C_12  and  C_14
REMARK    7  A    between atoms: C_21  and  S_22
REMARK    8  A    between atoms: S_22  and  C_23
REMARK    9  A    between atoms: N_27  and  C_28
REMARK                            x       y       z     vdW  Elec       q    Type
REMARK                         _______ _______ _______ _____ _____    ______ ____
ROOT
ATOM      1  C   UNL     1       2.390  -0.086   0.168  0.00  0.00    +0.079 C 
ATOM      2  C   UNL     1       1.271  -0.729  -0.229  0.00  0.00    +0.034 C 
ATOM      3  N   UNL     1       0.096  -0.055  -0.406  0.00  0.00    -0.272 N 
ATOM      4  C   UNL     1      -0.042   1.262  -0.206  0.00  0.00    +0.304 C 
ATOM      5  O   UNL     1      -1.128   1.774  -0.394  0.00  0.00    -0.252 OA
ATOM      6  N   UNL     1       0.985   2.038   0.192  0.00  0.00    -0.288 N 
ATOM      7  C   UNL     1       2.297   1.407   0.411  0.00  0.00    +0.144 C 
ATOM      8  H   UNL     1      -0.682  -0.559  -0.692  0.00  0.00    +0.156 HD
ATOM      9  H   UNL     1       0.863   2.990   0.331  0.00  0.00    +0.151 HD
ENDROOT
BRANCH   7  10
ATOM     10  C   UNL     1       3.296   2.087  -0.490  0.00  0.00    -0.022 A 
ATOM     11  C   UNL     1       2.994   2.296  -1.823  0.00  0.00    +0.007 A 
ATOM     12  C   UNL     1       3.907   2.924  -2.648  0.00  0.00    +0.020 A 
ATOM     13  C   UNL     1       5.128   3.335  -2.143  0.00  0.00    +0.041 A 
ATOM     14  C   UNL     1       5.431   3.122  -0.810  0.00  0.00    +0.020 A 
ATOM     15  C   UNL     1       4.515   2.498   0.016  0.00  0.00    +0.007 A 
ATOM     16 CL   UNL     1       6.277   4.120  -3.180  0.00  0.00    -0.084 Cl
ENDBRANCH   7  10
BRANCH   1  17
ATOM     17  C   UNL     1       3.607  -0.782   0.351  0.00  0.00    +0.339 C 
ATOM     18  O   UNL     1       3.630  -1.997   0.280  0.00  0.00    -0.245 OA
BRANCH  17  19
ATOM     19  O   UNL     1       4.744  -0.100   0.604  0.00  0.00    -0.462 OA
BRANCH  19  21
ATOM     20  C   UNL     1       7.112   0.072   1.055  0.00  0.00    +0.048 C 
ATOM     21  C   UNL     1       5.936  -0.868   0.779  0.00  0.00    +0.229 C 
ENDBRANCH  19  21
ENDBRANCH  17  19
ENDBRANCH   1  17
BRANCH   2  22
ATOM     22  C   UNL     1       1.319  -2.214  -0.483  0.00  0.00    +0.128 C 
BRANCH  22  23
ATOM     23  S   UNL     1       0.872  -3.099   1.031  0.00  0.00    -0.080 S 
BRANCH  23  24
ATOM     24  C   UNL     1       1.007  -4.762   0.465  0.00  0.00    +0.192 A 
ATOM     25  N   UNL     1       1.340  -5.150  -0.745  0.00  0.00    -0.123 NA
ATOM     26  N   UNL     1       1.342  -6.434  -0.806  0.00  0.00    -0.137 NA
ATOM     27  C   UNL     1       1.005  -6.937   0.347  0.00  0.00    +0.226 A 
ATOM     28  N   UNL     1       0.779  -5.891   1.198  0.00  0.00    -0.305 N 
BRANCH  28  29
ATOM     29  C   UNL     1       0.377  -5.965   2.605  0.00  0.00    +0.091 C 
ATOM     30  C   UNL     1       0.380  -7.344   3.269  0.00  0.00    +0.027 C 
ATOM     31  C   UNL     1      -0.947  -6.662   2.925  0.00  0.00    +0.027 C 
ENDBRANCH  28  29
ENDBRANCH  23  24
ENDBRANCH  22  23
ENDBRANCH   2  22
TORSDOF 8
