REMARK  Name = ZINC39710664
REMARK  13 active torsions:
REMARK  status: ('A' for Active; 'I' for Inactive)
REMARK    1  A    between atoms: C_1  and  C_2
REMARK    2  A    between atoms: C_7  and  C_14
REMARK    3  A    between atoms: C_14  and  C_16
REMARK    4  A    between atoms: C_14  and  N_25
REMARK    5  A    between atoms: N_20  and  C_21
REMARK    6  A    between atoms: C_21  and  C_22
REMARK    7  A    between atoms: C_22  and  O_23
REMARK    8  A    between atoms: O_23  and  C_24
REMARK    9  A    between atoms: N_25  and  C_26
REMARK   10  A    between atoms: N_25  and  C_34
REMARK   11  A    between atoms: C_26  and  C_27
REMARK   12  A    between atoms: C_27  and  C_28
REMARK   13  A    between atoms: C_34  and  C_35
REMARK                            x       y       z     vdW  Elec       q    Type
REMARK                         _______ _______ _______ _____ _____    ______ ____
ROOT
ATOM      1  C   UNL     1       1.064  -6.221   1.504  0.00  0.00    +0.142 C 
ENDROOT
BRANCH   1   8
ATOM      2  C   UNL     1      -6.014  -8.511   0.578  0.00  0.00    +0.044 C 
ATOM      3  C   UNL     1      -4.665  -8.116   1.120  0.00  0.00    -0.049 A 
ATOM      4  C   UNL     1      -4.079  -8.912   2.105  0.00  0.00    +0.004 A 
ATOM      5  C   UNL     1      -2.865  -8.607   2.631  0.00  0.00    +0.010 A 
ATOM      6  C   UNL     1      -2.166  -7.416   2.148  0.00  0.00    -0.007 A 
ATOM      7  C   UNL     1      -0.945  -7.071   2.647  0.00  0.00    -0.003 C 
ATOM      8  C   UNL     1      -0.293  -5.822   2.088  0.00  0.00    +0.123 C 
ATOM      9  C   UNL     1      -1.049  -5.060   1.023  0.00  0.00    +0.226 C 
ATOM     10  O   UNL     1      -0.573  -4.051   0.539  0.00  0.00    -0.275 OA
ATOM     11  N   UNL     1      -2.231  -5.496   0.619  0.00  0.00    -0.284 N 
ATOM     12  C   UNL     1      -2.807  -6.594   1.108  0.00  0.00    +0.041 A 
ATOM     13  C   UNL     1      -4.065  -7.001   0.626  0.00  0.00    +0.027 A 
ATOM     14  H   UNL     1      -2.699  -4.994  -0.066  0.00  0.00    +0.155 HD
ENDBRANCH   1   8
BRANCH   1  15
ATOM     15  C   UNL     1       1.804  -4.985   1.061  0.00  0.00    +0.170 A 
ATOM     16  N   UNL     1       2.090  -3.939   1.797  0.00  0.00    -0.112 NA
ATOM     17  N   UNL     1       2.728  -3.097   1.059  0.00  0.00    -0.023 NA
ATOM     18  N   UNL     1       2.856  -3.579  -0.128  0.00  0.00    -0.044 NA
ATOM     19  N   UNL     1       2.304  -4.744  -0.165  0.00  0.00    -0.225 N 
BRANCH  19  20
ATOM     20  C   UNL     1       2.231  -5.636  -1.325  0.00  0.00    +0.175 C 
BRANCH  20  21
ATOM     21  C   UNL     1       1.007  -5.275  -2.170  0.00  0.00    +0.183 C 
BRANCH  21  22
ATOM     22  O   UNL     1       0.930  -6.152  -3.296  0.00  0.00    -0.381 OA
ATOM     23  C   UNL     1      -0.183  -5.899  -4.154  0.00  0.00    +0.194 C 
ENDBRANCH  21  22
ENDBRANCH  20  21
ENDBRANCH  19  20
ENDBRANCH   1  15
BRANCH   1  24
ATOM     24  N   UNL     1       1.850  -6.922   2.528  0.00  0.00    -0.287 NA
BRANCH  24  25
ATOM     25  C   UNL     1       3.046  -7.541   1.942  0.00  0.00    +0.090 C 
BRANCH  25  26
ATOM     26  C   UNL     1       3.373  -8.833   2.693  0.00  0.00    +0.050 C 
BRANCH  26  27
ATOM     27  C   UNL     1       4.571  -9.493   2.061  0.00  0.00    -0.046 A 
ATOM     28  C   UNL     1       4.399 -10.400   1.032  0.00  0.00    +0.003 A 
ATOM     29  C   UNL     1       5.498 -11.005   0.452  0.00  0.00    +0.000 A 
ATOM     30  C   UNL     1       6.770 -10.702   0.901  0.00  0.00    +0.000 A 
ATOM     31  C   UNL     1       6.943  -9.794   1.928  0.00  0.00    +0.000 A 
ATOM     32  C   UNL     1       5.843  -9.186   2.505  0.00  0.00    +0.003 A 
ENDBRANCH  26  27
ENDBRANCH  25  26
ENDBRANCH  24  25
BRANCH  24  33
ATOM     33  C   UNL     1       2.211  -6.015   3.627  0.00  0.00    +0.120 C 
BRANCH  33  34
ATOM     34  C   UNL     1       2.711  -6.820   4.799  0.00  0.00    -0.033 A 
ATOM     35  C   UNL     1       1.810  -7.392   5.678  0.00  0.00    +0.008 A 
ATOM     36  C   UNL     1       2.268  -8.130   6.753  0.00  0.00    +0.038 A 
ATOM     37  C   UNL     1       3.628  -8.298   6.949  0.00  0.00    +0.123 A 
ATOM     38  C   UNL     1       4.529  -7.725   6.067  0.00  0.00    +0.038 A 
ATOM     39  C   UNL     1       4.069  -6.991   4.990  0.00  0.00    +0.008 A 
ATOM     40  F   UNL     1       4.076  -9.019   8.000  0.00  0.00    -0.205 F 
ENDBRANCH  33  34
ENDBRANCH  24  33
ENDBRANCH   1  24
TORSDOF 11
