REMARK  Name = ZINC39467487
REMARK  7 active torsions:
REMARK  status: ('A' for Active; 'I' for Inactive)
REMARK    1  A    between atoms: C_1  and  C_2
REMARK    2  A    between atoms: C_2  and  O_3
REMARK    3  A    between atoms: O_3  and  C_4
REMARK    4  A    between atoms: P_13  and  C_24
REMARK    5  A    between atoms: C_21  and  O_22
REMARK    6  A    between atoms: O_22  and  C_23
REMARK    7  A    between atoms: C_29  and  O_30
REMARK                            x       y       z     vdW  Elec       q    Type
REMARK                         _______ _______ _______ _____ _____    ______ ____
ROOT
ATOM      1  C   UNL     1       0.777  -1.810  -1.336  0.00  0.00    +0.158 C 
ATOM      2  C   UNL     1       0.263  -2.641  -0.422  0.00  0.00    +0.026 C 
ATOM      3  C   UNL     1       0.387  -4.123  -0.640  0.00  0.00    +0.019 C 
ATOM      4  C   UNL     1      -0.678  -4.895   0.132  0.00  0.00    -0.002 C 
ATOM      5  C   UNL     1      -0.530  -6.396  -0.154  0.00  0.00    -0.020 C 
ATOM      6  C   UNL     1      -1.636  -7.120   0.625  0.00  0.00    +0.157 C 
ATOM      7  O   UNL     1      -1.484  -8.541   0.459  0.00  0.00    -0.316 OA
ATOM      8  P   UNL     1      -1.320  -9.112  -1.056  0.00  0.00    +0.291 P 
ATOM      9  O   UNL     1      -2.643  -9.215  -1.712  0.00  0.00    -0.269 OA
ATOM     10  N   UNL     1      -0.378  -8.005  -1.838  0.00  0.00    -0.288 NA
ATOM     11  N   UNL     1      -0.640  -6.673  -1.586  0.00  0.00    +0.398 N 
ATOM     12  C   UNL     1       0.363  -5.920  -2.359  0.00  0.00    -0.046 C 
ATOM     13  C   UNL     1       0.198  -4.423  -2.133  0.00  0.00    +0.008 C 
ATOM     14  C   UNL     1       1.189  -3.613  -2.922  0.00  0.00    +0.025 C 
ATOM     15  C   UNL     1       1.456  -2.364  -2.528  0.00  0.00    +0.158 C 
ATOM     16  H   UNL     1       0.320  -8.283  -2.452  0.00  0.00    +0.111 HD
ATOM     17  H   UNL     1      -1.566  -6.432  -1.906  0.00  0.00    -0.055 HD
ENDROOT
BRANCH   8  18
ATOM     18  C   UNL     1      -0.504 -10.732  -1.032  0.00  0.00    +0.091 A 
ATOM     19  C   UNL     1       0.873 -10.814  -1.104  0.00  0.00    +0.018 A 
ATOM     20  C   UNL     1       1.495 -12.048  -1.086  0.00  0.00    +0.001 A 
ATOM     21  C   UNL     1       0.742 -13.204  -0.997  0.00  0.00    +0.004 A 
ATOM     22  C   UNL     1      -0.636 -13.128  -0.924  0.00  0.00    +0.046 A 
ATOM     23  C   UNL     1      -1.262 -11.890  -0.937  0.00  0.00    +0.131 A 
BRANCH  23  24
ATOM     24  O   UNL     1      -2.617 -11.812  -0.860  0.00  0.00    -0.506 OA
ATOM     25  H   UNL     1      -3.061 -11.829  -1.719  0.00  0.00    +0.292 HD
ENDBRANCH  23  24
ENDBRANCH   8  18
BRANCH  15  26
ATOM     26  O   UNL     1       2.351  -1.609  -3.217  0.00  0.00    -0.492 OA
ATOM     27  C   UNL     1       2.966  -2.213  -4.357  0.00  0.00    +0.277 C 
ENDBRANCH  15  26
BRANCH   1  28
ATOM     28  O   UNL     1       0.671  -0.465  -1.174  0.00  0.00    -0.489 OA
BRANCH  28  30
ATOM     29  C   UNL     1      -0.019   1.526   0.010  0.00  0.00    +0.048 C 
ATOM     30  C   UNL     1       0.002  -0.004   0.002  0.00  0.00    +0.226 C 
ENDBRANCH  28  30
ENDBRANCH   1  28
TORSDOF 5
