REMARK  Name = ZINC49645895
REMARK  6 active torsions:
REMARK  status: ('A' for Active; 'I' for Inactive)
REMARK    1  A    between atoms: C_1  and  C_2
REMARK    2  A    between atoms: C_2  and  C_4
REMARK    3  A    between atoms: C_2  and  N_11
REMARK    4  A    between atoms: C_4  and  N_5
REMARK    5  A    between atoms: N_11  and  S_12
REMARK    6  A    between atoms: S_12  and  C_15
REMARK                            x       y       z     vdW  Elec       q    Type
REMARK                         _______ _______ _______ _____ _____    ______ ____
ROOT
ATOM      1  N   UNL     1      -1.619  -0.408  -0.137  0.00  0.00    -0.193 NA
ATOM      2  H   UNL     1      -2.200  -0.448   0.640  0.00  0.00    +0.148 HD
ENDROOT
BRANCH   1   3
ATOM      3  S   UNL     1      -2.157  -0.961  -1.602  0.00  0.00    +0.031 S 
ATOM      4  O   UNL     1      -3.532  -1.256  -1.396  0.00  0.00    -0.158 OA
ATOM      5  O   UNL     1      -1.762   0.037  -2.533  0.00  0.00    -0.158 OA
BRANCH   3   6
ATOM      6  C   UNL     1      -1.226  -2.491  -1.893  0.00  0.00    +0.131 C 
ATOM      7  C   UNL     1       0.274  -2.184  -1.895  0.00  0.00    +0.024 C 
ATOM      8  C   UNL     1       1.047  -3.466  -2.219  0.00  0.00    -0.017 C 
ATOM      9  C   UNL     1       0.566  -4.019  -3.562  0.00  0.00    -0.082 C 
ATOM     10  N   UNL     1      -0.870  -4.317  -3.487  0.00  0.00    +0.380 N 
ATOM     11  C   UNL     1      -1.624  -3.081  -3.248  0.00  0.00    -0.055 C 
ATOM     12  H   UNL     1      -1.172  -4.731  -4.356  0.00  0.00    -0.086 HD
ATOM     13  H   UNL     1      -1.039  -4.964  -2.731  0.00  0.00    -0.086 HD
ENDBRANCH   3   6
ENDBRANCH   1   3
BRANCH   1  15
ATOM     14  C   UNL     1      -0.317   1.662  -0.179  0.00  0.00    +0.024 C 
ATOM     15  C   UNL     1      -0.267   0.141  -0.012  0.00  0.00    +0.057 C 
BRANCH  15  16
ATOM     16  C   UNL     1       0.298  -0.202   1.367  0.00  0.00    -0.059 C 
BRANCH  16  17
ATOM     17  N   UNL     1       0.376  -1.661   1.515  0.00  0.00    +0.381 N 
ATOM     18  C   UNL     1      -0.981  -2.220   1.558  0.00  0.00    -0.079 C 
ATOM     19  C   UNL     1      -0.906  -3.747   1.631  0.00  0.00    -0.019 C 
ATOM     20  C   UNL     1      -0.144  -4.155   2.894  0.00  0.00    -0.004 C 
ATOM     21  C   UNL     1       1.243  -3.507   2.875  0.00  0.00    -0.019 C 
ATOM     22  C   UNL     1       1.088  -1.989   2.756  0.00  0.00    -0.079 C 
ATOM     23  H   UNL     1       0.873  -2.052   0.730  0.00  0.00    -0.082 HD
ENDBRANCH  16  17
ENDBRANCH  15  16
ENDBRANCH   1  15
TORSDOF 5
