REMARK  Name = ZINC60411421
REMARK  7 active torsions:
REMARK  status: ('A' for Active; 'I' for Inactive)
REMARK    1  A    between atoms: C_1  and  C_2
REMARK    2  A    between atoms: C_2  and  C_3
REMARK    3  A    between atoms: C_2  and  O_15
REMARK    4  A    between atoms: N_5  and  N_6
REMARK    5  A    between atoms: N_9  and  C_10
REMARK    6  A    between atoms: C_10  and  C_11
REMARK    7  A    between atoms: O_15  and  C_16
REMARK                            x       y       z     vdW  Elec       q    Type
REMARK                         _______ _______ _______ _____ _____    ______ ____
ROOT
ATOM      1  C   UNL     1       0.861  -0.295   1.210  0.00  0.00    +0.270 C 
ATOM      2  O   UNL     1       1.977  -0.747   1.067  0.00  0.00    -0.270 OA
ATOM      3  N   UNL     1       0.389  -0.045   2.448  0.00  0.00    -0.230 N 
ATOM      4  H   UNL     1      -0.504   0.316   2.563  0.00  0.00    +0.173 HD
ENDROOT
BRANCH   3   5
ATOM      5  N   UNL     1       1.188  -0.308   3.568  0.00  0.00    -0.218 N 
ATOM      6  C   UNL     1       0.716  -0.058   4.806  0.00  0.00    +0.316 C 
ATOM      7  O   UNL     1       1.409  -0.286   5.779  0.00  0.00    -0.251 OA
ATOM      8  N   UNL     1      -0.525   0.444   4.965  0.00  0.00    -0.290 N 
ATOM      9  H   UNL     1       2.080  -0.669   3.454  0.00  0.00    +0.174 HD
ATOM     10  H   UNL     1      -1.078   0.626   4.189  0.00  0.00    +0.151 HD
BRANCH   8  11
ATOM     11  C   UNL     1      -1.038   0.716   6.310  0.00  0.00    +0.219 C 
BRANCH  11  12
ATOM     12  C   UNL     1      -2.458   1.277   6.211  0.00  0.00    +0.405 C 
ATOM     13  F   UNL     1      -3.285   0.344   5.576  0.00  0.00    -0.169 F 
ATOM     14  F   UNL     1      -2.948   1.536   7.495  0.00  0.00    -0.169 F 
ATOM     15  F   UNL     1      -2.440   2.464   5.471  0.00  0.00    -0.169 F 
ENDBRANCH  11  12
ENDBRANCH   8  11
ENDBRANCH   3   5
BRANCH   1  17
ATOM     16  C   UNL     1      -0.253   1.492  -0.099  0.00  0.00    +0.062 C 
ATOM     17  C   UNL     1       0.001  -0.013   0.005  0.00  0.00    +0.257 C 
BRANCH  17  18
ATOM     18  O   UNL     1       0.671  -0.465  -1.174  0.00  0.00    -0.478 OA
BRANCH  18  19
ATOM     19  C   UNL     1      -0.107  -0.775  -2.245  0.00  0.00    +0.141 A 
ATOM     20  C   UNL     1      -1.473  -0.541  -2.202  0.00  0.00    +0.047 A 
ATOM     21  C   UNL     1      -2.262  -0.856  -3.291  0.00  0.00    +0.005 A 
ATOM     22  C   UNL     1      -1.692  -1.405  -4.425  0.00  0.00    +0.022 A 
ATOM     23  C   UNL     1      -0.329  -1.641  -4.471  0.00  0.00    +0.063 A 
ATOM     24  C   UNL     1       0.466  -1.321  -3.385  0.00  0.00    +0.101 A 
ATOM     25 CL   UNL     1       2.177  -1.609  -3.445  0.00  0.00    -0.078 Cl
ATOM     26 CL   UNL     1       0.384  -2.331  -5.895  0.00  0.00    -0.082 Cl
ENDBRANCH  18  19
ENDBRANCH  17  18
ENDBRANCH   1  17
TORSDOF 6
