REMARK  Name = ZINC04572511
REMARK  6 active torsions:
REMARK  status: ('A' for Active; 'I' for Inactive)
REMARK    1  A    between atoms: C_1  and  C_2
REMARK    2  A    between atoms: C_2  and  O_3
REMARK    3  A    between atoms: O_3  and  C_4
REMARK    4  A    between atoms: C_12  and  C_14
REMARK    5  A    between atoms: N_21  and  C_22
REMARK    6  A    between atoms: C_22  and  C_23
REMARK                            x       y       z     vdW  Elec       q    Type
REMARK                         _______ _______ _______ _____ _____    ______ ____
ROOT
ATOM      1  C   UNL     1      -4.500   5.006  -1.221  0.00  0.00    +0.106 A 
ATOM      2  C   UNL     1      -5.671   5.701  -1.232  0.00  0.00    +0.041 A 
ATOM      3  C   UNL     1      -5.366   7.085  -1.382  0.00  0.00    +0.008 A 
ATOM      4  C   UNL     1      -6.051   8.369  -1.474  0.00  0.00    +0.017 A 
ATOM      5  C   UNL     1      -5.325   9.486  -1.619  0.00  0.00    +0.048 A 
ATOM      6  S   UNL     1      -3.647   8.885  -1.643  0.00  0.00    -0.079 S 
ATOM      7  C   UNL     1      -3.971   7.151  -1.457  0.00  0.00    +0.088 A 
ATOM      8  N   UNL     1      -3.454   5.903  -1.355  0.00  0.00    -0.328 N 
ENDROOT
BRANCH   1  17
ATOM      9  C   UNL     1      -7.681   0.370  -3.708  0.00  0.00    +0.403 C 
ATOM     10  O   UNL     1      -7.588  -0.833  -3.560  0.00  0.00    -0.226 OA
ATOM     11  N   UNL     1      -6.681   1.178  -3.303  0.00  0.00    -0.264 N 
ATOM     12  C   UNL     1      -6.777   2.634  -3.481  0.00  0.00    +0.130 C 
ATOM     13  C   UNL     1      -6.577   3.305  -2.112  0.00  0.00    +0.127 C 
ATOM     14  N   UNL     1      -5.368   2.746  -1.489  0.00  0.00    -0.293 N 
ATOM     15  C   UNL     1      -5.270   1.290  -1.316  0.00  0.00    +0.127 C 
ATOM     16  C   UNL     1      -5.473   0.619  -2.680  0.00  0.00    +0.130 C 
ATOM     17  C   UNL     1      -4.369   3.554  -1.085  0.00  0.00    +0.263 C 
ATOM     18  O   UNL     1      -3.356   3.077  -0.606  0.00  0.00    -0.268 OA
BRANCH   9  19
ATOM     19  O   UNL     1      -8.785   0.895  -4.272  0.00  0.00    -0.451 OA
BRANCH  19  21
ATOM     20  C   UNL     1     -10.990   0.741  -5.294  0.00  0.00    +0.048 C 
ATOM     21  C   UNL     1      -9.823  -0.034  -4.679  0.00  0.00    +0.230 C 
ENDBRANCH  19  21
ENDBRANCH   9  19
ENDBRANCH   1  17
BRANCH   8  22
ATOM     22  C   UNL     1      -2.030   5.561  -1.384  0.00  0.00    +0.154 C 
BRANCH  22  23
ATOM     23  C   UNL     1      -1.568   5.423  -2.836  0.00  0.00    +0.138 C 
ATOM     24  C   UNL     1      -0.055   5.196  -2.871  0.00  0.00    +0.033 C 
ATOM     25  C   UNL     1       0.391   4.998  -4.324  0.00  0.00    +0.005 C 
ATOM     26  C   UNL     1      -0.387   3.826  -4.930  0.00  0.00    +0.028 C 
ATOM     27  C   UNL     1      -1.888   4.106  -4.815  0.00  0.00    +0.160 C 
ATOM     28  O   UNL     1      -2.230   4.310  -3.443  0.00  0.00    -0.375 OA
ENDBRANCH  22  23
ENDBRANCH   8  22
TORSDOF 5
