REMARK  Name = ZINC36309290
REMARK  14 active torsions:
REMARK  status: ('A' for Active; 'I' for Inactive)
REMARK    1  A    between atoms: C_2  and  C_3
REMARK    2  A    between atoms: C_3  and  N_4
REMARK    3  A    between atoms: N_4  and  C_5
REMARK    4  A    between atoms: N_4  and  C_14
REMARK    5  A    between atoms: C_5  and  C_6
REMARK    6  A    between atoms: C_6  and  C_8
REMARK    7  A    between atoms: C_6  and  O_13
REMARK    8  A    between atoms: C_8  and  O_9
REMARK    9  A    between atoms: O_9  and  C_10
REMARK   10  A    between atoms: C_10  and  C_11
REMARK   11  A    between atoms: C_14  and  C_15
REMARK   12  A    between atoms: C_25  and  C_27
REMARK   13  A    between atoms: C_27  and  O_28
REMARK   14  A    between atoms: O_28  and  C_29
REMARK                            x       y       z     vdW  Elec       q    Type
REMARK                         _______ _______ _______ _____ _____    ______ ____
ROOT
ATOM      1  C   UNL     1      -3.701  -1.072  -1.623  0.00  0.00    +0.200 C 
ATOM      2  O   UNL     1      -3.329   0.082  -1.607  0.00  0.00    -0.278 OA
ATOM      3  N   UNL     1      -5.001  -1.357  -1.840  0.00  0.00    -0.292 N 
ATOM      4  C   UNL     1      -5.465  -2.753  -1.856  0.00  0.00    +0.113 C 
ATOM      5  C   UNL     1      -6.426  -2.955  -0.675  0.00  0.00    +0.061 C 
ATOM      6  C   UNL     1      -7.342  -1.777  -0.596  0.00  0.00    -0.004 A 
ATOM      7  C   UNL     1      -7.191  -0.560  -1.185  0.00  0.00    -0.014 A 
ATOM      8  C   UNL     1      -8.193   0.380  -0.945  0.00  0.00    +0.013 A 
ATOM      9  C   UNL     1      -9.249   0.058  -0.164  0.00  0.00    +0.046 A 
ATOM     10  S   UNL     1      -8.875  -1.630   0.284  0.00  0.00    -0.101 S 
ATOM     11  C   UNL     1      -5.974  -0.279  -2.057  0.00  0.00    +0.144 C 
ENDROOT
BRANCH   1  12
ATOM     12  C   UNL     1      -2.712  -2.186  -1.402  0.00  0.00    +0.019 C 
BRANCH  12  13
ATOM     13  N   UNL     1      -1.374  -1.618  -1.190  0.00  0.00    +0.389 N 
ATOM     14  H   UNL     1      -1.137  -1.018  -1.966  0.00  0.00    -0.081 HD
BRANCH  13  15
ATOM     15  C   UNL     1      -1.364  -0.837   0.054  0.00  0.00    -0.051 C 
BRANCH  15  17
ATOM     16  C   UNL     1       0.003   1.164   0.352  0.00  0.00    +0.002 C 
ATOM     17  C   UNL     1      -0.037  -0.136   0.197  0.00  0.00    -0.053 C 
ENDBRANCH  15  17
ENDBRANCH  13  15
BRANCH  13  18
ATOM     18  C   UNL     1      -0.390  -2.705  -1.094  0.00  0.00    -0.044 C 
BRANCH  18  19
ATOM     19  C   UNL     1      -0.294  -3.427  -2.439  0.00  0.00    +0.124 C 
BRANCH  19  20
ATOM     20  O   UNL     1       0.122  -2.503  -3.447  0.00  0.00    -0.391 OA
ATOM     21  H   UNL     1       1.015  -2.155  -3.318  0.00  0.00    +0.210 HD
ENDBRANCH  19  20
BRANCH  19  22
ATOM     22  C   UNL     1       0.726  -4.562  -2.337  0.00  0.00    +0.189 C 
BRANCH  22  23
ATOM     23  O   UNL     1       0.732  -5.309  -3.555  0.00  0.00    -0.373 OA
BRANCH  23  24
ATOM     24  C   UNL     1       1.655  -6.399  -3.565  0.00  0.00    +0.186 C 
BRANCH  24  25
ATOM     25  C   UNL     1       1.577  -7.113  -4.890  0.00  0.00    -0.007 C 
ATOM     26  C   UNL     1       2.676  -7.454  -5.516  0.00  0.00    +0.006 C 
ENDBRANCH  24  25
ENDBRANCH  23  24
ENDBRANCH  22  23
ENDBRANCH  19  22
ENDBRANCH  18  19
ENDBRANCH  13  18
ENDBRANCH  12  13
ENDBRANCH   1  12
BRANCH  11  27
ATOM     27  C   UNL     1      -6.393  -0.247  -3.528  0.00  0.00    +0.256 C 
BRANCH  27  28
ATOM     28  O   UNL     1      -7.090  -1.452  -3.851  0.00  0.00    -0.490 OA
BRANCH  28  29
ATOM     29  C   UNL     1      -7.534  -1.584  -5.129  0.00  0.00    +0.121 A 
ATOM     30  C   UNL     1      -7.297  -0.578  -6.054  0.00  0.00    +0.047 A 
ATOM     31  C   UNL     1      -7.749  -0.715  -7.353  0.00  0.00    +0.023 A 
ATOM     32  C   UNL     1      -8.437  -1.854  -7.730  0.00  0.00    +0.041 A 
ATOM     33  C   UNL     1      -8.675  -2.859  -6.809  0.00  0.00    +0.023 A 
ATOM     34  C   UNL     1      -8.219  -2.729  -5.511  0.00  0.00    +0.047 A 
ATOM     35 CL   UNL     1      -9.004  -2.023  -9.362  0.00  0.00    -0.084 Cl
ENDBRANCH  28  29
ENDBRANCH  27  28
ENDBRANCH  11  27
TORSDOF 14
