REMARK  Name = ZINC25514630
REMARK  8 active torsions:
REMARK  status: ('A' for Active; 'I' for Inactive)
REMARK    1  A    between atoms: C_1  and  C_2
REMARK    2  A    between atoms: C_2  and  O_3
REMARK    3  A    between atoms: O_3  and  C_4
REMARK    4  A    between atoms: C_4  and  C_6
REMARK    5  A    between atoms: C_6  and  C_8
REMARK    6  A    between atoms: C_6  and  N_15
REMARK    7  A    between atoms: C_21  and  C_23
REMARK    8  A    between atoms: C_29  and  C_31
REMARK                            x       y       z     vdW  Elec       q    Type
REMARK                         _______ _______ _______ _____ _____    ______ ____
ROOT
ATOM      1  N   UNL     1       2.321   5.104  -0.882  0.00  0.00    +0.393 N 
ATOM      2  C   UNL     1       1.910   4.699  -2.233  0.00  0.00    -0.058 C 
ATOM      3  C   UNL     1       1.611   5.948  -3.068  0.00  0.00    +0.089 C 
ATOM      4  N   UNL     1       2.781   6.838  -3.014  0.00  0.00    -0.303 N 
ATOM      5  C   UNL     1       3.336   7.178  -1.695  0.00  0.00    +0.089 C 
ATOM      6  C   UNL     1       3.567   5.880  -0.914  0.00  0.00    -0.058 C 
ATOM      7  C   UNL     1       3.330   7.328  -4.143  0.00  0.00    +0.236 C 
ATOM      8  O   UNL     1       4.295   8.060  -4.080  0.00  0.00    -0.274 OA
ATOM      9  H   UNL     1       1.533   5.753  -0.472  0.00  0.00    -0.080 HD
ENDROOT
BRANCH   7  10
ATOM     10  C   UNL     1       2.745   6.965  -5.484  0.00  0.00    +0.162 C 
ATOM     11  C   UNL     1       1.501   7.833  -5.765  0.00  0.00    +0.033 C 
ATOM     12  C   UNL     1       1.621   8.131  -7.283  0.00  0.00    +0.021 C 
ATOM     13  C   UNL     1       3.155   8.258  -7.455  0.00  0.00    +0.109 C 
ATOM     14  N   UNL     1       3.722   7.245  -6.547  0.00  0.00    -0.283 N 
ATOM     15  C   UNL     1       4.935   6.670  -6.670  0.00  0.00    +0.283 C 
ATOM     16  O   UNL     1       5.301   5.842  -5.857  0.00  0.00    -0.267 OA
BRANCH  15  17
ATOM     17  C   UNL     1       5.813   7.043  -7.784  0.00  0.00    +0.189 A 
ATOM     18  C   UNL     1       7.061   6.545  -8.023  0.00  0.00    +0.054 A 
ATOM     19  C   UNL     1       7.532   7.174  -9.186  0.00  0.00    +0.042 A 
ATOM     20  C   UNL     1       6.565   8.024  -9.597  0.00  0.00    +0.196 A 
ATOM     21  O   UNL     1       5.530   7.942  -8.749  0.00  0.00    -0.458 OA
ENDBRANCH  15  17
ENDBRANCH   7  10
BRANCH   1  22
ATOM     22  C   UNL     1       2.451   3.936   0.001  0.00  0.00    +0.073 C 
BRANCH  22  23
ATOM     23  C   UNL     1       1.156   3.166   0.009  0.00  0.00    -0.050 A 
ATOM     24  C   UNL     1       1.175   1.783   0.000  0.00  0.00    +0.004 A 
ATOM     25  C   UNL     1      -0.013   1.076   0.008  0.00  0.00    +0.020 A 
ATOM     26  C   UNL     1      -1.220   1.751   0.017  0.00  0.00    +0.041 A 
ATOM     27  C   UNL     1      -1.238   3.135   0.030  0.00  0.00    +0.020 A 
ATOM     28  C   UNL     1      -0.050   3.841   0.023  0.00  0.00    +0.004 A 
ATOM     29 CL   UNL     1      -2.712   0.864   0.019  0.00  0.00    -0.084 Cl
ENDBRANCH  22  23
BRANCH  22  30
ATOM     30  C   UNL     1       2.770   4.397   1.400  0.00  0.00    +0.298 C 
ATOM     31  O   UNL     1       2.877   5.577   1.637  0.00  0.00    -0.252 OA
BRANCH  30  32
ATOM     32  O   UNL     1       2.934   3.497   2.382  0.00  0.00    -0.466 OA
BRANCH  32  34
ATOM     33  C   UNL     1       3.390   2.847   4.684  0.00  0.00    +0.048 C 
ATOM     34  C   UNL     1       3.239   4.013   3.704  0.00  0.00    +0.228 C 
ENDBRANCH  32  34
ENDBRANCH  30  32
ENDBRANCH  22  30
ENDBRANCH   1  22
TORSDOF 7
