REMARK  Name = ZINC43218930
REMARK  8 active torsions:
REMARK  status: ('A' for Active; 'I' for Inactive)
REMARK    1  A    between atoms: C_1  and  C_2
REMARK    2  A    between atoms: C_2  and  C_3
REMARK    3  A    between atoms: C_3  and  C_4
REMARK    4  A    between atoms: C_4  and  N_5
REMARK    5  A    between atoms: C_10  and  C_27
REMARK    6  A    between atoms: C_13  and  C_18
REMARK    7  A    between atoms: C_13  and  C_24
REMARK    8  A    between atoms: C_32  and  O_33
REMARK                            x       y       z     vdW  Elec       q    Type
REMARK                         _______ _______ _______ _____ _____    ______ ____
ROOT
ATOM      1  N   UNL     1       0.976  -2.904  -3.174  0.00  0.00    -0.242 N 
ATOM      2  C   UNL     1       0.635  -3.264  -4.453  0.00  0.00    +0.224 C 
ATOM      3  O   UNL     1      -0.435  -3.116  -5.005  0.00  0.00    -0.275 OA
ATOM      4  C   UNL     1       1.834  -3.859  -4.997  0.00  0.00    +0.077 C 
ATOM      5  C   UNL     1       2.434  -4.203  -6.293  0.00  0.00    -0.023 C 
ATOM      6  N   UNL     1       3.895  -4.367  -5.993  0.00  0.00    +0.398 N 
ATOM      7  C   UNL     1       4.106  -3.990  -4.557  0.00  0.00    +0.074 C 
ATOM      8  C   UNL     1       2.961  -2.983  -4.317  0.00  0.00    +0.090 C 
ATOM      9  C   UNL     1       2.324  -2.942  -2.955  0.00  0.00    +0.225 C 
ATOM     10  O   UNL     1       2.891  -2.943  -1.884  0.00  0.00    -0.275 OA
ATOM     11  H   UNL     1       4.169  -5.328  -6.138  0.00  0.00    -0.083 HD
ATOM     12  H   UNL     1       4.437  -3.761  -6.589  0.00  0.00    -0.083 HD
ENDROOT
BRANCH   5  13
ATOM     13  C   UNL     1       2.219  -3.090  -7.285  0.00  0.00    -0.018 A 
ATOM     14  C   UNL     1       3.166  -2.092  -7.421  0.00  0.00    +0.020 A 
ATOM     15  C   UNL     1       2.969  -1.070  -8.332  0.00  0.00    +0.018 A 
ATOM     16  C   UNL     1       1.825  -1.044  -9.109  0.00  0.00    +0.019 A 
ATOM     17  C   UNL     1       0.876  -2.040  -8.977  0.00  0.00    +0.047 A 
ATOM     18  C   UNL     1       1.074  -3.069  -8.068  0.00  0.00    +0.119 A 
ATOM     19 BR   UNL     1       4.266   0.294  -8.515  0.00  0.00    -0.050 Br
BRANCH  18  20
ATOM     20  O   UNL     1       0.144  -4.052  -7.940  0.00  0.00    -0.507 OA
ATOM     21  H   UNL     1      -0.539  -3.864  -7.282  0.00  0.00    +0.292 HD
ENDBRANCH  18  20
ENDBRANCH   5  13
BRANCH   7  22
ATOM     22  C   UNL     1       3.983  -5.198  -3.664  0.00  0.00    -0.047 A 
ATOM     23  C   UNL     1       3.462  -6.377  -4.164  0.00  0.00    +0.003 A 
ATOM     24  C   UNL     1       3.350  -7.485  -3.345  0.00  0.00    +0.000 A 
ATOM     25  C   UNL     1       3.758  -7.414  -2.026  0.00  0.00    +0.000 A 
ATOM     26  C   UNL     1       4.279  -6.235  -1.527  0.00  0.00    +0.000 A 
ATOM     27  C   UNL     1       4.396  -5.129  -2.347  0.00  0.00    +0.003 A 
ENDBRANCH   7  22
BRANCH   7  28
ATOM     28  C   UNL     1       5.443  -3.321  -4.371  0.00  0.00    +0.350 C 
ATOM     29  O   UNL     1       6.191  -3.180  -5.323  0.00  0.00    -0.248 OA
ATOM     30  O   UNL     1       5.776  -2.920  -3.269  0.00  0.00    -0.248 OA
ENDBRANCH   7  28
BRANCH   1  31
ATOM     31  C   UNL     1      -0.000  -2.514  -2.153  0.00  0.00    +0.116 C 
BRANCH  31  32
ATOM     32  C   UNL     1      -0.233  -1.003  -2.220  0.00  0.00    +0.019 C 
BRANCH  32  34
ATOM     33  C   UNL     1      -1.485   0.914  -1.222  0.00  0.00    +0.004 C 
ATOM     34  C   UNL     1      -1.252  -0.596  -1.154  0.00  0.00    -0.002 C 
ENDBRANCH  32  34
ENDBRANCH  31  32
ENDBRANCH   1  31
TORSDOF 7
