REMARK  Name = ZINC59204636
REMARK  8 active torsions:
REMARK  status: ('A' for Active; 'I' for Inactive)
REMARK    1  A    between atoms: C_1  and  C_2
REMARK    2  A    between atoms: C_2  and  O_3
REMARK    3  A    between atoms: O_3  and  C_4
REMARK    4  A    between atoms: C_4  and  C_6
REMARK    5  A    between atoms: N_11  and  C_13
REMARK    6  A    between atoms: C_13  and  N_14
REMARK    7  A    between atoms: N_24  and  C_29
REMARK    8  A    between atoms: C_32  and  C_36
REMARK                            x       y       z     vdW  Elec       q    Type
REMARK                         _______ _______ _______ _____ _____    ______ ____
ROOT
ATOM      1  N   UNL     1       1.391  -6.260  -5.892  0.00  0.00    -0.255 N 
ATOM      2  C   UNL     1       0.620  -6.662  -6.986  0.00  0.00    +0.044 A 
ATOM      3  C   UNL     1      -0.753  -6.593  -7.206  0.00  0.00    +0.024 A 
ATOM      4  C   UNL     1      -1.293  -7.064  -8.385  0.00  0.00    +0.002 A 
ATOM      5  C   UNL     1      -0.475  -7.608  -9.358  0.00  0.00    +0.000 A 
ATOM      6  C   UNL     1       0.890  -7.679  -9.149  0.00  0.00    +0.009 A 
ATOM      7  C   UNL     1       1.435  -7.210  -7.975  0.00  0.00    +0.017 A 
ATOM      8  C   UNL     1       2.829  -7.131  -7.435  0.00  0.00    +0.193 C 
ATOM      9  C   UNL     1       2.705  -6.498  -6.082  0.00  0.00    +0.260 C 
ATOM     10  O   UNL     1       3.607  -6.252  -5.309  0.00  0.00    -0.271 OA
ATOM     11  N   UNL     1       3.521  -8.415  -7.418  0.00  0.00    -0.243 N 
ATOM     12  C   UNL     1       4.770  -8.478  -7.876  0.00  0.00    +0.231 C 
ATOM     13  O   UNL     1       5.383  -9.524  -7.892  0.00  0.00    -0.274 OA
ATOM     14  C   UNL     1       5.399  -7.186  -8.378  0.00  0.00    +0.168 C 
ATOM     15  S   UNL     1       3.899  -6.118  -8.528  0.00  0.00    -0.111 S 
ENDROOT
BRANCH  11  16
ATOM     16  C   UNL     1       2.883  -9.561  -6.929  0.00  0.00    +0.040 A 
ATOM     17  C   UNL     1       2.873  -9.823  -5.565  0.00  0.00    +0.024 A 
ATOM     18  C   UNL     1       2.243 -10.954  -5.085  0.00  0.00    +0.006 A 
ATOM     19  C   UNL     1       1.624 -11.827  -5.960  0.00  0.00    -0.032 A 
ATOM     20  C   UNL     1       1.633 -11.570  -7.320  0.00  0.00    +0.046 A 
ATOM     21  C   UNL     1       2.256 -10.435  -7.806  0.00  0.00    +0.043 A 
ATOM     22 CL   UNL     1       0.855 -12.669  -8.416  0.00  0.00    -0.083 Cl
ATOM     23  C   UNL     1       0.938 -13.061  -5.433  0.00  0.00    +0.045 C 
ENDBRANCH  11  16
BRANCH   1  24
ATOM     24  C   UNL     1       0.837  -5.645  -4.683  0.00  0.00    +0.200 C 
BRANCH  24  29
ATOM     25  C   UNL     1      -0.351  -2.091  -4.307  0.00  0.00    +0.112 C 
ATOM     26  C   UNL     1       1.000  -1.420  -4.044  0.00  0.00    +0.017 C 
ATOM     27  C   UNL     1       2.072  -2.095  -4.905  0.00  0.00    +0.016 C 
ATOM     28  C   UNL     1       2.113  -3.590  -4.582  0.00  0.00    +0.086 C 
ATOM     29  N   UNL     1       0.798  -4.186  -4.850  0.00  0.00    -0.286 NA
ATOM     30  C   UNL     1      -0.240  -3.587  -4.002  0.00  0.00    +0.100 C 
BRANCH  25  31
ATOM     31  C   UNL     1      -1.400  -1.473  -3.420  0.00  0.00    +0.311 C 
ATOM     32  O   UNL     1      -2.000  -2.158  -2.626  0.00  0.00    -0.250 OA
BRANCH  31  33
ATOM     33  O   UNL     1      -1.669  -0.161  -3.512  0.00  0.00    -0.465 OA
BRANCH  33  35
ATOM     34  C   UNL     1      -2.841   1.858  -2.889  0.00  0.00    +0.048 C 
ATOM     35  C   UNL     1      -2.676   0.358  -2.640  0.00  0.00    +0.229 C 
ENDBRANCH  33  35
ENDBRANCH  31  33
ENDBRANCH  25  31
ENDBRANCH  24  29
ENDBRANCH   1  24
TORSDOF 6
