REMARK  Name = ZINC63280026
REMARK  4 active torsions:
REMARK  status: ('A' for Active; 'I' for Inactive)
REMARK    1  A    between atoms: C_6  and  C_11
REMARK    2  A    between atoms: N_13  and  C_14
REMARK    3  A    between atoms: C_14  and  C_15
REMARK    4  A    between atoms: N_17  and  C_18
REMARK                            x       y       z     vdW  Elec       q    Type
REMARK                         _______ _______ _______ _____ _____    ______ ____
ROOT
ATOM      1  C   UNL     1       3.862  -4.756   2.573  0.00  0.00    +0.200 C 
ENDROOT
BRANCH   1   4
ATOM      2  C   UNL     1       3.656  -2.764   1.185  0.00  0.00    +0.240 C 
ATOM      3  O   UNL     1       4.332  -2.165   1.995  0.00  0.00    -0.273 OA
ATOM      4  N   UNL     1       3.363  -4.065   1.381  0.00  0.00    -0.305 N 
ATOM      5  H   UNL     1       2.823  -4.543   0.734  0.00  0.00    +0.149 HD
BRANCH   2  11
ATOM      6  C   UNL     1      -0.016   1.348   0.009  0.00  0.00    +0.001 A 
ATOM      7  C   UNL     1       1.166   2.101   0.002  0.00  0.00    +0.002 A 
ATOM      8  C   UNL     1       2.391   1.535  -0.013  0.00  0.00    +0.026 A 
ATOM      9  C   UNL     1       2.529   0.120  -0.022  0.00  0.00    +0.043 A 
ATOM     10  N   UNL     1       3.587  -0.654  -0.037  0.00  0.00    -0.370 N 
ATOM     11  C   UNL     1       3.143  -2.053  -0.041  0.00  0.00    +0.190 C 
ATOM     12  C   UNL     1       1.631  -2.008  -0.025  0.00  0.00    +0.016 C 
ATOM     13  C   UNL     1       1.295  -0.698  -0.014  0.00  0.00    -0.004 A 
ATOM     14  C   UNL     1       0.002  -0.004   0.002  0.00  0.00    +0.010 A 
ATOM     15  H   UNL     1       4.509  -0.353  -0.045  0.00  0.00    +0.161 HD
ENDBRANCH   2  11
ENDBRANCH   1   4
BRANCH   1  16
ATOM     16  C   UNL     1       3.398  -6.189   2.553  0.00  0.00    +0.232 C 
ATOM     17  O   UNL     1       2.717  -6.594   1.634  0.00  0.00    -0.274 OA
ATOM     18  N   UNL     1       3.738  -7.022   3.557  0.00  0.00    -0.287 N 
ATOM     19  H   UNL     1       4.282  -6.699   4.292  0.00  0.00    +0.151 HD
BRANCH  18  20
ATOM     20  C   UNL     1       3.287  -8.416   3.538  0.00  0.00    +0.224 C 
ATOM     21  N   UNL     1       3.983  -9.211   4.558  0.00  0.00    -0.316 N 
ATOM     22  C   UNL     1       3.210  -9.787   5.565  0.00  0.00    +0.043 A 
ATOM     23  C   UNL     1       3.697 -10.577   6.621  0.00  0.00    +0.024 A 
ATOM     24  C   UNL     1       2.849 -11.102   7.568  0.00  0.00    +0.002 A 
ATOM     25  C   UNL     1       1.487 -10.870   7.514  0.00  0.00    +0.001 A 
ATOM     26  C   UNL     1       0.979 -10.095   6.485  0.00  0.00    +0.016 A 
ATOM     27  C   UNL     1       1.828  -9.571   5.538  0.00  0.00    +0.032 A 
ATOM     28  S   UNL     1       1.545  -8.554   4.105  0.00  0.00    -0.082 S 
ATOM     29  H   UNL     1       4.945  -9.331   4.532  0.00  0.00    +0.149 HD
ENDBRANCH  18  20
ENDBRANCH   1  16
TORSDOF 4
