REMARK  Name = ZINC40138608
REMARK  8 active torsions:
REMARK  status: ('A' for Active; 'I' for Inactive)
REMARK    1  A    between atoms: C_1  and  C_2
REMARK    2  A    between atoms: C_7  and  O_8
REMARK    3  A    between atoms: O_8  and  C_9
REMARK    4  A    between atoms: C_9  and  C_10
REMARK    5  A    between atoms: C_10  and  C_11
REMARK    6  A    between atoms: C_11  and  N_12
REMARK    7  A    between atoms: N_20  and  N_21
REMARK    8  A    between atoms: C_22  and  C_24
REMARK                            x       y       z     vdW  Elec       q    Type
REMARK                         _______ _______ _______ _____ _____    ______ ____
ROOT
ATOM      1  N   UNL     1       0.070   0.146   7.239  0.00  0.00    -0.265 N 
ATOM      2  C   UNL     1       1.219   0.639   7.849  0.00  0.00    +0.046 A 
ATOM      3  C   UNL     1       2.568   0.457   7.562  0.00  0.00    +0.025 A 
ATOM      4  C   UNL     1       3.530   1.070   8.338  0.00  0.00    +0.022 A 
ATOM      5  C   UNL     1       3.168   1.871   9.409  0.00  0.00    +0.042 A 
ATOM      6  C   UNL     1       1.833   2.063   9.709  0.00  0.00    +0.032 A 
ATOM      7  C   UNL     1       0.857   1.450   8.932  0.00  0.00    +0.030 A 
ATOM      8  C   UNL     1      -0.624   1.447   8.980  0.00  0.00    +0.153 C 
ATOM      9  N   UNL     1      -1.396   2.073   9.835  0.00  0.00    -0.174 NA
ATOM     10  C   UNL     1      -1.040   0.589   7.853  0.00  0.00    +0.271 C 
ATOM     11  O   UNL     1      -2.186   0.327   7.537  0.00  0.00    -0.268 OA
ATOM     12 CL   UNL     1       4.393   2.633  10.376  0.00  0.00    -0.084 Cl
ENDROOT
BRANCH   9  13
ATOM     13  N   UNL     1      -2.789   1.960   9.734  0.00  0.00    -0.202 N 
ATOM     14  C   UNL     1      -3.583   2.604  10.612  0.00  0.00    +0.265 C 
ATOM     15  O   UNL     1      -3.091   3.283  11.492  0.00  0.00    -0.268 OA
ATOM     16  H   UNL     1      -3.182   1.418   9.032  0.00  0.00    +0.178 HD
BRANCH  14  17
ATOM     17  C   UNL     1      -5.051   2.484  10.506  0.00  0.00    +0.056 A 
ATOM     18  C   UNL     1      -5.888   3.153  11.409  0.00  0.00    +0.016 A 
ATOM     19  C   UNL     1      -7.256   3.008  11.265  0.00  0.00    +0.020 A 
ATOM     20  C   UNL     1      -7.750   2.215  10.245  0.00  0.00    +0.111 A 
ATOM     21  N   UNL     1      -6.938   1.597   9.408  0.00  0.00    -0.263 NA
ATOM     22  C   UNL     1      -5.629   1.707   9.500  0.00  0.00    +0.123 A 
ENDBRANCH  14  17
ENDBRANCH   9  13
BRANCH   1  23
ATOM     23  C   UNL     1       0.071  -0.738   6.071  0.00  0.00    +0.117 C 
BRANCH  23  24
ATOM     24  C   UNL     1       0.047   0.104   4.793  0.00  0.00    +0.060 C 
BRANCH  24  25
ATOM     25  C   UNL     1       0.048  -0.820   3.574  0.00  0.00    +0.230 C 
BRANCH  25  26
ATOM     26  O   UNL     1       0.025  -0.033   2.381  0.00  0.00    -0.492 OA
BRANCH  26  33
ATOM     27  C   UNL     1      -0.018   1.503   0.010  0.00  0.00    +0.047 C 
ATOM     28  C   UNL     1       0.002  -0.004   0.002  0.00  0.00    -0.009 A 
ATOM     29  C   UNL     1       0.006  -0.689  -1.198  0.00  0.00    +0.007 A 
ATOM     30  C   UNL     1       0.024  -2.071  -1.206  0.00  0.00    +0.000 A 
ATOM     31  C   UNL     1       0.039  -2.772  -0.014  0.00  0.00    +0.004 A 
ATOM     32  C   UNL     1       0.036  -2.092   1.188  0.00  0.00    +0.046 A 
ATOM     33  C   UNL     1       0.023  -0.705   1.199  0.00  0.00    +0.123 A 
ENDBRANCH  26  33
ENDBRANCH  25  26
ENDBRANCH  24  25
ENDBRANCH  23  24
ENDBRANCH   1  23
TORSDOF 7
