REMARK  Name = ZINC44174729
REMARK  9 active torsions:
REMARK  status: ('A' for Active; 'I' for Inactive)
REMARK    1  A    between atoms: C_1  and  C_2
REMARK    2  A    between atoms: C_3  and  C_26
REMARK    3  A    between atoms: C_7  and  N_8
REMARK    4  A    between atoms: N_11  and  C_12
REMARK    5  A    between atoms: C_12  and  C_13
REMARK    6  A    between atoms: C_13  and  C_14
REMARK    7  A    between atoms: C_13  and  C_15
REMARK    8  A    between atoms: C_13  and  N_16
REMARK    9  A    between atoms: N_28  and  C_29
REMARK                            x       y       z     vdW  Elec       q    Type
REMARK                         _______ _______ _______ _____ _____    ______ ____
ROOT
ATOM      1  N   UNL     1      -0.278  -0.865   2.615  0.00  0.00    -0.269 N 
ATOM      2  C   UNL     1       0.054  -1.258   3.861  0.00  0.00    +0.304 C 
ATOM      3  O   UNL     1       0.177  -2.441   4.113  0.00  0.00    -0.253 OA
ATOM      4  N   UNL     1       0.250  -0.339   4.827  0.00  0.00    -0.300 N 
ATOM      5  H   UNL     1      -0.446   0.072   2.431  0.00  0.00    +0.156 HD
ATOM      6  H   UNL     1       0.152   0.605   4.626  0.00  0.00    +0.150 HD
ENDROOT
BRANCH   1  13
ATOM      7  C   UNL     1      -1.811  -0.188   0.318  0.00  0.00    +0.046 C 
ATOM      8  C   UNL     1      -1.118  -1.520   0.451  0.00  0.00    -0.017 A 
ATOM      9  C   UNL     1      -1.212  -2.463  -0.574  0.00  0.00    +0.041 A 
ATOM     10  C   UNL     1      -0.567  -3.694  -0.444  0.00  0.00    +0.013 A 
ATOM     11  C   UNL     1       0.160  -3.975   0.696  0.00  0.00    +0.003 A 
ATOM     12  C   UNL     1       0.253  -3.041   1.710  0.00  0.00    +0.023 A 
ATOM     13  C   UNL     1      -0.380  -1.810   1.588  0.00  0.00    +0.038 A 
BRANCH   9  14
ATOM     14  C   UNL     1      -1.991  -2.159  -1.792  0.00  0.00    +0.244 C 
ATOM     15  O   UNL     1      -2.442  -1.043  -1.963  0.00  0.00    -0.270 OA
ATOM     16  N   UNL     1      -2.203  -3.119  -2.714  0.00  0.00    -0.314 N 
ATOM     17  C   UNL     1      -2.975  -2.818  -3.922  0.00  0.00    +0.128 C 
ATOM     18  H   UNL     1      -1.843  -4.010  -2.578  0.00  0.00    +0.149 HD
ENDBRANCH   9  14
ENDBRANCH   1  13
BRANCH   4  19
ATOM     19  C   UNL     1       0.611  -0.765   6.181  0.00  0.00    +0.093 C 
BRANCH  19  20
ATOM     20  C   UNL     1       0.774   0.464   7.077  0.00  0.00    -0.055 C 
ATOM     21  C   UNL     1       1.151   0.019   8.492  0.00  0.00    -0.008 C 
ATOM     22  C   UNL     1       1.877   1.363   6.515  0.00  0.00    -0.008 C 
BRANCH  20  23
ATOM     23  N   UNL     1      -0.491   1.210   7.120  0.00  0.00    +0.387 N 
ATOM     24  C   UNL     1      -0.387   2.301   8.100  0.00  0.00    -0.073 C 
ATOM     25  C   UNL     1      -1.579   3.241   7.913  0.00  0.00    +0.017 C 
ATOM     26  C   UNL     1      -2.859   2.446   7.907  0.00  0.00    -0.048 A 
ATOM     27  C   UNL     1      -4.058   3.115   8.096  0.00  0.00    +0.004 A 
ATOM     28  C   UNL     1      -5.251   2.421   8.093  0.00  0.00    +0.000 A 
ATOM     29  C   UNL     1      -5.250   1.052   7.902  0.00  0.00    +0.000 A 
ATOM     30  C   UNL     1      -4.056   0.384   7.716  0.00  0.00    +0.002 A 
ATOM     31  C   UNL     1      -2.856   1.080   7.719  0.00  0.00    -0.061 A 
ATOM     32  C   UNL     1      -1.577   0.310   7.521  0.00  0.00    -0.042 C 
ATOM     33  H   UNL     1      -0.689   1.592   6.207  0.00  0.00    -0.080 HD
ENDBRANCH  20  23
ENDBRANCH  19  20
ENDBRANCH   4  19
TORSDOF 5
