REMARK  Name = ZINC38621719
REMARK  10 active torsions:
REMARK  status: ('A' for Active; 'I' for Inactive)
REMARK    1  A    between atoms: C_1  and  C_2
REMARK    2  A    between atoms: C_4  and  C_32
REMARK    3  A    between atoms: C_5  and  C_31
REMARK    4  A    between atoms: C_6  and  S_9
REMARK    5  A    between atoms: C_7  and  C_8
REMARK    6  A    between atoms: S_9  and  N_12
REMARK    7  A    between atoms: N_12  and  C_13
REMARK    8  A    between atoms: C_13  and  C_14
REMARK    9  A    between atoms: C_14  and  C_16
REMARK   10  A    between atoms: C_14  and  N_26
REMARK                            x       y       z     vdW  Elec       q    Type
REMARK                         _______ _______ _______ _____ _____    ______ ____
ROOT
ATOM      1  C   UNL     1       3.490  -2.809   3.999  0.00  0.00    -0.021 C 
ENDROOT
BRANCH   1   2
ATOM      2  C   UNL     1       4.678  -1.883   3.980  0.00  0.00    -0.052 A 
ATOM      3  C   UNL     1       5.582  -1.950   2.964  0.00  0.00    +0.002 A 
ATOM      4  C   UNL     1       6.687  -1.102   2.930  0.00  0.00    +0.001 A 
ATOM      5  C   UNL     1       6.895  -0.182   3.912  0.00  0.00    +0.008 A 
ATOM      6  C   UNL     1       5.984  -0.084   4.977  0.00  0.00    -0.018 A 
ATOM      7  C   UNL     1       4.856  -0.942   5.008  0.00  0.00    -0.016 A 
ATOM      8  C   UNL     1       3.942  -0.839   6.070  0.00  0.00    +0.009 A 
ATOM      9  C   UNL     1       4.147   0.084   7.048  0.00  0.00    +0.001 A 
ATOM     10  C   UNL     1       5.252   0.933   7.014  0.00  0.00    +0.001 A 
ATOM     11  C   UNL     1       6.166   0.853   6.008  0.00  0.00    +0.008 A 
ENDBRANCH   1   2
BRANCH   1  12
ATOM     12  N   UNL     1       3.805  -4.026   3.238  0.00  0.00    +0.385 N 
ATOM     13  C   UNL     1       4.916  -4.764   3.891  0.00  0.00    -0.078 C 
ATOM     14  C   UNL     1       4.747  -6.207   3.353  0.00  0.00    -0.020 C 
ATOM     15  C   UNL     1       3.212  -6.380   3.301  0.00  0.00    -0.020 C 
ATOM     16  C   UNL     1       2.648  -4.947   3.248  0.00  0.00    -0.078 C 
ATOM     17  H   UNL     1       4.053  -3.789   2.289  0.00  0.00    -0.081 HD
ENDBRANCH   1  12
BRANCH   1  18
ATOM     18  C   UNL     1       2.287  -2.108   3.364  0.00  0.00    +0.095 C 
BRANCH  18  19
ATOM     19  N   UNL     1       2.554  -1.872   1.943  0.00  0.00    -0.191 NA
ATOM     20  H   UNL     1       3.454  -1.969   1.596  0.00  0.00    +0.148 HD
BRANCH  19  21
ATOM     21  S   UNL     1       1.318  -1.438   0.929  0.00  0.00    +0.059 S 
ATOM     22  O   UNL     1       0.257  -2.352   1.168  0.00  0.00    -0.153 OA
ATOM     23  O   UNL     1       1.893  -1.257  -0.358  0.00  0.00    -0.153 OA
BRANCH  21  29
ATOM     24  C   UNL     1       1.567   3.783   0.862  0.00  0.00    +0.044 C 
ATOM     25  C   UNL     1       0.906   2.533   1.385  0.00  0.00    -0.045 A 
ATOM     26  C   UNL     1      -0.148   2.628   2.274  0.00  0.00    +0.007 A 
ATOM     27  C   UNL     1      -0.754   1.482   2.753  0.00  0.00    -0.045 A 
ATOM     28  C   UNL     1      -0.306   0.240   2.342  0.00  0.00    -0.021 A 
ATOM     29  C   UNL     1       0.747   0.145   1.452  0.00  0.00    +0.112 A 
ATOM     30  C   UNL     1       1.350   1.292   0.970  0.00  0.00    -0.021 A 
ATOM     31  C   UNL     1       2.495   1.188  -0.005  0.00  0.00    +0.046 C 
ATOM     32  C   UNL     1      -0.966  -1.009   2.865  0.00  0.00    +0.046 C 
ATOM     33  C   UNL     1      -1.902   1.586   3.723  0.00  0.00    +0.044 C 
ENDBRANCH  21  29
ENDBRANCH  19  21
ENDBRANCH  18  19
ENDBRANCH   1  18
TORSDOF 6
