REMARK  Name = ZINC41769054
REMARK  9 active torsions:
REMARK  status: ('A' for Active; 'I' for Inactive)
REMARK    1  A    between atoms: C_1  and  C_2
REMARK    2  A    between atoms: C_2  and  C_4
REMARK    3  A    between atoms: C_2  and  N_14
REMARK    4  A    between atoms: C_8  and  O_10
REMARK    5  A    between atoms: O_10  and  C_11
REMARK    6  A    between atoms: C_11  and  C_12
REMARK    7  A    between atoms: C_11  and  C_13
REMARK    8  A    between atoms: C_15  and  C_17
REMARK    9  A    between atoms: N_19  and  C_20
REMARK                            x       y       z     vdW  Elec       q    Type
REMARK                         _______ _______ _______ _____ _____    ______ ____
ROOT
ATOM      1  N   UNL     1      -0.226  -0.781  -0.067  0.00  0.00    -0.301 N 
ATOM      2  C   UNL     1      -0.646  -0.978   1.198  0.00  0.00    +0.300 C 
ATOM      3  O   UNL     1       0.097  -0.740   2.128  0.00  0.00    -0.265 OA
ATOM      4  H   UNL     1      -0.820  -0.971  -0.810  0.00  0.00    +0.150 HD
ENDROOT
BRANCH   2   5
ATOM      5  C   UNL     1      -2.025  -1.489   1.456  0.00  0.00    +0.303 C 
ATOM      6  O   UNL     1      -2.768  -1.726   0.526  0.00  0.00    -0.265 OA
ATOM      7  N   UNL     1      -2.445  -1.686   2.722  0.00  0.00    -0.277 N 
ATOM      8  H   UNL     1      -1.884  -1.418   3.466  0.00  0.00    +0.155 HD
BRANCH   7   9
ATOM      9  C   UNL     1      -3.686  -2.275   2.961  0.00  0.00    +0.042 A 
ATOM     10  C   UNL     1      -4.257  -3.101   2.016  0.00  0.00    +0.024 A 
ATOM     11  C   UNL     1      -5.495  -3.694   2.245  0.00  0.00    +0.002 A 
ATOM     12  C   UNL     1      -6.176  -3.475   3.404  0.00  0.00    +0.008 A 
ATOM     13  C   UNL     1      -5.628  -2.639   4.393  0.00  0.00    -0.016 A 
ATOM     14  C   UNL     1      -4.366  -2.035   4.174  0.00  0.00    +0.003 A 
ATOM     15  C   UNL     1      -3.818  -1.204   5.164  0.00  0.00    +0.010 A 
ATOM     16  C   UNL     1      -4.503  -0.995   6.323  0.00  0.00    +0.001 A 
ATOM     17  C   UNL     1      -5.742  -1.594   6.541  0.00  0.00    +0.001 A 
ATOM     18  C   UNL     1      -6.309  -2.394   5.598  0.00  0.00    +0.008 A 
ENDBRANCH   7   9
ENDBRANCH   2   5
BRANCH   1  20
ATOM     19  C   UNL     1       1.129   1.248  -0.237  0.00  0.00    +0.033 C 
ATOM     20  C   UNL     1       1.127  -0.280  -0.320  0.00  0.00    +0.101 C 
BRANCH  20  21
ATOM     21  C   UNL     1       1.573  -0.709  -1.694  0.00  0.00    -0.024 A 
ATOM     22  C   UNL     1       0.680  -0.679  -2.751  0.00  0.00    +0.006 A 
ATOM     23  C   UNL     1       1.086  -1.072  -4.012  0.00  0.00    +0.004 A 
ATOM     24  C   UNL     1       2.385  -1.496  -4.221  0.00  0.00    +0.045 A 
ATOM     25  C   UNL     1       3.281  -1.526  -3.163  0.00  0.00    +0.121 A 
ATOM     26  C   UNL     1       2.873  -1.125  -1.899  0.00  0.00    +0.051 A 
BRANCH  25  27
ATOM     27  O   UNL     1       4.559  -1.942  -3.366  0.00  0.00    -0.489 OA
BRANCH  27  28
ATOM     28  C   UNL     1       5.460  -1.833  -2.262  0.00  0.00    +0.167 C 
ATOM     29  C   UNL     1       5.500  -3.161  -1.503  0.00  0.00    +0.051 C 
ATOM     30  C   UNL     1       6.861  -1.499  -2.778  0.00  0.00    +0.051 C 
ENDBRANCH  27  28
ENDBRANCH  25  27
ENDBRANCH  20  21
ENDBRANCH   1  20
TORSDOF 6
