REMARK  Name = ZINC00812623
REMARK  8 active torsions:
REMARK  status: ('A' for Active; 'I' for Inactive)
REMARK    1  A    between atoms: C_1  and  C_2
REMARK    2  A    between atoms: C_8  and  C_9
REMARK    3  A    between atoms: C_8  and  N_60
REMARK    4  A    between atoms: N_13  and  C_14
REMARK    5  A    between atoms: C_14  and  C_15
REMARK    6  A    between atoms: C_15  and  N_62
REMARK    7  A    between atoms: N_23  and  C_28
REMARK    8  A    between atoms: N_26  and  C_27
REMARK                            x       y       z     vdW  Elec       q    Type
REMARK                         _______ _______ _______ _____ _____    ______ ____
ROOT
ATOM      1  C   UNL     1       1.622   0.474  -0.598  0.00  0.00    +0.096 A 
ATOM      2  N   UNL     1       2.582   1.151  -1.175  0.00  0.00    -0.216 NA
ATOM      3  C   UNL     1       2.135   2.358  -1.530  0.00  0.00    +0.168 A 
ATOM      4  C   UNL     1       0.802   2.433  -1.145  0.00  0.00    +0.152 A 
ATOM      5  N   UNL     1       0.502   1.222  -0.554  0.00  0.00    -0.325 N 
ATOM      6  C   UNL     1       0.079   3.618  -1.399  0.00  0.00    +0.282 A 
ATOM      7  O   UNL     1      -1.089   3.710  -1.067  0.00  0.00    -0.265 OA
ATOM      8  N   UNL     1       0.695   4.646  -2.019  0.00  0.00    -0.262 N 
ATOM      9  C   UNL     1       1.985   4.560  -2.386  0.00  0.00    +0.333 A 
ATOM     10  O   UNL     1       2.509   5.508  -2.939  0.00  0.00    -0.246 OA
ATOM     11  N   UNL     1       2.712   3.450  -2.158  0.00  0.00    -0.280 N 
ATOM     12  C   UNL     1       4.116   3.396  -2.574  0.00  0.00    +0.155 C 
ATOM     13  C   UNL     1      -0.051   5.877  -2.291  0.00  0.00    +0.157 C 
ENDROOT
BRANCH   1  14
ATOM     14  C   UNL     1       1.750  -0.929  -0.062  0.00  0.00    -0.003 C 
BRANCH  14  21
ATOM     15  C   UNL     1       0.367  -3.318   0.484  0.00  0.00    -0.013 C 
ATOM     16  C   UNL     1       1.421  -3.260  -0.624  0.00  0.00    -0.071 C 
ATOM     17  C   UNL     1       1.025  -4.214  -1.753  0.00  0.00    -0.016 C 
ATOM     18  C   UNL     1       2.071  -4.138  -2.869  0.00  0.00    -0.003 C 
ATOM     19  C   UNL     1       2.176  -2.692  -3.361  0.00  0.00    -0.019 C 
ATOM     20  C   UNL     1       2.539  -1.783  -2.185  0.00  0.00    -0.078 C 
ATOM     21  N   UNL     1       1.481  -1.883  -1.157  0.00  0.00    +0.386 N 
ATOM     22  H   UNL     1       0.577  -1.652  -1.586  0.00  0.00    -0.081 HD
ENDBRANCH  14  21
ENDBRANCH   1  14
BRANCH   5  23
ATOM     23  C   UNL     1      -0.790   0.825   0.012  0.00  0.00    +0.105 C 
BRANCH  23  24
ATOM     24  C   UNL     1      -1.657   0.201  -1.083  0.00  0.00    -0.057 C 
BRANCH  24  30
ATOM     25  C   UNL     1      -2.951  -1.235   0.376  0.00  0.00    -0.050 C 
ATOM     26  C   UNL     1      -4.348  -1.465   0.958  0.00  0.00    +0.141 C 
ATOM     27  O   UNL     1      -5.278  -1.662  -0.110  0.00  0.00    -0.383 OA
ATOM     28  C   UNL     1      -5.344  -0.565  -1.026  0.00  0.00    +0.141 C 
ATOM     29  C   UNL     1      -3.957  -0.326  -1.628  0.00  0.00    -0.050 C 
ATOM     30  N   UNL     1      -3.002  -0.069  -0.530  0.00  0.00    +0.384 N 
ATOM     31  H   UNL     1      -3.315   0.753   0.000  0.00  0.00    -0.082 HD
ENDBRANCH  24  30
ENDBRANCH  23  24
ENDBRANCH   5  23
TORSDOF 5
