REMARK  Name = ZINC39024669
REMARK  6 active torsions:
REMARK  status: ('A' for Active; 'I' for Inactive)
REMARK    1  A    between atoms: C_1  and  O_2
REMARK    2  A    between atoms: O_2  and  C_3
REMARK    3  A    between atoms: C_12  and  C_13
REMARK    4  A    between atoms: C_16  and  C_19
REMARK    5  A    between atoms: N_21  and  N_22
REMARK    6  A    between atoms: C_23  and  C_24
REMARK                            x       y       z     vdW  Elec       q    Type
REMARK                         _______ _______ _______ _____ _____    ______ ____
ROOT
ATOM      1  C   UNL     1      -0.011  -2.825  -0.013  0.00  0.00    +0.072 C 
ATOM      2  N   UNL     1       0.622  -3.238   1.032  0.00  0.00    -0.190 NA
ATOM      3  N   UNL     1       1.770  -3.975   0.747  0.00  0.00    -0.256 N 
ATOM      4  C   UNL     1       1.926  -4.067  -0.713  0.00  0.00    +0.182 C 
ATOM      5  C   UNL     1       0.711  -3.290  -1.257  0.00  0.00    +0.091 C 
ATOM      6  H   UNL     1       2.369  -4.363   1.404  0.00  0.00    +0.169 HD
ENDROOT
BRANCH   1  16
ATOM      7  C   UNL     1      -1.200  -0.637   0.010  0.00  0.00    +0.130 A 
ATOM      8  C   UNL     1      -2.376   0.111   0.020  0.00  0.00    +0.047 A 
ATOM      9  C   UNL     1      -3.600  -0.481   0.028  0.00  0.00    +0.012 A 
ATOM     10  C   UNL     1      -3.722  -1.881   0.028  0.00  0.00    -0.017 A 
ATOM     11  C   UNL     1      -4.982  -2.503   0.037  0.00  0.00    +0.008 A 
ATOM     12  C   UNL     1      -5.063  -3.863   0.036  0.00  0.00    +0.001 A 
ATOM     13  C   UNL     1      -3.913  -4.649   0.027  0.00  0.00    +0.001 A 
ATOM     14  C   UNL     1      -2.675  -4.079   0.018  0.00  0.00    +0.009 A 
ATOM     15  C   UNL     1      -2.555  -2.684   0.018  0.00  0.00    -0.005 A 
ATOM     16  C   UNL     1      -1.248  -2.030   0.003  0.00  0.00    +0.047 A 
BRANCH   7  18
ATOM     17  C   UNL     1      -0.017   1.425   0.010  0.00  0.00    +0.277 C 
ATOM     18  O   UNL     1       0.002  -0.004   0.002  0.00  0.00    -0.494 OA
ENDBRANCH   7  18
ENDBRANCH   1  16
BRANCH   4  19
ATOM     19  C   UNL     1       3.217  -3.423  -1.150  0.00  0.00    +0.254 C 
ATOM     20  O   UNL     1       3.786  -2.645  -0.415  0.00  0.00    -0.272 OA
ATOM     21  N   UNL     1       3.739  -3.712  -2.359  0.00  0.00    -0.205 N 
ATOM     22  H   UNL     1       3.283  -4.335  -2.947  0.00  0.00    +0.177 HD
BRANCH  21  23
ATOM     23  N   UNL     1       4.938  -3.114  -2.765  0.00  0.00    -0.188 NA
ATOM     24  C   UNL     1       5.445  -3.395  -3.939  0.00  0.00    +0.136 C 
BRANCH  24  25
ATOM     25  C   UNL     1       6.646  -2.796  -4.346  0.00  0.00    +0.000 C 
ATOM     26  C   UNL     1       7.311  -2.980  -5.555  0.00  0.00    +0.004 A 
ATOM     27  C   UNL     1       7.026  -3.770  -6.691  0.00  0.00    +0.010 A 
ATOM     28  C   UNL     1       7.872  -3.754  -7.751  0.00  0.00    +0.001 A 
ATOM     29  C   UNL     1       9.031  -2.971  -7.753  0.00  0.00    +0.002 A 
ATOM     30  C   UNL     1       9.367  -2.190  -6.699  0.00  0.00    +0.026 A 
ATOM     31  C   UNL     1       8.531  -2.153  -5.552  0.00  0.00    +0.043 A 
ATOM     32  N   UNL     1       8.634  -1.489  -4.420  0.00  0.00    -0.380 N 
ATOM     33  C   UNL     1       7.486  -1.809  -3.566  0.00  0.00    +0.150 C 
ATOM     34  H   UNL     1       9.353  -0.881  -4.189  0.00  0.00    +0.160 HD
ENDBRANCH  24  25
ENDBRANCH  21  23
ENDBRANCH   4  19
TORSDOF 5
