REMARK  Name = ZINC06771754
REMARK  10 active torsions:
REMARK  status: ('A' for Active; 'I' for Inactive)
REMARK    1  A    between atoms: C_1  and  C_2
REMARK    2  A    between atoms: C_2  and  C_3
REMARK    3  A    between atoms: C_2  and  C_4
REMARK    4  A    between atoms: C_4  and  N_5
REMARK    5  A    between atoms: N_5  and  C_6
REMARK    6  A    between atoms: C_6  and  C_7
REMARK    7  A    between atoms: C_17  and  C_19
REMARK    8  A    between atoms: N_28  and  C_29
REMARK    9  A    between atoms: C_29  and  C_30
REMARK   10  A    between atoms: C_29  and  C_31
REMARK                            x       y       z     vdW  Elec       q    Type
REMARK                         _______ _______ _______ _____ _____    ______ ____
ROOT
ATOM      1  C   UNL     1      -0.310   3.307   1.909  0.00  0.00    +0.234 C 
ATOM      2  O   UNL     1       0.569   2.472   1.937  0.00  0.00    -0.274 OA
ATOM      3  N   UNL     1      -1.268   3.245   0.963  0.00  0.00    -0.286 N 
ATOM      4  C   UNL     1      -2.294   4.294   0.853  0.00  0.00    +0.130 C 
ATOM      5  C   UNL     1      -2.141   5.013  -0.491  0.00  0.00    +0.140 C 
ATOM      6  N   UNL     1      -1.979   4.017  -1.556  0.00  0.00    -0.347 N 
ATOM      7  C   UNL     1      -2.162   4.210  -2.891  0.00  0.00    +0.086 A 
ATOM      8  C   UNL     1      -1.899   3.049  -3.526  0.00  0.00    +0.019 A 
ATOM      9  C   UNL     1      -1.543   2.101  -2.545  0.00  0.00    +0.025 A 
ATOM     10  C   UNL     1      -1.605   2.717  -1.354  0.00  0.00    +0.044 A 
ATOM     11  C   UNL     1      -1.319   2.124   0.007  0.00  0.00    +0.153 C 
ENDROOT
BRANCH  11  12
ATOM     12  C   UNL     1       0.004   1.404  -0.013  0.00  0.00    -0.020 A 
ATOM     13  C   UNL     1       1.146   2.067  -0.424  0.00  0.00    +0.006 A 
ATOM     14  C   UNL     1       2.359   1.406  -0.448  0.00  0.00    +0.002 A 
ATOM     15  C   UNL     1       2.432   0.081  -0.061  0.00  0.00    +0.020 A 
ATOM     16  C   UNL     1       1.290  -0.584   0.350  0.00  0.00    +0.041 A 
ATOM     17  C   UNL     1       0.076   0.079   0.374  0.00  0.00    +0.025 A 
ATOM     18 CL   UNL     1       1.381  -2.248   0.836  0.00  0.00    -0.084 Cl
ENDBRANCH  11  12
BRANCH   1  19
ATOM     19  C   UNL     1      -0.332   4.414   2.932  0.00  0.00    +0.205 C 
BRANCH  19  20
ATOM     20  N   UNL     1       0.806   4.260   3.842  0.00  0.00    -0.277 N 
ATOM     21  C   UNL     1       0.676   3.526   4.964  0.00  0.00    +0.303 C 
ATOM     22  O   UNL     1      -0.385   2.991   5.222  0.00  0.00    -0.253 OA
ATOM     23  N   UNL     1       1.723   3.384   5.801  0.00  0.00    -0.297 N 
ATOM     24  H   UNL     1       2.570   3.811   5.596  0.00  0.00    +0.150 HD
BRANCH  23  25
ATOM     25  C   UNL     1       1.582   2.586   7.022  0.00  0.00    +0.068 C 
ATOM     26  C   UNL     1       1.830   1.111   6.699  0.00  0.00    +0.027 C 
ATOM     27  C   UNL     1       2.602   3.058   8.061  0.00  0.00    +0.027 C 
ENDBRANCH  23  25
BRANCH  20  28
ATOM     28  C   UNL     1       2.085   4.904   3.531  0.00  0.00    +0.113 C 
BRANCH  28  30
ATOM     29  C   UNL     1       3.492   6.930   3.928  0.00  0.00    +0.009 C 
ATOM     30  C   UNL     1       2.112   6.305   4.144  0.00  0.00    +0.000 C 
ATOM     31  C   UNL     1       1.047   7.176   3.475  0.00  0.00    +0.009 C 
ENDBRANCH  28  30
ENDBRANCH  20  28
ENDBRANCH  19  20
ENDBRANCH   1  19
TORSDOF 6
