REMARK  Name = ZINC65748994
REMARK  6 active torsions:
REMARK  status: ('A' for Active; 'I' for Inactive)
REMARK    1  A    between atoms: C_1  and  C_2
REMARK    2  A    between atoms: C_5  and  O_37
REMARK    3  A    between atoms: N_15  and  C_18
REMARK    4  A    between atoms: C_18  and  C_19
REMARK    5  A    between atoms: C_18  and  C_25
REMARK    6  A    between atoms: C_18  and  C_31
REMARK                            x       y       z     vdW  Elec       q    Type
REMARK                         _______ _______ _______ _____ _____    ______ ____
ROOT
ATOM      1  C   UNL     1      -1.017  -0.073  -0.176  0.00  0.00    +0.030 C 
ATOM      2  C   UNL     1      -0.898  -1.565   0.138  0.00  0.00    +0.083 C 
ATOM      3  C   UNL     1      -2.292  -2.128   0.384  0.00  0.00    +0.076 C 
ATOM      4  C   UNL     1      -2.205  -3.430   1.182  0.00  0.00    +0.214 C 
ATOM      5  N   UNL     1      -1.445  -3.168   2.410  0.00  0.00    -0.213 N 
ATOM      6  C   UNL     1      -1.917  -3.626   3.597  0.00  0.00    +0.276 C 
ATOM      7  O   UNL     1      -2.932  -4.294   3.672  0.00  0.00    -0.268 OA
ATOM      8  C   UNL     1      -1.132  -3.270   4.782  0.00  0.00    +0.166 A 
ATOM      9  C   UNL     1       0.129  -2.678   4.634  0.00  0.00    +0.139 A 
ATOM     10  N   UNL     1       0.638  -2.442   3.372  0.00  0.00    -0.273 N 
ATOM     11  C   UNL     1      -0.276  -2.445   2.326  0.00  0.00    +0.171 C 
ATOM     12  N   UNL     1      -0.015  -1.734   1.275  0.00  0.00    -0.358 N 
ATOM     13  N   UNL     1       0.598  -2.458   5.875  0.00  0.00    -0.300 N 
ATOM     14  C   UNL     1      -0.347  -2.910   6.757  0.00  0.00    +0.202 A 
ATOM     15  N   UNL     1      -1.367  -3.390   6.098  0.00  0.00    -0.229 NA
ATOM     16  H   UNL     1       0.841  -1.280   1.246  0.00  0.00    +0.162 HD
ATOM     17  H   UNL     1       1.583  -2.282   3.224  0.00  0.00    +0.156 HD
ENDROOT
BRANCH   4  18
ATOM     18  O   UNL     1      -3.520  -3.879   1.516  0.00  0.00    -0.374 OA
ATOM     19  H   UNL     1      -4.104  -3.987   0.752  0.00  0.00    +0.212 HD
ENDBRANCH   4  18
BRANCH  13  20
ATOM     20  C   UNL     1       1.884  -1.847   6.220  0.00  0.00    +0.124 C 
BRANCH  20  21
ATOM     21  C   UNL     1       2.085  -1.909   7.712  0.00  0.00    -0.013 A 
ATOM     22  C   UNL     1       3.203  -2.534   8.233  0.00  0.00    +0.006 A 
ATOM     23  C   UNL     1       3.388  -2.592   9.602  0.00  0.00    +0.000 A 
ATOM     24  C   UNL     1       2.455  -2.024  10.450  0.00  0.00    +0.000 A 
ATOM     25  C   UNL     1       1.338  -1.398   9.929  0.00  0.00    +0.000 A 
ATOM     26  C   UNL     1       1.156  -1.337   8.560  0.00  0.00    +0.006 A 
ENDBRANCH  20  21
BRANCH  20  27
ATOM     27  C   UNL     1       2.996  -2.594   5.531  0.00  0.00    -0.013 A 
ATOM     28  C   UNL     1       3.138  -3.956   5.725  0.00  0.00    +0.006 A 
ATOM     29  C   UNL     1       4.158  -4.642   5.093  0.00  0.00    +0.000 A 
ATOM     30  C   UNL     1       5.037  -3.966   4.267  0.00  0.00    +0.000 A 
ATOM     31  C   UNL     1       4.895  -2.605   4.072  0.00  0.00    +0.000 A 
ATOM     32  C   UNL     1       3.872  -1.920   4.701  0.00  0.00    +0.006 A 
ENDBRANCH  20  27
BRANCH  20  33
ATOM     33  C   UNL     1       1.893  -0.408   5.772  0.00  0.00    -0.013 A 
ATOM     34  C   UNL     1       0.845   0.088   5.020  0.00  0.00    +0.006 A 
ATOM     35  C   UNL     1       0.853   1.408   4.609  0.00  0.00    +0.000 A 
ATOM     36  C   UNL     1       1.910   2.232   4.950  0.00  0.00    +0.000 A 
ATOM     37  C   UNL     1       2.958   1.736   5.703  0.00  0.00    +0.000 A 
ATOM     38  C   UNL     1       2.947   0.417   6.117  0.00  0.00    +0.006 A 
ENDBRANCH  20  33
ENDBRANCH  13  20
TORSDOF 5
