REMARK  Name = ZINC57179168
REMARK  6 active torsions:
REMARK  status: ('A' for Active; 'I' for Inactive)
REMARK    1  A    between atoms: C_4  and  N_7
REMARK    2  A    between atoms: C_8  and  C_10
REMARK    3  A    between atoms: C_10  and  C_11
REMARK    4  A    between atoms: C_11  and  N_12
REMARK    5  A    between atoms: N_15  and  N_16
REMARK    6  A    between atoms: N_16  and  C_17
REMARK                            x       y       z     vdW  Elec       q    Type
REMARK                         _______ _______ _______ _____ _____    ______ ____
ROOT
ATOM      1  N   UNL     1       5.043  -4.194  -4.840  0.00  0.00    -0.298 N 
ATOM      2  C   UNL     1       5.721  -5.358  -4.805  0.00  0.00    +0.316 C 
ATOM      3  O   UNL     1       5.610  -6.098  -3.848  0.00  0.00    -0.251 OA
ATOM      4  N   UNL     1       6.523  -5.701  -5.833  0.00  0.00    -0.220 N 
ATOM      5  H   UNL     1       5.131  -3.603  -5.604  0.00  0.00    +0.150 HD
ATOM      6  H   UNL     1       7.011  -6.539  -5.808  0.00  0.00    +0.174 HD
ENDROOT
BRANCH   4   7
ATOM      7  N   UNL     1       6.651  -4.848  -6.937  0.00  0.00    -0.258 N 
ATOM      8  H   UNL     1       6.225  -3.976  -6.928  0.00  0.00    +0.170 HD
BRANCH   7   9
ATOM      9  C   UNL     1       7.395  -5.253  -8.053  0.00  0.00    +0.121 A 
ATOM     10  C   UNL     1       7.384  -6.585  -8.450  0.00  0.00    +0.186 A 
ATOM     11  C   UNL     1       8.119  -6.984  -9.554  0.00  0.00    +0.198 A 
ATOM     12  C   UNL     1       8.866  -6.056 -10.263  0.00  0.00    +0.199 A 
ATOM     13  C   UNL     1       8.878  -4.727  -9.868  0.00  0.00    +0.198 A 
ATOM     14  C   UNL     1       8.140  -4.323  -8.768  0.00  0.00    +0.186 A 
ATOM     15  F   UNL     1       8.148  -3.027  -8.387  0.00  0.00    -0.200 F 
ATOM     16  F   UNL     1       9.606  -3.824 -10.560  0.00  0.00    -0.199 F 
ATOM     17  F   UNL     1       9.583  -6.446 -11.339  0.00  0.00    -0.199 F 
ATOM     18  F   UNL     1       8.109  -8.278  -9.940  0.00  0.00    -0.199 F 
ATOM     19  F   UNL     1       6.657  -7.490  -7.760  0.00  0.00    -0.200 F 
ENDBRANCH   7   9
ENDBRANCH   4   7
BRANCH   1  20
ATOM     20  C   UNL     1       4.171  -3.821  -3.723  0.00  0.00    +0.115 C 
BRANCH  20  21
ATOM     21  C   UNL     1       3.525  -2.464  -4.011  0.00  0.00    +0.114 C 
BRANCH  21  23
ATOM     22  N   UNL     1       1.950  -0.916  -2.897  0.00  0.00    -0.312 N 
ATOM     23  C   UNL     1       2.628  -2.080  -2.862  0.00  0.00    +0.215 C 
ATOM     24  O   UNL     1       2.517  -2.819  -1.907  0.00  0.00    -0.276 OA
ATOM     25  H   UNL     1       2.039  -0.325  -3.661  0.00  0.00    +0.149 HD
BRANCH  22  29
ATOM     26  C   UNL     1      -1.355   0.730  -0.759  0.00  0.00    +0.000 C 
ATOM     27  C   UNL     1       0.022   1.369  -0.567  0.00  0.00    +0.002 C 
ATOM     28  C   UNL     1       0.932   0.979  -1.734  0.00  0.00    +0.022 C 
ATOM     29  C   UNL     1       1.078  -0.543  -1.780  0.00  0.00    +0.073 C 
ATOM     30  C   UNL     1      -0.299  -1.182  -1.972  0.00  0.00    +0.022 C 
ATOM     31  C   UNL     1      -1.209  -0.792  -0.805  0.00  0.00    +0.002 C 
ENDBRANCH  22  29
ENDBRANCH  21  23
ENDBRANCH  20  21
ENDBRANCH   1  20
TORSDOF 6
