REMARK  Name = ZINC09744745
REMARK  10 active torsions:
REMARK  status: ('A' for Active; 'I' for Inactive)
REMARK    1  A    between atoms: C_1  and  C_2
REMARK    2  A    between atoms: C_5  and  C_8
REMARK    3  A    between atoms: C_8  and  N_66
REMARK    4  A    between atoms: C_11  and  C_14
REMARK    5  A    between atoms: C_14  and  N_15
REMARK    6  A    between atoms: C_16  and  C_18
REMARK    7  A    between atoms: C_18  and  C_19
REMARK    8  A    between atoms: C_19  and  C_20
REMARK    9  A    between atoms: N_29  and  C_30
REMARK   10  A    between atoms: C_30  and  C_31
REMARK                            x       y       z     vdW  Elec       q    Type
REMARK                         _______ _______ _______ _____ _____    ______ ____
ROOT
ATOM      1  N   UNL     1      -0.018   1.461   0.010  0.00  0.00    -0.315 N 
ATOM      2  C   UNL     1       1.140   2.151   0.003  0.00  0.00    +0.213 C 
ATOM      3  O   UNL     1       2.199   1.558  -0.011  0.00  0.00    -0.276 OA
ATOM      4  H   UNL     1      -0.864   1.934   0.017  0.00  0.00    +0.149 HD
ENDROOT
BRANCH   1   5
ATOM      5  C   UNL     1       0.002  -0.004   0.002  0.00  0.00    +0.105 C 
BRANCH   5   8
ATOM      6  C   UNL     1      -2.924  -1.532   1.639  0.00  0.00    -0.078 C 
ATOM      7  C   UNL     1      -2.101  -0.245   1.377  0.00  0.00    -0.015 C 
ATOM      8  C   UNL     1      -1.433  -0.534   0.013  0.00  0.00    -0.012 C 
ATOM      9  C   UNL     1      -1.438  -2.068  -0.121  0.00  0.00    -0.073 C 
ATOM     10  N   UNL     1      -2.043  -2.582   1.113  0.00  0.00    +0.383 N 
ATOM     11  H   UNL     1      -1.308  -2.792   1.799  0.00  0.00    -0.081 HD
BRANCH  10  12
ATOM     12  C   UNL     1      -2.819  -3.826   0.830  0.00  0.00    -0.043 C 
BRANCH  12  17
ATOM     13  C   UNL     1      -5.884  -5.294   5.503  0.00  0.00    +0.044 C 
ATOM     14  C   UNL     1      -5.085  -4.912   4.284  0.00  0.00    -0.050 A 
ATOM     15  C   UNL     1      -5.631  -4.066   3.337  0.00  0.00    +0.003 A 
ATOM     16  C   UNL     1      -4.898  -3.715   2.219  0.00  0.00    +0.002 A 
ATOM     17  C   UNL     1      -3.618  -4.209   2.049  0.00  0.00    -0.064 A 
ATOM     18  C   UNL     1      -3.074  -5.059   2.993  0.00  0.00    +0.002 A 
ATOM     19  C   UNL     1      -3.806  -5.407   4.113  0.00  0.00    +0.003 A 
ENDBRANCH  12  17
ENDBRANCH  10  12
ENDBRANCH   5   8
ENDBRANCH   1   5
BRANCH   2  20
ATOM     20  C   UNL     1       1.120   3.657   0.011  0.00  0.00    +0.103 C 
BRANCH  20  21
ATOM     21  C   UNL     1       2.555   4.187   0.000  0.00  0.00    +0.087 C 
BRANCH  21  22
ATOM     22  C   UNL     1       2.535   5.694   0.008  0.00  0.00    +0.156 A 
ATOM     23  N   UNL     1       2.520   6.473  -1.045  0.00  0.00    -0.132 NA
ATOM     24  N   UNL     1       2.501   7.708  -0.684  0.00  0.00    -0.128 NA
ATOM     25  C   UNL     1       2.513   7.776   0.638  0.00  0.00    +0.178 A 
ATOM     26  N   UNL     1       2.534   6.484   1.103  0.00  0.00    -0.195 N 
ATOM     27  N   UNL     1       2.550   6.235   2.477  0.00  0.00    -0.148 NA
ATOM     28  C   UNL     1       2.545   7.229   3.334  0.00  0.00    +0.140 A 
ATOM     29  C   UNL     1       2.523   8.565   2.890  0.00  0.00    +0.049 A 
ATOM     30  C   UNL     1       2.507   8.841   1.559  0.00  0.00    +0.053 A 
ATOM     31  N   UNL     1       2.561   6.958   4.698  0.00  0.00    -0.321 N 
ATOM     32  H   UNL     1       2.575   6.040   5.011  0.00  0.00    +0.148 HD
BRANCH  31  33
ATOM     33  C   UNL     1       2.555   8.060   5.663  0.00  0.00    +0.177 C 
BRANCH  33  34
ATOM     34  C   UNL     1       2.575   7.503   7.063  0.00  0.00    +0.122 A 
ATOM     35  C   UNL     1       3.676   7.226   7.784  0.00  0.00    +0.046 A 
ATOM     36  C   UNL     1       3.235   6.725   9.030  0.00  0.00    +0.041 A 
ATOM     37  C   UNL     1       1.890   6.726   8.996  0.00  0.00    +0.195 A 
ATOM     38  O   UNL     1       1.496   7.203   7.805  0.00  0.00    -0.466 OA
ENDBRANCH  33  34
ENDBRANCH  31  33
ENDBRANCH  21  22
ENDBRANCH  20  21
ENDBRANCH   2  20
TORSDOF 9
