REMARK  Name = ZINC01635197
REMARK  4 active torsions:
REMARK  status: ('A' for Active; 'I' for Inactive)
REMARK    1  A    between atoms: N_9  and  C_12
REMARK    2  A    between atoms: C_12  and  N_14
REMARK    3  A    between atoms: N_14  and  C_15
REMARK    4  A    between atoms: C_21  and  C_23
REMARK                            x       y       z     vdW  Elec       q    Type
REMARK                         _______ _______ _______ _____ _____    ______ ____
ROOT
ATOM      1  C   UNL     1       1.077   8.259  -2.414  0.00  0.00    +0.142 C 
ATOM      2  S   UNL     1       2.763   8.510  -2.253  0.00  0.00    -0.018 S 
ENDROOT
BRANCH   1  11
ATOM      3  C   UNL     1      -1.979   2.020  -5.409  0.00  0.00    +0.005 A 
ATOM      4  C   UNL     1      -0.887   1.460  -6.059  0.00  0.00    +0.018 A 
ATOM      5  C   UNL     1       0.378   1.947  -5.798  0.00  0.00    +0.084 A 
ATOM      6  C   UNL     1      -0.455   3.488  -4.295  0.00  0.00    +0.099 A 
ATOM      7  C   UNL     1      -1.757   3.047  -4.510  0.00  0.00    +0.042 A 
ATOM      8  N   UNL     1      -0.217   4.523  -3.398  0.00  0.00    -0.314 N 
ATOM      9  C   UNL     1      -1.002   5.715  -3.748  0.00  0.00    +0.125 C 
ATOM     10  C   UNL     1      -0.853   6.764  -2.641  0.00  0.00    +0.125 C 
ATOM     11  N   UNL     1       0.580   7.006  -2.417  0.00  0.00    -0.309 N 
ATOM     12  C   UNL     1       1.456   5.846  -2.194  0.00  0.00    +0.125 C 
ATOM     13  C   UNL     1       1.216   4.833  -3.319  0.00  0.00    +0.125 C 
ATOM     14  N   UNL     1       0.633   2.958  -4.925  0.00  0.00    -0.350 N 
ATOM     15  H   UNL     1       1.585   3.300  -4.750  0.00  0.00    +0.166 HD
ENDBRANCH   1  11
BRANCH   1  16
ATOM     16  N   UNL     1       0.248   9.314  -2.538  0.00  0.00    -0.244 N 
ATOM     17  C   UNL     1      -1.055   9.188  -2.217  0.00  0.00    +0.288 C 
ATOM     18  O   UNL     1      -1.415   8.293  -1.475  0.00  0.00    -0.266 OA
BRANCH  16  19
ATOM     19  C   UNL     1       0.762  10.597  -3.022  0.00  0.00    +0.084 C 
ATOM     20  C   UNL     1       0.061  11.739  -2.282  0.00  0.00    +0.023 C 
ATOM     21  C   UNL     1       0.598  13.079  -2.787  0.00  0.00    +0.002 C 
ATOM     22  C   UNL     1       0.330  13.203  -4.288  0.00  0.00    +0.000 C 
ATOM     23  C   UNL     1       1.030  12.062  -5.028  0.00  0.00    +0.002 C 
ATOM     24  C   UNL     1       0.493  10.721  -4.523  0.00  0.00    +0.023 C 
ENDBRANCH  16  19
BRANCH  17  25
ATOM     25  C   UNL     1      -2.038  10.128  -2.761  0.00  0.00    +0.190 A 
ATOM     26  C   UNL     1      -3.347  10.229  -2.384  0.00  0.00    +0.054 A 
ATOM     27  C   UNL     1      -3.912  11.255  -3.157  0.00  0.00    +0.042 A 
ATOM     28  C   UNL     1      -2.938  11.724  -3.969  0.00  0.00    +0.196 A 
ATOM     29  O   UNL     1      -1.811  11.043  -3.727  0.00  0.00    -0.458 OA
ENDBRANCH  17  25
ENDBRANCH   1  16
TORSDOF 4
