REMARK  Name = ZINC59892431
REMARK  13 active torsions:
REMARK  status: ('A' for Active; 'I' for Inactive)
REMARK    1  A    between atoms: C_1  and  C_2
REMARK    2  A    between atoms: N_7  and  S_9
REMARK    3  A    between atoms: S_9  and  C_12
REMARK    4  A    between atoms: C_15  and  N_18
REMARK    5  A    between atoms: C_19  and  C_21
REMARK    6  A    between atoms: C_21  and  S_22
REMARK    7  A    between atoms: S_22  and  C_23
REMARK    8  A    between atoms: N_28  and  N_29
REMARK    9  A    between atoms: C_30  and  C_31
REMARK   10  A    between atoms: C_30  and  C_32
REMARK   11  A    between atoms: C_32  and  C_33
REMARK   12  A    between atoms: C_33  and  C_34
REMARK   13  A    between atoms: C_33  and  C_35
REMARK                            x       y       z     vdW  Elec       q    Type
REMARK                         _______ _______ _______ _____ _____    ______ ____
ROOT
ATOM      1  N   UNL     1       3.654  -1.910   5.969  0.00  0.00    -0.285 N 
ATOM      2  C   UNL     1       4.047  -1.166   7.022  0.00  0.00    +0.227 C 
ATOM      3  O   UNL     1       3.409  -0.185   7.343  0.00  0.00    -0.275 OA
ATOM      4  H   UNL     1       4.119  -2.735   5.758  0.00  0.00    +0.155 HD
ENDROOT
BRANCH   1   8
ATOM      5  C   UNL     1       0.446  -0.668   3.619  0.00  0.00    +0.106 A 
ATOM      6  C   UNL     1       1.284   0.270   4.195  0.00  0.00    +0.030 A 
ATOM      7  C   UNL     1       2.348  -0.139   4.975  0.00  0.00    +0.025 A 
ATOM      8  C   UNL     1       2.577  -1.493   5.180  0.00  0.00    +0.034 A 
ATOM      9  C   UNL     1       1.734  -2.432   4.601  0.00  0.00    +0.025 A 
ATOM     10  C   UNL     1       0.668  -2.017   3.827  0.00  0.00    +0.030 A 
BRANCH   5  11
ATOM     11  S   UNL     1      -0.910  -0.142   2.626  0.00  0.00    +0.061 S 
ATOM     12  O   UNL     1      -1.224  -1.225   1.760  0.00  0.00    -0.153 OA
ATOM     13  O   UNL     1      -0.580   1.151   2.139  0.00  0.00    -0.153 OA
BRANCH  11  19
ATOM     14  C   UNL     1      -5.536  -1.727   3.990  0.00  0.00    +0.009 C 
ATOM     15  C   UNL     1      -4.557  -0.620   3.594  0.00  0.00    +0.002 C 
ATOM     16  C   UNL     1      -4.869   0.648   4.393  0.00  0.00    +0.006 C 
ATOM     17  C   UNL     1      -3.911   1.766   3.973  0.00  0.00    +0.017 C 
ATOM     18  C   UNL     1      -2.471   1.342   4.281  0.00  0.00    +0.109 C 
ATOM     19  N   UNL     1      -2.210   0.049   3.634  0.00  0.00    -0.176 NA
ATOM     20  C   UNL     1      -3.124  -1.071   3.897  0.00  0.00    +0.112 C 
ENDBRANCH  11  19
ENDBRANCH   5  11
ENDBRANCH   1   8
BRANCH   2  21
ATOM     21  C   UNL     1       5.277  -1.553   7.802  0.00  0.00    +0.173 C 
BRANCH  21  22
ATOM     22  S   UNL     1       5.539  -0.364   9.147  0.00  0.00    -0.075 S 
BRANCH  22  23
ATOM     23  C   UNL     1       6.994  -0.947   9.953  0.00  0.00    +0.211 A 
ATOM     24  N   UNL     1       7.571  -0.382  11.019  0.00  0.00    -0.186 NA
ATOM     25  C   UNL     1       8.637  -1.072  11.363  0.00  0.00    +0.232 A 
ATOM     26  N   UNL     1       8.758  -2.107  10.505  0.00  0.00    -0.245 N 
ATOM     27  N   UNL     1       7.684  -2.008   9.607  0.00  0.00    -0.144 NA
ATOM     28  N   UNL     1       9.485  -0.787  12.418  0.00  0.00    -0.205 N 
ATOM     29  H   UNL     1      10.250  -1.357  12.594  0.00  0.00    +0.177 HD
ATOM     30  H   UNL     1       9.450  -2.788  10.510  0.00  0.00    +0.192 HD
BRANCH  28  31
ATOM     31  N   UNL     1       9.239   0.326  13.233  0.00  0.00    -0.189 NA
ATOM     32  C   UNL     1      10.024   0.590  14.210  0.00  0.00    +0.034 C 
ATOM     33  C   UNL     1      11.212  -0.296  14.483  0.00  0.00    +0.062 C 
BRANCH  32  34
ATOM     34  C   UNL     1       9.760   1.787  15.086  0.00  0.00    +0.055 C 
BRANCH  34  35
ATOM     35  C   UNL     1      10.450   3.017  14.491  0.00  0.00    -0.012 C 
ATOM     36  C   UNL     1       9.801   3.367  13.151  0.00  0.00    +0.007 C 
ATOM     37  C   UNL     1      10.303   4.198  15.453  0.00  0.00    +0.007 C 
ENDBRANCH  34  35
ENDBRANCH  32  34
ENDBRANCH  28  31
ENDBRANCH  22  23
ENDBRANCH  21  22
ENDBRANCH   2  21
TORSDOF 9
