REMARK  Name = ZINC15839334
REMARK  10 active torsions:
REMARK  status: ('A' for Active; 'I' for Inactive)
REMARK    1  A    between atoms: C_1  and  C_2
REMARK    2  A    between atoms: C_4  and  O_9
REMARK    3  A    between atoms: O_9  and  C_10
REMARK    4  A    between atoms: C_10  and  C_11
REMARK    5  A    between atoms: C_14  and  C_17
REMARK    6  A    between atoms: N_19  and  N_20
REMARK    7  A    between atoms: C_21  and  C_23
REMARK    8  A    between atoms: C_23  and  C_24
REMARK    9  A    between atoms: C_24  and  C_25
REMARK   10  A    between atoms: C_25  and  N_26
REMARK                            x       y       z     vdW  Elec       q    Type
REMARK                         _______ _______ _______ _____ _____    ______ ____
ROOT
ATOM      1  C   UNL     1      -1.187   1.624   0.017  0.00  0.00    +0.260 C 
ATOM      2  O   UNL     1      -1.204   2.839   0.023  0.00  0.00    -0.269 OA
ATOM      3  N   UNL     1      -0.011   0.966   0.007  0.00  0.00    -0.230 N 
ATOM      4  H   UNL     1       0.002  -0.004   0.002  0.00  0.00    +0.173 HD
ENDROOT
BRANCH   1   8
ATOM      5  C   UNL     1      -4.837  -0.550   0.021  0.00  0.00    -0.010 A 
ATOM      6  C   UNL     1      -4.859   0.834   0.029  0.00  0.00    +0.008 A 
ATOM      7  C   UNL     1      -3.677   1.546   0.028  0.00  0.00    +0.013 A 
ATOM      8  C   UNL     1      -2.458   0.867   0.018  0.00  0.00    +0.038 A 
ATOM      9  C   UNL     1      -2.442  -0.528   0.005  0.00  0.00    +0.013 A 
ATOM     10  C   UNL     1      -3.631  -1.228   0.012  0.00  0.00    +0.008 A 
BRANCH   5  11
ATOM     11  C   UNL     1      -6.131  -1.321   0.024  0.00  0.00    +0.264 C 
BRANCH  11  12
ATOM     12  O   UNL     1      -6.548  -1.557  -1.323  0.00  0.00    -0.487 OA
BRANCH  12  16
ATOM     13  C   UNL     1      -9.850  -3.499  -4.347  0.00  0.00    +0.045 C 
ATOM     14  C   UNL     1      -9.347  -3.211  -2.956  0.00  0.00    -0.029 A 
ATOM     15  C   UNL     1      -8.169  -2.511  -2.779  0.00  0.00    +0.050 A 
ATOM     16  C   UNL     1      -7.706  -2.246  -1.498  0.00  0.00    +0.121 A 
ATOM     17  C   UNL     1      -8.424  -2.690  -0.398  0.00  0.00    +0.047 A 
ATOM     18  C   UNL     1      -9.604  -3.385  -0.578  0.00  0.00    +0.024 A 
ATOM     19  C   UNL     1     -10.064  -3.648  -1.857  0.00  0.00    +0.044 A 
ATOM     20 CL   UNL     1     -11.544  -4.528  -2.081  0.00  0.00    -0.083 Cl
ENDBRANCH  12  16
ENDBRANCH  11  12
ENDBRANCH   5  11
ENDBRANCH   1   8
BRANCH   3  21
ATOM     21  N   UNL     1       1.193   1.683  -0.000  0.00  0.00    -0.234 N 
ATOM     22  C   UNL     1       2.369   1.025  -0.015  0.00  0.00    +0.229 C 
ATOM     23  O   UNL     1       2.385  -0.188  -0.022  0.00  0.00    -0.274 OA
ATOM     24  H   UNL     1       1.179   2.653   0.005  0.00  0.00    +0.173 HD
BRANCH  22  25
ATOM     25  C   UNL     1       3.663   1.796  -0.023  0.00  0.00    +0.099 C 
BRANCH  25  26
ATOM     26  C   UNL     1       4.840   0.818  -0.040  0.00  0.00    +0.031 C 
BRANCH  26  27
ATOM     27  C   UNL     1       6.154   1.601  -0.048  0.00  0.00    +0.129 C 
BRANCH  27  28
ATOM     28  N   UNL     1       7.280   0.664  -0.064  0.00  0.00    -0.274 N 
ATOM     29  C   UNL     1       7.904   0.143  -1.197  0.00  0.00    +0.090 A 
ATOM     30  C   UNL     1       7.698   0.309  -2.558  0.00  0.00    +0.030 A 
ATOM     31  C   UNL     1       8.500  -0.361  -3.461  0.00  0.00    +0.002 A 
ATOM     32  C   UNL     1       9.508  -1.197  -3.011  0.00  0.00    +0.004 A 
ATOM     33  C   UNL     1       9.718  -1.367  -1.656  0.00  0.00    +0.048 A 
ATOM     34  C   UNL     1       8.918  -0.699  -0.743  0.00  0.00    +0.157 A 
ATOM     35  O   UNL     1       8.888  -0.670   0.612  0.00  0.00    -0.407 OA
ATOM     36  C   UNL     1       7.907   0.153   1.014  0.00  0.00    +0.421 A 
ATOM     37  O   UNL     1       7.626   0.398   2.172  0.00  0.00    -0.223 OA
ENDBRANCH  27  28
ENDBRANCH  26  27
ENDBRANCH  25  26
ENDBRANCH  22  25
ENDBRANCH   3  21
TORSDOF 9
