REMARK  Name = ZINC16773785
REMARK  7 active torsions:
REMARK  status: ('A' for Active; 'I' for Inactive)
REMARK    1  A    between atoms: C_1  and  C_2
REMARK    2  A    between atoms: C_3  and  N_9
REMARK    3  A    between atoms: C_10  and  C_12
REMARK    4  A    between atoms: C_12  and  C_14
REMARK    5  A    between atoms: C_12  and  S_15
REMARK    6  A    between atoms: S_15  and  C_16
REMARK    7  A    between atoms: N_26  and  C_27
REMARK                            x       y       z     vdW  Elec       q    Type
REMARK                         _______ _______ _______ _____ _____    ______ ____
ROOT
ATOM      1  C   UNL     1       1.083   0.105  -7.550  0.00  0.00    +0.173 A 
ATOM      2  N   UNL     1       0.721   1.359  -7.429  0.00  0.00    -0.223 NA
ATOM      3  C   UNL     1       0.834   2.229  -8.453  0.00  0.00    +0.079 A 
ATOM      4  C   UNL     1       0.447   3.566  -8.324  0.00  0.00    +0.028 A 
ATOM      5  C   UNL     1       0.580   4.414  -9.387  0.00  0.00    +0.002 A 
ATOM      6  C   UNL     1       1.093   3.967 -10.598  0.00  0.00    +0.001 A 
ATOM      7  C   UNL     1       1.480   2.665 -10.755  0.00  0.00    +0.015 A 
ATOM      8  C   UNL     1       1.356   1.778  -9.686  0.00  0.00    +0.065 A 
ATOM      9  C   UNL     1       1.756   0.368  -9.797  0.00  0.00    +0.263 A 
ATOM     10  O   UNL     1       2.213  -0.079 -10.833  0.00  0.00    -0.267 OA
ATOM     11  N   UNL     1       1.602  -0.412  -8.702  0.00  0.00    -0.284 N 
ENDROOT
BRANCH  11  12
ATOM     12  C   UNL     1       1.990  -1.824  -8.755  0.00  0.00    +0.093 C 
ATOM     13  C   UNL     1       3.477  -1.949  -9.149  0.00  0.00    +0.025 C 
ATOM     14  C   UNL     1       3.525  -3.204 -10.055  0.00  0.00    +0.002 C 
ATOM     15  C   UNL     1       2.208  -3.094 -10.864  0.00  0.00    +0.002 C 
ATOM     16  C   UNL     1       1.184  -2.552  -9.845  0.00  0.00    +0.025 C 
ENDBRANCH  11  12
BRANCH   1  17
ATOM     17  S   UNL     1       0.899  -0.960  -6.159  0.00  0.00    -0.075 S 
BRANCH  17  18
ATOM     18  C   UNL     1       0.192   0.111  -4.876  0.00  0.00    +0.137 C 
ATOM     19  C   UNL     1      -1.204   0.566  -5.305  0.00  0.00    +0.029 C 
BRANCH  18  21
ATOM     20  N   UNL     1      -0.010   0.011  -2.413  0.00  0.00    -0.284 N 
ATOM     21  C   UNL     1       0.095  -0.653  -3.581  0.00  0.00    +0.230 C 
ATOM     22  O   UNL     1       0.112  -1.866  -3.590  0.00  0.00    -0.274 OA
ATOM     23  H   UNL     1      -0.104   0.977  -2.411  0.00  0.00    +0.155 HD
BRANCH  20  26
ATOM     24  C   UNL     1      -1.263   1.190  -0.146  0.00  0.00    +0.047 C 
ATOM     25  C   UNL     1      -0.583  -0.153  -0.073  0.00  0.00    -0.011 A 
ATOM     26  C   UNL     1       0.017  -0.692  -1.204  0.00  0.00    +0.038 A 
ATOM     27  C   UNL     1       0.642  -1.929  -1.132  0.00  0.00    +0.023 A 
ATOM     28  C   UNL     1       0.667  -2.621   0.064  0.00  0.00    +0.003 A 
ATOM     29  C   UNL     1       0.069  -2.084   1.188  0.00  0.00    +0.020 A 
ATOM     30  C   UNL     1      -0.550  -0.848   1.122  0.00  0.00    +0.046 A 
ATOM     31 CL   UNL     1      -1.293  -0.173   2.538  0.00  0.00    -0.083 Cl
ENDBRANCH  20  26
ENDBRANCH  18  21
ENDBRANCH  17  18
ENDBRANCH   1  17
TORSDOF 5
