REMARK  Name = ZINC39533942
REMARK  9 active torsions:
REMARK  status: ('A' for Active; 'I' for Inactive)
REMARK    1  A    between atoms: C_4  and  C_7
REMARK    2  A    between atoms: C_7  and  C_8
REMARK    3  A    between atoms: N_11  and  C_15
REMARK    4  A    between atoms: C_15  and  C_17
REMARK    5  A    between atoms: C_15  and  C_20
REMARK    6  A    between atoms: C_17  and  N_18
REMARK    7  A    between atoms: N_18  and  O_19
REMARK    8  A    between atoms: C_23  and  C_26
REMARK    9  A    between atoms: C_31  and  O_32
REMARK                            x       y       z     vdW  Elec       q    Type
REMARK                         _______ _______ _______ _____ _____    ______ ____
ROOT
ATOM      1  C   UNL     1       7.098  -2.892   2.748  0.00  0.00    -0.022 C 
ENDROOT
BRANCH   1   4
ATOM      2  C   UNL     1       3.909  -1.400   1.444  0.00  0.00    -0.085 C 
ATOM      3  C   UNL     1       5.267  -2.105   1.412  0.00  0.00    -0.094 C 
ATOM      4  N   UNL     1       5.794  -2.215   2.779  0.00  0.00    +0.383 N 
ATOM      5  C   UNL     1       5.954  -0.871   3.351  0.00  0.00    -0.097 C 
ATOM      6  C   UNL     1       4.596  -0.166   3.383  0.00  0.00    -0.101 C 
ATOM      7  N   UNL     1       4.069  -0.057   2.017  0.00  0.00    +0.379 N 
ATOM      8  H   UNL     1       4.711   0.477   1.450  0.00  0.00    -0.086 HD
ATOM      9  H   UNL     1       3.174   0.408   2.038  0.00  0.00    -0.086 HD
ATOM     10  H   UNL     1       5.152  -2.748   3.345  0.00  0.00    -0.081 HD
BRANCH   2  11
ATOM     11  C   UNL     1       3.360  -1.286   0.021  0.00  0.00    +0.017 C 
BRANCH  11  15
ATOM     12  C   UNL     1      -0.578   0.365   0.140  0.00  0.00    +0.000 A 
ATOM     13  C   UNL     1       0.519   1.200   0.033  0.00  0.00    +0.000 A 
ATOM     14  C   UNL     1       1.793   0.666  -0.006  0.00  0.00    +0.003 A 
ATOM     15  C   UNL     1       1.971  -0.703   0.063  0.00  0.00    -0.049 A 
ATOM     16  C   UNL     1       0.875  -1.538   0.171  0.00  0.00    +0.003 A 
ATOM     17  C   UNL     1      -0.400  -1.004   0.208  0.00  0.00    +0.000 A 
ENDBRANCH  11  15
ENDBRANCH   2  11
ENDBRANCH   1   4
BRANCH   1  18
ATOM     18  C   UNL     1       6.940  -4.257   2.131  0.00  0.00    -0.060 A 
ATOM     19  C   UNL     1       5.827  -5.024   2.428  0.00  0.00    +0.002 A 
ATOM     20  C   UNL     1       5.678  -6.275   1.866  0.00  0.00    +0.009 A 
ATOM     21  C   UNL     1       6.650  -6.766   0.997  0.00  0.00    -0.014 A 
ATOM     22  C   UNL     1       7.769  -5.989   0.700  0.00  0.00    +0.009 A 
ATOM     23  C   UNL     1       7.905  -4.737   1.264  0.00  0.00    +0.002 A 
BRANCH  21  24
ATOM     24  C   UNL     1       6.495  -8.111   0.390  0.00  0.00    +0.024 A 
ATOM     25  C   UNL     1       6.195  -9.210   1.191  0.00  0.00    +0.012 A 
ATOM     26  C   UNL     1       6.052 -10.459   0.622  0.00  0.00    +0.001 A 
ATOM     27  C   UNL     1       6.206 -10.624  -0.743  0.00  0.00    +0.004 A 
ATOM     28  C   UNL     1       6.505  -9.541  -1.548  0.00  0.00    +0.046 A 
ATOM     29  C   UNL     1       6.645  -8.280  -0.990  0.00  0.00    +0.125 A 
BRANCH  29  30
ATOM     30  O   UNL     1       6.933  -7.213  -1.780  0.00  0.00    -0.506 OA
ATOM     31  H   UNL     1       7.879  -7.054  -1.897  0.00  0.00    +0.292 HD
ENDBRANCH  29  30
ENDBRANCH  21  24
ENDBRANCH   1  18
BRANCH   1  32
ATOM     32  C   UNL     1       7.631  -3.035   4.174  0.00  0.00    +0.100 C 
BRANCH  32  33
ATOM     33  N   UNL     1       8.967  -3.645   4.138  0.00  0.00    -0.205 NA
ATOM     34  H   UNL     1       9.616  -3.065   3.627  0.00  0.00    +0.153 HD
BRANCH  33  35
ATOM     35  O   UNL     1       9.457  -3.915   5.490  0.00  0.00    -0.315 OA
ATOM     36  H   UNL     1      10.336  -4.318   5.517  0.00  0.00    +0.236 HD
ENDBRANCH  33  35
ENDBRANCH  32  33
ENDBRANCH   1  32
TORSDOF 9
