REMARK  Name = ZINC08986125
REMARK  15 active torsions:
REMARK  status: ('A' for Active; 'I' for Inactive)
REMARK    1  A    between atoms: C_1  and  C_2
REMARK    2  A    between atoms: C_2  and  N_66
REMARK    3  A    between atoms: C_3  and  C_4
REMARK    4  A    between atoms: C_3  and  N_66
REMARK    5  A    between atoms: C_5  and  C_6
REMARK    6  A    between atoms: C_5  and  N_66
REMARK    7  A    between atoms: C_6  and  C_7
REMARK    8  A    between atoms: C_7  and  N_8
REMARK    9  A    between atoms: C_9  and  C_24
REMARK   10  A    between atoms: C_12  and  C_13
REMARK   11  A    between atoms: C_12  and  O_19
REMARK   12  A    between atoms: C_16  and  C_18
REMARK   13  A    between atoms: C_27  and  C_30
REMARK   14  A    between atoms: C_30  and  C_31
REMARK   15  A    between atoms: C_30  and  C_32
REMARK                            x       y       z     vdW  Elec       q    Type
REMARK                         _______ _______ _______ _____ _____    ______ ____
ROOT
ATOM      1  N   UNL     1       3.848   3.009  -0.349  0.00  0.00    -0.284 N 
ATOM      2  C   UNL     1       2.747   2.125   0.043  0.00  0.00    +0.145 C 
ATOM      3  C   UNL     1       3.237   0.710  -0.160  0.00  0.00    +0.074 C 
ATOM      4  C   UNL     1       2.529  -0.460   0.077  0.00  0.00    +0.168 C 
ATOM      5  C   UNL     1       4.549   0.815  -0.632  0.00  0.00    +0.249 C 
ATOM      6  O   UNL     1       5.284  -0.116  -0.913  0.00  0.00    -0.282 OA
ATOM      7  C   UNL     1       4.891   2.258  -0.739  0.00  0.00    +0.288 C 
ATOM      8  O   UNL     1       5.958   2.693  -1.124  0.00  0.00    -0.266 OA
ENDROOT
BRANCH   4   9
ATOM      9  C   UNL     1       3.172  -1.715  -0.048  0.00  0.00    +0.170 A 
ATOM     10  C   UNL     1       2.683  -2.817  -0.722  0.00  0.00    +0.053 A 
ATOM     11  C   UNL     1       3.645  -3.828  -0.584  0.00  0.00    +0.045 A 
ATOM     12  C   UNL     1       4.660  -3.317   0.151  0.00  0.00    +0.103 A 
ATOM     13  O   UNL     1       4.375  -2.047   0.466  0.00  0.00    -0.457 OA
ATOM     14  C   UNL     1       5.912  -4.057   0.546  0.00  0.00    +0.086 C 
ENDBRANCH   4   9
BRANCH   2  15
ATOM     15  C   UNL     1       2.392   2.351   1.490  0.00  0.00    -0.022 A 
ATOM     16  C   UNL     1       3.391   2.550   2.424  0.00  0.00    +0.006 A 
ATOM     17  C   UNL     1       3.065   2.762   3.750  0.00  0.00    +0.004 A 
ATOM     18  C   UNL     1       1.740   2.767   4.144  0.00  0.00    -0.045 A 
ATOM     19  C   UNL     1       0.741   2.563   3.211  0.00  0.00    +0.004 A 
ATOM     20  C   UNL     1       1.067   2.355   1.884  0.00  0.00    +0.006 A 
BRANCH  18  21
ATOM     21  C   UNL     1       1.385   2.993   5.591  0.00  0.00    +0.013 C 
ATOM     22  C   UNL     1       2.023   1.899   6.450  0.00  0.00    +0.012 C 
ATOM     23  C   UNL     1       1.908   4.360   6.037  0.00  0.00    +0.012 C 
ENDBRANCH  18  21
ENDBRANCH   2  15
BRANCH   4  24
ATOM     24  O   UNL     1       1.224  -0.401   0.426  0.00  0.00    -0.503 OA
ATOM     25  H   UNL     1       0.872  -1.327   0.557  0.00  0.00    +0.292 HD
ENDBRANCH   4  24
BRANCH   1  26
ATOM     26  C   UNL     1       3.817   4.474  -0.319  0.00  0.00    +0.107 C 
BRANCH  26  27
ATOM     27  C   UNL     1       3.311   5.000  -1.664  0.00  0.00    +0.000 C 
BRANCH  27  28
ATOM     28  C   UNL     1       3.278   6.529  -1.633  0.00  0.00    -0.077 C 
BRANCH  28  29
ATOM     29  N   UNL     1       2.808   7.022  -2.945  0.00  0.00    +0.379 N 
ATOM     30  H   UNL     1       3.370   6.587  -3.686  0.00  0.00    -0.082 HD
BRANCH  29  32
ATOM     31  C   UNL     1       0.517   7.291  -2.055  0.00  0.00    -0.017 C 
ATOM     32  C   UNL     1       1.389   6.659  -3.142  0.00  0.00    -0.082 C 
ENDBRANCH  29  32
BRANCH  29  33
ATOM     33  C   UNL     1       2.969   8.490  -3.020  0.00  0.00    -0.082 C 
ATOM     34  C   UNL     1       2.770   8.933  -4.471  0.00  0.00    -0.017 C 
ENDBRANCH  29  33
ENDBRANCH  28  29
ENDBRANCH  27  28
ENDBRANCH  26  27
ENDBRANCH   1  26
TORSDOF 10
