REMARK  Name = ZINC10049475
REMARK  11 active torsions:
REMARK  status: ('A' for Active; 'I' for Inactive)
REMARK    1  A    between atoms: C_1  and  C_2
REMARK    2  A    between atoms: C_6  and  N_9
REMARK    3  A    between atoms: C_7  and  C_8
REMARK    4  A    between atoms: N_9  and  C_10
REMARK    5  A    between atoms: C_10  and  C_11
REMARK    6  A    between atoms: C_11  and  C_12
REMARK    7  A    between atoms: C_12  and  N_13
REMARK    8  A    between atoms: C_14  and  C_30
REMARK    9  A    between atoms: C_15  and  C_29
REMARK   10  A    between atoms: N_23  and  C_28
REMARK   11  A    between atoms: N_26  and  C_27
REMARK                            x       y       z     vdW  Elec       q    Type
REMARK                         _______ _______ _______ _____ _____    ______ ____
ROOT
ATOM      1  N   UNL     1      -0.964   3.264   6.729  0.00  0.00    -0.314 N 
ATOM      2  C   UNL     1       0.402   3.073   6.818  0.00  0.00    +0.038 A 
ATOM      3  C   UNL     1       0.839   2.647   5.637  0.00  0.00    +0.043 A 
ATOM      4  N   UNL     1      -0.243   2.560   4.777  0.00  0.00    -0.275 N 
ATOM      5  C   UNL     1      -1.351   2.942   5.455  0.00  0.00    +0.218 A 
ATOM      6  N   UNL     1      -2.402   2.867   4.651  0.00  0.00    -0.193 NA
ATOM      7  C   UNL     1      -2.024   2.444   3.448  0.00  0.00    +0.170 A 
ATOM      8  C   UNL     1      -0.646   2.236   3.491  0.00  0.00    +0.157 A 
ATOM      9  C   UNL     1       0.014   1.783   2.337  0.00  0.00    +0.283 A 
ATOM     10  O   UNL     1       1.218   1.594   2.350  0.00  0.00    -0.265 OA
ATOM     11  N   UNL     1      -0.698   1.558   1.213  0.00  0.00    -0.262 N 
ATOM     12  C   UNL     1      -2.026   1.766   1.180  0.00  0.00    +0.333 A 
ATOM     13  O   UNL     1      -2.633   1.557   0.147  0.00  0.00    -0.246 OA
ATOM     14  N   UNL     1      -2.701   2.195   2.264  0.00  0.00    -0.280 N 
ATOM     15  C   UNL     1      -4.149   2.404   2.189  0.00  0.00    +0.155 C 
ATOM     16  C   UNL     1      -0.013   1.086   0.008  0.00  0.00    +0.157 C 
ATOM     17  C   UNL     1       2.267   2.314   5.292  0.00  0.00    +0.066 C 
ATOM     18  C   UNL     1       1.249   3.308   8.042  0.00  0.00    +0.065 C 
ENDROOT
BRANCH   1  19
ATOM     19  C   UNL     1      -1.842   3.730   7.805  0.00  0.00    +0.126 C 
BRANCH  19  20
ATOM     20  C   UNL     1      -1.930   5.257   7.768  0.00  0.00    +0.040 C 
BRANCH  20  21
ATOM     21  C   UNL     1      -2.847   5.743   8.892  0.00  0.00    +0.103 C 
BRANCH  21  22
ATOM     22  N   UNL     1      -2.931   7.205   8.856  0.00  0.00    -0.344 N 
ATOM     23  H   UNL     1      -2.442   7.702   8.182  0.00  0.00    +0.146 HD
BRANCH  22  29
ATOM     24  C   UNL     1      -4.661  11.440  10.652  0.00  0.00    +0.044 C 
ATOM     25  C   UNL     1      -4.572   9.936  10.687  0.00  0.00    -0.046 A 
ATOM     26  C   UNL     1      -5.269   9.225  11.647  0.00  0.00    +0.004 A 
ATOM     27  C   UNL     1      -5.191   7.845  11.682  0.00  0.00    +0.002 A 
ATOM     28  C   UNL     1      -4.417   7.172  10.757  0.00  0.00    +0.023 A 
ATOM     29  C   UNL     1      -3.716   7.883   9.792  0.00  0.00    +0.030 A 
ATOM     30  C   UNL     1      -3.792   9.269   9.763  0.00  0.00    -0.027 A 
ATOM     31  C   UNL     1      -3.028  10.045   8.721  0.00  0.00    +0.046 C 
ENDBRANCH  22  29
ENDBRANCH  21  22
ENDBRANCH  20  21
ENDBRANCH  19  20
ENDBRANCH   1  19
TORSDOF 5
