REMARK  Name = ZINC52252554
REMARK  10 active torsions:
REMARK  status: ('A' for Active; 'I' for Inactive)
REMARK    1  A    between atoms: C_1  and  C_2
REMARK    2  A    between atoms: C_2  and  C_3
REMARK    3  A    between atoms: C_2  and  C_4
REMARK    4  A    between atoms: C_4  and  C_6
REMARK    5  A    between atoms: C_4  and  C_10
REMARK    6  A    between atoms: C_6  and  O_8
REMARK    7  A    between atoms: O_8  and  C_9
REMARK    8  A    between atoms: C_10  and  C_11
REMARK    9  A    between atoms: C_10  and  C_12
REMARK   10  A    between atoms: C_10  and  O_22
REMARK                            x       y       z     vdW  Elec       q    Type
REMARK                         _______ _______ _______ _____ _____    ______ ____
ROOT
ATOM      1  C   UNL     1      -0.194  -0.805   2.354  0.00  0.00    +0.133 C 
ATOM      2  C   UNL     1      -1.414  -1.693   2.101  0.00  0.00    +0.050 C 
ENDROOT
BRANCH   1   3
ATOM      3  C   UNL     1      -0.632   0.634   2.447  0.00  0.00    +0.138 A 
ATOM      4  C   UNL     1      -0.939   1.271   3.585  0.00  0.00    +0.056 A 
ATOM      5  C   UNL     1      -1.305   2.640   3.202  0.00  0.00    +0.022 A 
ATOM      6  C   UNL     1      -1.714   3.772   3.906  0.00  0.00    +0.027 A 
ATOM      7  C   UNL     1      -1.988   4.936   3.221  0.00  0.00    +0.019 A 
ATOM      8  C   UNL     1      -1.859   4.982   1.840  0.00  0.00    +0.019 A 
ATOM      9  C   UNL     1      -1.456   3.870   1.133  0.00  0.00    +0.048 A 
ATOM     10  C   UNL     1      -1.174   2.687   1.804  0.00  0.00    +0.135 A 
ATOM     11  O   UNL     1      -0.765   1.467   1.400  0.00  0.00    -0.457 OA
ATOM     12 BR   UNL     1      -2.543   6.477   4.167  0.00  0.00    -0.050 Br
ENDBRANCH   1   3
BRANCH   1  13
ATOM     13  O   UNL     1       0.431  -1.192   3.580  0.00  0.00    -0.380 OA
ATOM     14  H   UNL     1       1.093  -0.564   3.899  0.00  0.00    +0.211 HD
ENDBRANCH   1  13
BRANCH   1  15
ATOM     15  C   UNL     1       0.800  -0.963   1.202  0.00  0.00    +0.139 C 
BRANCH  15  17
ATOM     16  C   UNL     1       2.562   0.131   2.595  0.00  0.00    +0.008 C 
ATOM     17  C   UNL     1       1.825   0.171   1.254  0.00  0.00    -0.000 C 
ATOM     18  C   UNL     1       2.831   0.002   0.114  0.00  0.00    +0.008 C 
ENDBRANCH  15  17
BRANCH  15  19
ATOM     19  C   UNL     1       0.060  -0.912  -0.110  0.00  0.00    +0.313 C 
ATOM     20  O   UNL     1      -0.965  -0.278  -0.201  0.00  0.00    -0.250 OA
BRANCH  19  21
ATOM     21  O   UNL     1       0.539  -1.570  -1.177  0.00  0.00    -0.468 OA
ATOM     22  C   UNL     1      -0.213  -1.477  -2.388  0.00  0.00    +0.280 C 
ENDBRANCH  19  21
ENDBRANCH  15  19
ENDBRANCH   1  15
TORSDOF 6
