REMARK  Name = ZINC36206918
REMARK  15 active torsions:
REMARK  status: ('A' for Active; 'I' for Inactive)
REMARK    1  A    between atoms: C_1  and  C_2
REMARK    2  A    between atoms: C_8  and  C_17
REMARK    3  A    between atoms: C_12  and  C_13
REMARK    4  A    between atoms: C_13  and  O_15
REMARK    5  A    between atoms: O_15  and  C_16
REMARK    6  A    between atoms: C_17  and  N_18
REMARK    7  A    between atoms: N_18  and  C_19
REMARK    8  A    between atoms: N_18  and  C_25
REMARK    9  A    between atoms: C_19  and  C_20
REMARK   10  A    between atoms: C_25  and  C_26
REMARK   11  A    between atoms: C_26  and  C_28
REMARK   12  A    between atoms: C_26  and  O_37
REMARK   13  A    between atoms: C_28  and  O_29
REMARK   14  A    between atoms: O_29  and  C_30
REMARK   15  A    between atoms: C_30  and  C_31
REMARK                            x       y       z     vdW  Elec       q    Type
REMARK                         _______ _______ _______ _____ _____    ______ ____
ROOT
ATOM      1  N   UNL     1       0.170  -4.978  -3.852  0.00  0.00    +0.391 N 
ATOM      2  H   UNL     1       0.953  -5.266  -3.284  0.00  0.00    -0.080 HD
ENDROOT
BRANCH   1   3
ATOM      3  C   UNL     1       0.262  -3.535  -4.115  0.00  0.00    -0.003 C 
BRANCH   3  11
ATOM      4  C   UNL     1       0.976   0.506   1.122  0.00  0.00    +0.046 C 
ATOM      5  C   UNL     1       0.844  -0.977   0.890  0.00  0.00    -0.015 A 
ATOM      6  C   UNL     1       0.706  -1.473  -0.408  0.00  0.00    +0.076 A 
ATOM      7  C   UNL     1       0.664  -0.736  -1.692  0.00  0.00    +0.260 A 
ATOM      8  O   UNL     1       0.756   0.478  -1.719  0.00  0.00    -0.267 OA
ATOM      9  N   UNL     1       0.522  -1.444  -2.829  0.00  0.00    -0.312 N 
ATOM     10  H   UNL     1       0.493  -0.977  -3.679  0.00  0.00    +0.170 HD
ATOM     11  C   UNL     1       0.419  -2.796  -2.811  0.00  0.00    +0.094 A 
ATOM     12  N   UNL     1       0.452  -3.476  -1.697  0.00  0.00    -0.229 NA
ATOM     13  C   UNL     1       0.589  -2.877  -0.521  0.00  0.00    +0.116 A 
ATOM     14  S   UNL     1       0.675  -3.431   1.164  0.00  0.00    -0.062 S 
ATOM     15  C   UNL     1       0.865  -1.839   1.948  0.00  0.00    +0.102 A 
BRANCH  15  16
ATOM     16  C   UNL     1       1.005  -1.533   3.374  0.00  0.00    +0.346 C 
ATOM     17  O   UNL     1       1.123  -0.379   3.739  0.00  0.00    -0.244 OA
BRANCH  16  18
ATOM     18  O   UNL     1       1.003  -2.532   4.281  0.00  0.00    -0.464 OA
ATOM     19  C   UNL     1       1.144  -2.161   5.654  0.00  0.00    +0.280 C 
ENDBRANCH  16  18
ENDBRANCH  15  16
ENDBRANCH   3  11
ENDBRANCH   1   3
BRANCH   1  20
ATOM     20  C   UNL     1      -1.083  -5.268  -3.143  0.00  0.00    -0.002 C 
BRANCH  20  21
ATOM     21  C   UNL     1      -1.130  -6.731  -2.784  0.00  0.00    +0.089 A 
ATOM     22  C   UNL     1      -0.581  -7.290  -1.691  0.00  0.00    +0.042 A 
ATOM     23  C   UNL     1      -0.864  -8.674  -1.754  0.00  0.00    +0.041 A 
ATOM     24  C   UNL     1      -1.569  -8.877  -2.881  0.00  0.00    +0.195 A 
ATOM     25  O   UNL     1      -1.732  -7.696  -3.498  0.00  0.00    -0.470 OA
ENDBRANCH  20  21
ENDBRANCH   1  20
BRANCH   1  26
ATOM     26  C   UNL     1       0.194  -5.710  -5.125  0.00  0.00    -0.044 C 
BRANCH  26  27
ATOM     27  C   UNL     1       1.576  -5.574  -5.766  0.00  0.00    +0.124 C 
BRANCH  27  28
ATOM     28  O   UNL     1       1.758  -4.234  -6.228  0.00  0.00    -0.391 OA
ATOM     29  H   UNL     1       1.109  -3.954  -6.888  0.00  0.00    +0.210 HD
ENDBRANCH  27  28
BRANCH  27  30
ATOM     30  C   UNL     1       1.688  -6.540  -6.947  0.00  0.00    +0.189 C 
BRANCH  30  31
ATOM     31  O   UNL     1       3.016  -6.499  -7.473  0.00  0.00    -0.373 OA
BRANCH  31  32
ATOM     32  C   UNL     1       3.228  -7.369  -8.586  0.00  0.00    +0.195 C 
BRANCH  32  33
ATOM     33  C   UNL     1       4.654  -7.245  -9.057  0.00  0.00    -0.022 A 
ATOM     34  C   UNL     1       4.986  -6.306 -10.017  0.00  0.00    +0.006 A 
ATOM     35  C   UNL     1       6.294  -6.192 -10.449  0.00  0.00    +0.000 A 
ATOM     36  C   UNL     1       7.270  -7.015  -9.921  0.00  0.00    +0.000 A 
ATOM     37  C   UNL     1       6.939  -7.953  -8.960  0.00  0.00    +0.000 A 
ATOM     38  C   UNL     1       5.632  -8.064  -8.525  0.00  0.00    +0.006 A 
ENDBRANCH  32  33
ENDBRANCH  31  32
ENDBRANCH  30  31
ENDBRANCH  27  30
ENDBRANCH  26  27
ENDBRANCH   1  26
TORSDOF 13
