REMARK  Name = ZINC39918690
REMARK  7 active torsions:
REMARK  status: ('A' for Active; 'I' for Inactive)
REMARK    1  A    between atoms: C_1  and  C_2
REMARK    2  A    between atoms: N_8  and  C_9
REMARK    3  A    between atoms: C_9  and  C_10
REMARK    4  A    between atoms: N_23  and  C_26
REMARK    5  A    between atoms: C_26  and  C_27
REMARK    6  A    between atoms: C_29  and  C_33
REMARK    7  A    between atoms: C_30  and  N_32
REMARK                            x       y       z     vdW  Elec       q    Type
REMARK                         _______ _______ _______ _____ _____    ______ ____
ROOT
ATOM      1  C   UNL     1      -0.168   1.476   0.015  0.00  0.00    +0.064 C 
ATOM      2  C   UNL     1      -0.068  -0.027   0.011  0.00  0.00    +0.023 A 
ATOM      3  C   UNL     1      -0.167  -0.698  -1.157  0.00  0.00    +0.068 A 
ATOM      4  C   UNL     1      -0.074  -2.105  -1.168  0.00  0.00    +0.142 A 
ATOM      5  C   UNL     1       0.121  -2.770   0.025  0.00  0.00    +0.084 A 
ATOM      6  C   UNL     1       0.218  -2.032   1.212  0.00  0.00    +0.260 A 
ATOM      7  O   UNL     1       0.391  -2.607   2.275  0.00  0.00    -0.267 OA
ATOM      8  N   UNL     1       0.127  -0.690   1.181  0.00  0.00    -0.308 N 
ATOM      9  C   UNL     1       0.230  -4.268   0.056  0.00  0.00    +0.147 C 
ATOM     10  C   UNL     1      -0.993  -4.880   0.666  0.00  0.00    -0.001 A 
ATOM     11  C   UNL     1      -2.316  -4.852   0.281  0.00  0.00    +0.007 A 
ATOM     12  C   UNL     1      -3.221  -5.538   1.085  0.00  0.00    +0.000 A 
ATOM     13  C   UNL     1      -2.809  -6.215   2.215  0.00  0.00    +0.002 A 
ATOM     14  C   UNL     1      -1.480  -6.247   2.608  0.00  0.00    +0.024 A 
ATOM     15  C   UNL     1      -0.562  -5.562   1.810  0.00  0.00    +0.041 A 
ATOM     16  N   UNL     1       0.806  -5.428   1.963  0.00  0.00    -0.266 N 
ATOM     17  C   UNL     1       1.355  -4.684   0.981  0.00  0.00    +0.241 C 
ATOM     18  O   UNL     1       2.529  -4.402   0.861  0.00  0.00    -0.274 OA
ATOM     19  C   UNL     1       0.473  -4.810  -1.322  0.00  0.00    +0.110 C 
ATOM     20  C   UNL     1       0.261  -4.046  -2.421  0.00  0.00    +0.199 C 
ATOM     21  O   UNL     1      -0.176  -2.779  -2.333  0.00  0.00    -0.441 OA
ENDROOT
BRANCH  20  22
ATOM     22  N   UNL     1       0.500  -4.583  -3.662  0.00  0.00    -0.328 N 
ATOM     23  H   UNL     1       0.816  -5.497  -3.742  0.00  0.00    +0.145 HD
ATOM     24  H   UNL     1       0.353  -4.049  -4.458  0.00  0.00    +0.145 HD
ENDBRANCH  20  22
BRANCH  19  25
ATOM     25  C   UNL     1       0.938  -6.156  -1.478  0.00  0.00    +0.102 C 
ATOM     26  N   UNL     1       1.306  -7.223  -1.602  0.00  0.00    -0.191 NA
ENDBRANCH  19  25
BRANCH   8  27
ATOM     27  C   UNL     1       0.234   0.069   2.430  0.00  0.00    +0.160 C 
BRANCH  27  28
ATOM     28  C   UNL     1       1.672   0.455   2.662  0.00  0.00    -0.028 A 
ATOM     29  C   UNL     1       2.538  -0.437   3.267  0.00  0.00    +0.005 A 
ATOM     30  C   UNL     1       3.857  -0.083   3.480  0.00  0.00    +0.000 A 
ATOM     31  C   UNL     1       4.311   1.162   3.087  0.00  0.00    +0.000 A 
ATOM     32  C   UNL     1       3.446   2.054   2.481  0.00  0.00    +0.000 A 
ATOM     33  C   UNL     1       2.127   1.698   2.264  0.00  0.00    +0.005 A 
ENDBRANCH  27  28
ENDBRANCH   8  27
BRANCH  16  34
ATOM     34  C   UNL     1       1.569  -6.025   3.062  0.00  0.00    +0.140 C 
BRANCH  34  35
ATOM     35  C   UNL     1       2.033  -7.402   2.663  0.00  0.00    -0.015 C 
ATOM     36  C   UNL     1       3.305  -7.708   2.722  0.00  0.00    +0.005 C 
ENDBRANCH  34  35
ENDBRANCH  16  34
TORSDOF 6
