REMARK  Name = ZINC20467644
REMARK  5 active torsions:
REMARK  status: ('A' for Active; 'I' for Inactive)
REMARK    1  A    between atoms: C_1  and  C_2
REMARK    2  A    between atoms: C_8  and  N_10
REMARK    3  A    between atoms: N_10  and  S_11
REMARK    4  A    between atoms: S_11  and  C_14
REMARK    5  A    between atoms: C_19  and  N_20
REMARK                            x       y       z     vdW  Elec       q    Type
REMARK                         _______ _______ _______ _____ _____    ______ ____
ROOT
ATOM      1  S   UNL     1      -1.569   2.172  -0.015  0.00  0.00    +0.062 S 
ATOM      2  O   UNL     1      -2.417   1.521   0.922  0.00  0.00    -0.153 OA
ATOM      3  O   UNL     1      -1.124   3.510   0.162  0.00  0.00    -0.153 OA
ENDROOT
BRANCH   1   4
ATOM      4  C   UNL     1      -0.124   1.176  -0.164  0.00  0.00    +0.146 A 
ATOM      5  C   UNL     1       0.018   0.029   0.596  0.00  0.00    +0.048 A 
ATOM      6  C   UNL     1       1.177  -0.723   0.450  0.00  0.00    +0.038 A 
ATOM      7  C   UNL     1       2.146  -0.306  -0.441  0.00  0.00    +0.128 A 
ATOM      8  N   UNL     1       1.983   0.793  -1.152  0.00  0.00    -0.238 NA
ATOM      9  C   UNL     1       0.893   1.536  -1.042  0.00  0.00    +0.143 A 
ATOM     10 BR   UNL     1       1.425  -2.301   1.463  0.00  0.00    -0.049 Br
BRANCH   9  11
ATOM     11  N   UNL     1       0.763   2.687  -1.811  0.00  0.00    -0.342 N 
ATOM     12  H   UNL     1       1.564   2.977  -2.507  0.00  0.00    +0.144 HD
ATOM     13  H   UNL     1      -0.141   3.308  -1.724  0.00  0.00    +0.144 HD
ENDBRANCH   9  11
ENDBRANCH   1   4
BRANCH   1  14
ATOM     14  N   UNL     1      -2.351   2.122  -1.474  0.00  0.00    -0.187 NA
ATOM     15  H   UNL     1      -2.300   2.995  -2.141  0.00  0.00    +0.148 HD
BRANCH  14  22
ATOM     16  C   UNL     1      -5.217   1.804  -1.745  0.00  0.00    +0.009 C 
ATOM     17  C   UNL     1      -4.224   1.137  -2.700  0.00  0.00    +0.005 C 
ATOM     18  C   UNL     1      -3.954   2.066  -3.885  0.00  0.00    +0.005 C 
ATOM     19  C   UNL     1      -2.962   1.400  -4.840  0.00  0.00    +0.000 C 
ATOM     20  C   UNL     1      -1.651   1.123  -4.101  0.00  0.00    +0.002 C 
ATOM     21  C   UNL     1      -1.921   0.194  -2.915  0.00  0.00    +0.020 C 
ATOM     22  C   UNL     1      -2.913   0.860  -1.961  0.00  0.00    +0.079 C 
ENDBRANCH  14  22
ENDBRANCH   1  14
TORSDOF 4
