REMARK  Name = ZINC65080676
REMARK  7 active torsions:
REMARK  status: ('A' for Active; 'I' for Inactive)
REMARK    1  A    between atoms: C_1  and  C_2
REMARK    2  A    between atoms: C_2  and  C_3
REMARK    3  A    between atoms: C_3  and  C_5
REMARK    4  A    between atoms: C_3  and  N_6
REMARK    5  A    between atoms: C_7  and  C_9
REMARK    6  A    between atoms: C_21  and  C_31
REMARK    7  A    between atoms: N_23  and  C_24
REMARK                            x       y       z     vdW  Elec       q    Type
REMARK                         _______ _______ _______ _____ _____    ______ ____
ROOT
ATOM      1  C   UNL     1      -0.234   0.422  -4.849  0.00  0.00    +0.092 C 
ATOM      2  C   UNL     1       0.697   0.512  -6.060  0.00  0.00    +0.016 C 
ATOM      3  C   UNL     1      -0.104   0.944  -7.290  0.00  0.00    +0.020 C 
ATOM      4  C   UNL     1      -1.183  -0.102  -7.586  0.00  0.00    +0.107 C 
ATOM      5  N   UNL     1      -1.994  -0.299  -6.377  0.00  0.00    -0.309 N 
ATOM      6  C   UNL     1      -1.315  -0.629  -5.116  0.00  0.00    +0.119 C 
ATOM      7  C   UNL     1      -3.370  -0.177  -6.424  0.00  0.00    +0.164 A 
ATOM      8  N   UNL     1      -4.144   0.105  -7.452  0.00  0.00    -0.205 NA
ATOM      9  C   UNL     1      -5.475   0.191  -7.345  0.00  0.00    +0.173 A 
ATOM     10  C   UNL     1      -6.015  -0.035  -6.075  0.00  0.00    +0.082 A 
ATOM     11  S   UNL     1      -4.564  -0.368  -5.107  0.00  0.00    -0.049 S 
ATOM     12  C   UNL     1      -7.393   0.090  -6.136  0.00  0.00    +0.076 A 
ATOM     13  N   UNL     1      -7.729   0.378  -7.367  0.00  0.00    -0.169 NA
ATOM     14  N   UNL     1      -6.574   0.451  -8.151  0.00  0.00    -0.213 N 
ATOM     15  C   UNL     1      -8.345  -0.079  -4.979  0.00  0.00    +0.069 C 
ENDROOT
BRANCH  14  16
ATOM     16  C   UNL     1      -6.533   0.740  -9.522  0.00  0.00    +0.068 A 
ATOM     17  C   UNL     1      -5.474   1.468 -10.047  0.00  0.00    +0.029 A 
ATOM     18  C   UNL     1      -5.436   1.751 -11.399  0.00  0.00    +0.022 A 
ATOM     19  C   UNL     1      -6.452   1.308 -12.229  0.00  0.00    +0.041 A 
ATOM     20  C   UNL     1      -7.508   0.583 -11.707  0.00  0.00    +0.022 A 
ATOM     21  C   UNL     1      -7.548   0.292 -10.357  0.00  0.00    +0.029 A 
ATOM     22 CL   UNL     1      -6.400   1.665 -13.927  0.00  0.00    -0.084 Cl
ENDBRANCH  14  16
BRANCH   1  24
ATOM     23  N   UNL     1      -0.055  -0.114  -2.441  0.00  0.00    -0.312 N 
ATOM     24  C   UNL     1       0.561   0.028  -3.631  0.00  0.00    +0.218 C 
ATOM     25  O   UNL     1       1.755  -0.162  -3.722  0.00  0.00    -0.275 OA
ATOM     26  H   UNL     1      -1.010   0.038  -2.368  0.00  0.00    +0.149 HD
BRANCH  23  27
ATOM     27  C   UNL     1       0.718  -0.497  -1.257  0.00  0.00    +0.070 C 
ATOM     28  C   UNL     1       0.849  -2.021  -1.205  0.00  0.00    +0.028 C 
BRANCH  27  30
ATOM     29  C   UNL     1      -0.019   1.526   0.010  0.00  0.00    +0.005 C 
ATOM     30  C   UNL     1       0.002  -0.004   0.002  0.00  0.00    +0.018 C 
ENDBRANCH  27  30
ENDBRANCH  23  27
ENDBRANCH   1  24
TORSDOF 4
