REMARK  Name = ZINC35014164
REMARK  7 active torsions:
REMARK  status: ('A' for Active; 'I' for Inactive)
REMARK    1  A    between atoms: C_1  and  C_2
REMARK    2  A    between atoms: C_2  and  C_3
REMARK    3  A    between atoms: C_2  and  C_4
REMARK    4  A    between atoms: C_4  and  C_6
REMARK    5  A    between atoms: C_4  and  N_11
REMARK    6  A    between atoms: N_11  and  C_12
REMARK    7  A    between atoms: C_17  and  N_18
REMARK                            x       y       z     vdW  Elec       q    Type
REMARK                         _______ _______ _______ _____ _____    ______ ____
ROOT
ATOM      1  N   UNL     1      -2.164   0.108   1.105  0.00  0.00    -0.334 N 
ATOM      2  H   UNL     1      -1.949   1.020   1.359  0.00  0.00    +0.147 HD
ENDROOT
BRANCH   1   3
ATOM      3  C   UNL     1      -3.226  -0.558   1.726  0.00  0.00    +0.058 A 
ATOM      4  C   UNL     1      -3.620  -1.810   1.273  0.00  0.00    +0.028 A 
ATOM      5  C   UNL     1      -4.669  -2.466   1.887  0.00  0.00    +0.040 A 
ATOM      6  C   UNL     1      -5.327  -1.876   2.954  0.00  0.00    +0.126 A 
ATOM      7  C   UNL     1      -4.935  -0.628   3.406  0.00  0.00    +0.073 A 
ATOM      8  C   UNL     1      -3.883   0.029   2.799  0.00  0.00    +0.150 A 
ATOM      9  F   UNL     1      -6.352  -2.520   3.553  0.00  0.00    -0.205 F 
BRANCH   8  10
ATOM     10  N   UNL     1      -3.461   1.361   3.287  0.00  0.00    +0.058 N 
ATOM     11  O   UNL     1      -3.961   1.826   4.285  0.00  0.00    -0.126 OA
ATOM     12  O   UNL     1      -2.617   1.985   2.687  0.00  0.00    -0.126 OA
ENDBRANCH   8  10
ENDBRANCH   1   3
BRANCH   1  13
ATOM     13  C   UNL     1      -1.378  -0.570   0.072  0.00  0.00    +0.110 C 
BRANCH  13  14
ATOM     14  C   UNL     1      -2.013  -0.339  -1.275  0.00  0.00    +0.010 A 
ATOM     15  C   UNL     1      -2.172  -1.207  -2.304  0.00  0.00    +0.013 A 
ATOM     16  C   UNL     1      -2.792  -0.771  -3.459  0.00  0.00    +0.008 A 
ATOM     17  C   UNL     1      -3.222   0.512  -3.530  0.00  0.00    +0.045 A 
ATOM     18  S   UNL     1      -2.757   1.147  -1.928  0.00  0.00    -0.100 S 
ENDBRANCH  13  14
BRANCH  13  20
ATOM     19  C   UNL     1      -0.000   1.504  -0.137  0.00  0.00    +0.009 C 
ATOM     20  C   UNL     1       0.047  -0.011   0.067  0.00  0.00    +0.008 C 
ATOM     21  C   UNL     1       0.723  -0.325   1.403  0.00  0.00    +0.009 C 
ENDBRANCH  13  20
ENDBRANCH   1  13
TORSDOF 5
