REMARK  Name = ZINC63514974
REMARK  12 active torsions:
REMARK  status: ('A' for Active; 'I' for Inactive)
REMARK    1  A    between atoms: C_1  and  C_2
REMARK    2  A    between atoms: C_4  and  C_17
REMARK    3  A    between atoms: C_7  and  O_12
REMARK    4  A    between atoms: O_12  and  C_13
REMARK    5  A    between atoms: C_17  and  C_18
REMARK    6  A    between atoms: C_18  and  N_19
REMARK    7  A    between atoms: C_20  and  C_22
REMARK    8  A    between atoms: C_28  and  C_30
REMARK    9  A    between atoms: C_30  and  O_32
REMARK   10  A    between atoms: O_32  and  C_33
REMARK   11  A    between atoms: C_33  and  C_34
REMARK   12  A    between atoms: C_33  and  C_35
REMARK                            x       y       z     vdW  Elec       q    Type
REMARK                         _______ _______ _______ _____ _____    ______ ____
ROOT
ATOM      1  C   UNL     1       0.049  -0.862  -2.683  0.00  0.00    +0.052 C 
ENDROOT
BRANCH   1   4
ATOM      2  C   UNL     1      -0.834   0.603   0.070  0.00  0.00    +0.035 C 
ATOM      3  C   UNL     1      -0.442  -0.872  -0.026  0.00  0.00    +0.103 C 
ATOM      4  C   UNL     1       0.426  -1.102  -1.244  0.00  0.00    -0.037 C 
ATOM      5  C   UNL     1       1.607  -1.567  -0.780  0.00  0.00    +0.003 A 
ATOM      6  C   UNL     1       2.849  -1.973  -1.448  0.00  0.00    +0.056 A 
ATOM      7  C   UNL     1       3.894  -2.409  -0.705  0.00  0.00    +0.129 A 
ATOM      8  C   UNL     1       3.837  -2.488   0.698  0.00  0.00    +0.048 A 
ATOM      9  C   UNL     1       2.740  -2.137   1.401  0.00  0.00    +0.029 A 
ATOM     10  C   UNL     1       1.548  -1.652   0.698  0.00  0.00    +0.043 A 
ATOM     11  N   UNL     1       0.376  -1.255   1.130  0.00  0.00    -0.378 N 
ATOM     12  H   UNL     1       0.096  -1.219   2.058  0.00  0.00    +0.160 HD
BRANCH   7  13
ATOM     13  O   UNL     1       5.038  -2.782  -1.337  0.00  0.00    -0.420 OA
BRANCH  13  14
ATOM     14  C   UNL     1       6.116  -3.235  -0.515  0.00  0.00    +0.489 C 
ATOM     15  F   UNL     1       6.489  -2.215   0.368  0.00  0.00    -0.149 F 
ATOM     16  F   UNL     1       5.707  -4.356   0.214  0.00  0.00    -0.149 F 
ATOM     17 CL   UNL     1       7.522  -3.674  -1.555  0.00  0.00    +0.000 Cl
ENDBRANCH  13  14
ENDBRANCH   7  13
ENDBRANCH   1   4
BRANCH   1  18
ATOM     18  C   UNL     1       1.228  -1.228  -3.587  0.00  0.00    +0.108 C 
BRANCH  18  19
ATOM     19  N   UNL     1       0.861  -0.995  -4.986  0.00  0.00    -0.315 N 
ATOM     20  C   UNL     1       1.750  -1.249  -5.967  0.00  0.00    +0.217 C 
ATOM     21  O   UNL     1       2.853  -1.671  -5.691  0.00  0.00    -0.275 OA
ATOM     22  H   UNL     1      -0.021  -0.657  -5.207  0.00  0.00    +0.149 HD
BRANCH  20  23
ATOM     23  C   UNL     1       1.373  -1.009  -7.406  0.00  0.00    +0.093 C 
ATOM     24  C   UNL     1       1.952  -2.123  -8.282  0.00  0.00    +0.040 C 
ATOM     25  C   UNL     1       3.445  -1.992  -8.364  0.00  0.00    -0.030 C 
ATOM     26  C   UNL     1       4.097  -0.918  -8.054  0.00  0.00    -0.030 C 
ATOM     27  C   UNL     1       3.453   0.344  -7.560  0.00  0.00    +0.042 C 
ATOM     28  C   UNL     1       1.951   0.332  -7.874  0.00  0.00    +0.114 C 
BRANCH  28  29
ATOM     29  C   UNL     1       1.265   1.460  -7.147  0.00  0.00    +0.311 C 
ATOM     30  O   UNL     1       0.402   1.220  -6.337  0.00  0.00    -0.250 OA
BRANCH  29  31
ATOM     31  O   UNL     1       1.614   2.732  -7.400  0.00  0.00    -0.462 OA
BRANCH  31  32
ATOM     32  C   UNL     1       0.922   3.751  -6.675  0.00  0.00    +0.170 C 
ATOM     33  C   UNL     1       1.845   4.955  -6.482  0.00  0.00    +0.052 C 
ATOM     34  C   UNL     1      -0.320   4.180  -7.458  0.00  0.00    +0.052 C 
ENDBRANCH  31  32
ENDBRANCH  29  31
ENDBRANCH  28  29
ENDBRANCH  20  23
ENDBRANCH  18  19
ENDBRANCH   1  18
TORSDOF 9
