REMARK  Name = ZINC02479476
REMARK  7 active torsions:
REMARK  status: ('A' for Active; 'I' for Inactive)
REMARK    1  A    between atoms: C_1  and  C_2
REMARK    2  A    between atoms: C_4  and  C_29
REMARK    3  A    between atoms: C_13  and  S_16
REMARK    4  A    between atoms: S_16  and  C_17
REMARK    5  A    between atoms: C_17  and  C_18
REMARK    6  A    between atoms: N_20  and  C_21
REMARK    7  A    between atoms: C_21  and  C_22
REMARK                            x       y       z     vdW  Elec       q    Type
REMARK                         _______ _______ _______ _____ _____    ______ ____
ROOT
ATOM      1  C   UNL     1       1.313   0.166 -10.590  0.00  0.00    +0.044 C 
ATOM      2  C   UNL     1       1.051   0.346  -9.117  0.00  0.00    -0.048 A 
ATOM      3  C   UNL     1      -0.039   1.095  -8.699  0.00  0.00    +0.007 A 
ATOM      4  C   UNL     1      -0.288   1.267  -7.355  0.00  0.00    -0.039 A 
ATOM      5  C   UNL     1       0.560   0.686  -6.413  0.00  0.00    +0.030 A 
ATOM      6  C   UNL     1       1.663  -0.073  -6.835  0.00  0.00    +0.051 A 
ATOM      7  C   UNL     1       1.898  -0.234  -8.197  0.00  0.00    +0.029 A 
ATOM      8  N   UNL     1       2.333  -0.532  -5.715  0.00  0.00    -0.336 N 
ATOM      9  H   UNL     1       3.132  -1.081  -5.734  0.00  0.00    +0.167 HD
ATOM     10  C   UNL     1       1.701  -0.097  -4.567  0.00  0.00    +0.180 A 
ATOM     11  C   UNL     1       0.582   0.671  -4.942  0.00  0.00    +0.120 A 
ATOM     12  N   UNL     1      -0.186   1.200  -3.997  0.00  0.00    -0.217 NA
ATOM     13  C   UNL     1       0.122   0.990  -2.724  0.00  0.00    +0.210 A 
ATOM     14  N   UNL     1       1.185   0.267  -2.389  0.00  0.00    -0.120 NA
ATOM     15  N   UNL     1       1.951  -0.267  -3.275  0.00  0.00    -0.127 NA
ATOM     16  C   UNL     1      -1.473   2.081  -6.905  0.00  0.00    +0.044 C 
ENDROOT
BRANCH  13  17
ATOM     17  S   UNL     1      -0.888   1.685  -1.458  0.00  0.00    -0.075 S 
BRANCH  17  18
ATOM     18  C   UNL     1      -0.013   1.086   0.008  0.00  0.00    +0.173 C 
BRANCH  18  19
ATOM     19  C   UNL     1      -0.718   1.572   1.248  0.00  0.00    +0.224 C 
ATOM     20  O   UNL     1      -1.714   2.256   1.150  0.00  0.00    -0.275 OA
ATOM     21  N   UNL     1      -0.242   1.246   2.466  0.00  0.00    -0.311 N 
ATOM     22  H   UNL     1       0.555   0.699   2.544  0.00  0.00    +0.149 HD
BRANCH  21  23
ATOM     23  C   UNL     1      -0.927   1.718   3.671  0.00  0.00    +0.139 C 
BRANCH  23  24
ATOM     24  C   UNL     1      -0.198   1.219   4.892  0.00  0.00    -0.029 A 
ATOM     25  C   UNL     1      -0.546   0.006   5.457  0.00  0.00    +0.005 A 
ATOM     26  C   UNL     1       0.125  -0.455   6.573  0.00  0.00    +0.002 A 
ATOM     27  C   UNL     1       1.138   0.302   7.133  0.00  0.00    +0.020 A 
ATOM     28  C   UNL     1       1.482   1.519   6.572  0.00  0.00    +0.041 A 
ATOM     29  C   UNL     1       0.813   1.977   5.450  0.00  0.00    +0.025 A 
ATOM     30 CL   UNL     1       2.753   2.470   7.274  0.00  0.00    -0.084 Cl
ENDBRANCH  23  24
ENDBRANCH  21  23
ENDBRANCH  18  19
ENDBRANCH  17  18
ENDBRANCH  13  17
TORSDOF 5
