REMARK  Name = ZINC52565467
REMARK  7 active torsions:
REMARK  status: ('A' for Active; 'I' for Inactive)
REMARK    1  A    between atoms: C_1  and  O_2
REMARK    2  A    between atoms: O_2  and  C_3
REMARK    3  A    between atoms: C_6  and  C_9
REMARK    4  A    between atoms: C_9  and  C_11
REMARK    5  A    between atoms: C_14  and  C_16
REMARK    6  A    between atoms: C_16  and  N_17
REMARK    7  A    between atoms: C_20  and  C_23
REMARK                            x       y       z     vdW  Elec       q    Type
REMARK                         _______ _______ _______ _____ _____    ______ ____
ROOT
ATOM      1  N   UNL     1       5.469  -6.364  -5.358  0.00  0.00    +0.382 N 
ATOM      2  C   UNL     1       5.998  -7.618  -4.798  0.00  0.00    -0.074 C 
ATOM      3  C   UNL     1       7.078  -8.157  -5.740  0.00  0.00    +0.016 C 
ATOM      4  C   UNL     1       8.059  -7.063  -6.060  0.00  0.00    -0.049 C 
ATOM      5  C   UNL     1       7.788  -5.779  -5.832  0.00  0.00    -0.042 C 
ATOM      6  C   UNL     1       6.490  -5.317  -5.235  0.00  0.00    -0.051 C 
ATOM      7  H   UNL     1       5.239  -6.498  -6.331  0.00  0.00    -0.081 HD
ENDROOT
BRANCH   4   8
ATOM      8  C   UNL     1       9.307  -7.408  -6.620  0.00  0.00    -0.015 C 
ATOM      9  C   UNL     1       9.601  -7.590  -7.964  0.00  0.00    +0.017 A 
ATOM     10  C   UNL     1      11.028  -7.941  -8.091  0.00  0.00    +0.044 A 
ATOM     11  N   UNL     1      11.599  -7.978  -6.906  0.00  0.00    -0.380 N 
ATOM     12  C   UNL     1      10.604  -7.649  -5.881  0.00  0.00    +0.149 C 
ATOM     13  C   UNL     1      11.546  -8.173  -9.393  0.00  0.00    +0.026 A 
ATOM     14  C   UNL     1      10.733  -8.069 -10.470  0.00  0.00    +0.003 A 
ATOM     15  C   UNL     1       9.381  -7.737 -10.347  0.00  0.00    +0.016 A 
ATOM     16  C   UNL     1       8.814  -7.501  -9.136  0.00  0.00    +0.027 A 
ATOM     17 BR   UNL     1       6.980  -7.054  -9.017  0.00  0.00    -0.050 Br
ATOM     18  H   UNL     1      12.532  -8.186  -6.738  0.00  0.00    +0.160 HD
ENDBRANCH   4   8
BRANCH   1  19
ATOM     19  C   UNL     1       4.265  -5.965  -4.618  0.00  0.00    -0.074 C 
BRANCH  19  22
ATOM     20  C   UNL     1       2.449  -4.082  -4.577  0.00  0.00    +0.062 C 
ATOM     21  C   UNL     1       2.252  -4.865  -5.877  0.00  0.00    +0.014 C 
ATOM     22  C   UNL     1       3.651  -4.726  -5.271  0.00  0.00    -0.016 C 
BRANCH  20  23
ATOM     23  C   UNL     1       2.329  -2.582  -4.643  0.00  0.00    +0.166 C 
ATOM     24  O   UNL     1       2.771  -1.979  -5.599  0.00  0.00    -0.292 OA
BRANCH  23  28
ATOM     25  C   UNL     1       0.446  -0.467  -1.494  0.00  0.00    +0.120 A 
ATOM     26  C   UNL     1       0.952   0.226  -2.588  0.00  0.00    +0.046 A 
ATOM     27  C   UNL     1       1.563  -0.454  -3.610  0.00  0.00    +0.015 A 
ATOM     28  C   UNL     1       1.676  -1.848  -3.551  0.00  0.00    +0.018 A 
ATOM     29  C   UNL     1       1.165  -2.541  -2.447  0.00  0.00    +0.015 A 
ATOM     30  C   UNL     1       0.561  -1.851  -1.427  0.00  0.00    +0.046 A 
BRANCH  25  32
ATOM     31  C   UNL     1      -0.241   1.631  -0.616  0.00  0.00    +0.277 C 
ATOM     32  O   UNL     1      -0.157   0.211  -0.484  0.00  0.00    -0.495 OA
ENDBRANCH  25  32
ENDBRANCH  23  28
ENDBRANCH  20  23
ENDBRANCH  19  22
ENDBRANCH   1  19
TORSDOF 6
