REMARK  Name = ZINC05628700
REMARK  6 active torsions:
REMARK  status: ('A' for Active; 'I' for Inactive)
REMARK    1  A    between atoms: C_1  and  C_2
REMARK    2  A    between atoms: C_9  and  N_14
REMARK    3  A    between atoms: C_10  and  C_11
REMARK    4  A    between atoms: C_15  and  C_17
REMARK    5  A    between atoms: C_17  and  S_18
REMARK    6  A    between atoms: S_18  and  C_19
REMARK                            x       y       z     vdW  Elec       q    Type
REMARK                         _______ _______ _______ _____ _____    ______ ____
ROOT
ATOM      1  C   UNL     1      -9.974  11.639   0.062  0.00  0.00    +0.008 C 
ATOM      2  C   UNL     1      -9.424  10.243  -0.236  0.00  0.00    -0.009 C 
ATOM      3  C   UNL     1     -10.176   9.205   0.602  0.00  0.00    +0.008 C 
ATOM      4  C   UNL     1      -9.809   7.795   0.136  0.00  0.00    +0.037 C 
ATOM      5  C   UNL     1      -8.291   7.663   0.120  0.00  0.00    -0.023 A 
ATOM      6  C   UNL     1      -7.498   8.756   0.118  0.00  0.00    -0.004 A 
ATOM      7  S   UNL     1      -5.847   8.116   0.100  0.00  0.00    -0.077 S 
ATOM      8  C   UNL     1      -6.204   6.421   0.095  0.00  0.00    +0.084 A 
ATOM      9  C   UNL     1      -7.591   6.390   0.102  0.00  0.00    +0.068 A 
ATOM     10  C   UNL     1      -7.934  10.188   0.128  0.00  0.00    +0.046 C 
ENDROOT
BRANCH   9  11
ATOM     11  C   UNL     1      -8.323   5.119   0.095  0.00  0.00    +0.244 C 
ATOM     12  O   UNL     1      -8.622   4.583   1.146  0.00  0.00    -0.270 OA
ATOM     13  N   UNL     1      -8.666   4.545  -1.075  0.00  0.00    -0.325 N 
ATOM     14  H   UNL     1      -8.428   4.972  -1.913  0.00  0.00    +0.145 HD
ATOM     15  H   UNL     1      -9.150   3.704  -1.080  0.00  0.00    +0.145 HD
ENDBRANCH   9  11
BRANCH   8  16
ATOM     16  N   UNL     1      -5.318   5.354   0.080  0.00  0.00    -0.279 N 
ATOM     17  C   UNL     1      -3.990   5.581   0.069  0.00  0.00    +0.228 C 
ATOM     18  O   UNL     1      -3.569   6.718   0.072  0.00  0.00    -0.275 OA
ATOM     19  H   UNL     1      -5.655   4.444   0.078  0.00  0.00    +0.155 HD
BRANCH  17  20
ATOM     20  C   UNL     1      -3.027   4.421   0.054  0.00  0.00    +0.175 C 
BRANCH  20  21
ATOM     21  S   UNL     1      -1.329   5.047   0.041  0.00  0.00    -0.058 S 
BRANCH  21  22
ATOM     22  C   UNL     1      -0.442   3.525   0.025  0.00  0.00    +0.258 A 
ATOM     23  N   UNL     1       0.863   3.416   0.012  0.00  0.00    -0.203 NA
ATOM     24  C   UNL     1       1.191   2.095   0.002  0.00  0.00    +0.110 A 
ATOM     25  C   UNL     1       2.403   1.404  -0.014  0.00  0.00    +0.031 A 
ATOM     26  C   UNL     1       2.404   0.026  -0.021  0.00  0.00    +0.002 A 
ATOM     27  C   UNL     1       1.208  -0.676  -0.013  0.00  0.00    +0.004 A 
ATOM     28  C   UNL     1       0.002  -0.004   0.002  0.00  0.00    +0.048 A 
ATOM     29  C   UNL     1      -0.017   1.381   0.010  0.00  0.00    +0.156 A 
ATOM     30  O   UNL     1      -1.006   2.304   0.019  0.00  0.00    -0.431 OA
ENDBRANCH  21  22
ENDBRANCH  20  21
ENDBRANCH  17  20
ENDBRANCH   8  16
TORSDOF 5
