REMARK  Name = ZINC22073760
REMARK  6 active torsions:
REMARK  status: ('A' for Active; 'I' for Inactive)
REMARK    1  A    between atoms: C_4  and  O_19
REMARK    2  A    between atoms: C_5  and  C_7
REMARK    3  A    between atoms: C_7  and  N_8
REMARK    4  A    between atoms: N_8  and  C_9
REMARK    5  A    between atoms: O_19  and  C_20
REMARK    6  A    between atoms: C_20  and  C_21
REMARK                            x       y       z     vdW  Elec       q    Type
REMARK                         _______ _______ _______ _____ _____    ______ ____
ROOT
ATOM      1  C   UNL     1       0.844   0.492  -4.822  0.00  0.00    +0.000 A 
ATOM      2  C   UNL     1       1.464   0.067  -3.661  0.00  0.00    +0.004 A 
ATOM      3  C   UNL     1       0.951   0.428  -2.431  0.00  0.00    +0.046 A 
ATOM      4  C   UNL     1      -0.194   1.208  -2.359  0.00  0.00    +0.122 A 
ATOM      5  C   UNL     1      -0.815   1.633  -3.525  0.00  0.00    -0.023 A 
ATOM      6  C   UNL     1      -0.294   1.274  -4.753  0.00  0.00    +0.005 A 
ENDROOT
BRANCH   5   7
ATOM      7  C   UNL     1      -2.055   2.484  -3.451  0.00  0.00    -0.043 C 
BRANCH   7   8
ATOM      8  N   UNL     1      -1.677   3.879  -3.188  0.00  0.00    +0.384 N 
ATOM      9  H   UNL     1      -1.135   3.938  -2.233  0.00  0.00    -0.085 HD
ATOM     10  H   UNL     1      -1.030   4.243  -4.000  0.00  0.00    -0.085 HD
BRANCH   8  11
ATOM     11  C   UNL     1      -2.864   4.741  -3.109  0.00  0.00    -0.065 C 
ATOM     12  C   UNL     1      -3.266   5.185  -4.517  0.00  0.00    -0.024 C 
ATOM     13  C   UNL     1      -4.503   6.082  -4.435  0.00  0.00    +0.005 C 
ATOM     14  C   UNL     1      -4.184   7.313  -3.584  0.00  0.00    -0.010 C 
ATOM     15  C   UNL     1      -3.031   8.090  -4.223  0.00  0.00    +0.007 C 
ATOM     16  C   UNL     1      -1.795   7.192  -4.305  0.00  0.00    -0.010 C 
ATOM     17  C   UNL     1      -2.114   5.962  -5.156  0.00  0.00    +0.005 C 
ATOM     18  C   UNL     1      -1.392   6.749  -2.897  0.00  0.00    +0.005 C 
ATOM     19  C   UNL     1      -2.545   5.972  -2.258  0.00  0.00    -0.024 C 
ATOM     20  C   UNL     1      -3.781   6.869  -2.176  0.00  0.00    +0.005 C 
ENDBRANCH   8  11
ENDBRANCH   7   8
ENDBRANCH   5   7
BRANCH   4  21
ATOM     21  O   UNL     1      -0.704   1.559  -1.150  0.00  0.00    -0.487 OA
BRANCH  21  22
ATOM     22  C   UNL     1      -0.013   1.086   0.008  0.00  0.00    +0.266 C 
BRANCH  22  23
ATOM     23  C   UNL     1      -0.718   1.572   1.248  0.00  0.00    +0.008 A 
ATOM     24  C   UNL     1      -1.851   2.357   1.136  0.00  0.00    +0.008 A 
ATOM     25  C   UNL     1      -2.500   2.799   2.273  0.00  0.00    +0.000 A 
ATOM     26  C   UNL     1      -2.012   2.465   3.523  0.00  0.00    +0.001 A 
ATOM     27  C   UNL     1      -0.877   1.685   3.636  0.00  0.00    +0.020 A 
ATOM     28  C   UNL     1      -0.229   1.237   2.498  0.00  0.00    +0.047 A 
ATOM     29 CL   UNL     1       1.197   0.258   2.639  0.00  0.00    -0.083 Cl
ENDBRANCH  22  23
ENDBRANCH  21  22
ENDBRANCH   4  21
TORSDOF 6
