REMARK  Name = ZINC64044256
REMARK  7 active torsions:
REMARK  status: ('A' for Active; 'I' for Inactive)
REMARK    1  A    between atoms: C_1  and  O_2
REMARK    2  A    between atoms: O_2  and  C_3
REMARK    3  A    between atoms: C_3  and  C_5
REMARK    4  A    between atoms: N_11  and  C_26
REMARK    5  A    between atoms: C_18  and  O_20
REMARK    6  A    between atoms: O_20  and  C_21
REMARK    7  A    between atoms: C_26  and  C_27
REMARK                            x       y       z     vdW  Elec       q    Type
REMARK                         _______ _______ _______ _____ _____    ______ ____
ROOT
ATOM      1  C   UNL     1       1.077  -2.912  -0.617  0.00  0.00    +0.147 C 
ATOM      2  C   UNL     1       1.670  -3.097  -2.011  0.00  0.00    +0.093 C 
ATOM      3  C   UNL     1       3.043  -2.468  -2.091  0.00  0.00    +0.039 C 
ATOM      4  C   UNL     1       3.905  -3.204  -3.123  0.00  0.00    +0.087 C 
ATOM      5  N   UNL     1       3.637  -2.809  -4.446  0.00  0.00    -0.294 NA
ATOM      6  C   UNL     1       2.271  -3.133  -4.902  0.00  0.00    +0.104 C 
ATOM      7  C   UNL     1       1.284  -2.125  -4.363  0.00  0.00    +0.123 C 
ATOM      8  N   UNL     1       0.789  -2.505  -3.031  0.00  0.00    -0.296 N 
ATOM      9  C   UNL     1      -0.519  -2.311  -2.803  0.00  0.00    +0.218 C 
ATOM     10  O   UNL     1      -1.191  -1.889  -3.721  0.00  0.00    -0.276 OA
ATOM     11  C   UNL     1      -1.213  -2.575  -1.504  0.00  0.00    +0.128 C 
ATOM     12  C   UNL     1      -0.340  -3.498  -0.602  0.00  0.00    +0.143 C 
ENDROOT
BRANCH   1  13
ATOM     13  C   UNL     1       1.021  -1.443  -0.281  0.00  0.00    +0.314 C 
ATOM     14  O   UNL     1       1.422  -0.626  -1.076  0.00  0.00    -0.250 OA
BRANCH  13  16
ATOM     15  C   UNL     1       0.502   0.363   1.151  0.00  0.00    +0.280 C 
ATOM     16  O   UNL     1       0.525  -1.043   0.900  0.00  0.00    -0.468 OA
ENDBRANCH  13  16
ENDBRANCH   1  13
BRANCH  12  17
ATOM     17  O   UNL     1      -0.850  -3.497   0.733  0.00  0.00    -0.372 OA
BRANCH  17  18
ATOM     18  C   UNL     1      -1.775  -4.552   1.002  0.00  0.00    +0.119 C 
ATOM     19  C   UNL     1      -3.218  -4.067   0.751  0.00  0.00    +0.031 C 
ATOM     20  C   UNL     1      -4.049  -4.755   1.863  0.00  0.00    +0.003 C 
ATOM     21  C   UNL     1      -3.097  -4.699   3.084  0.00  0.00    +0.003 C 
ATOM     22  C   UNL     1      -1.698  -4.954   2.486  0.00  0.00    +0.031 C 
ENDBRANCH  17  18
ENDBRANCH  12  17
BRANCH   5  23
ATOM     23  C   UNL     1       4.643  -3.351  -5.370  0.00  0.00    +0.156 C 
BRANCH  23  24
ATOM     24  C   UNL     1       5.922  -2.566  -5.235  0.00  0.00    +0.099 A 
ATOM     25  N   UNL     1       6.018  -1.314  -4.819  0.00  0.00    -0.349 N 
ATOM     26  C   UNL     1       7.321  -0.962  -4.833  0.00  0.00    +0.101 A 
ATOM     27  C   UNL     1       8.020  -2.029  -5.268  0.00  0.00    +0.101 A 
ATOM     28  N   UNL     1       7.135  -3.019  -5.509  0.00  0.00    -0.349 N 
ATOM     29  H   UNL     1       7.351  -3.909  -5.829  0.00  0.00    +0.166 HD
ATOM     30  H   UNL     1       5.279  -0.746  -4.550  0.00  0.00    +0.166 HD
ENDBRANCH  23  24
ENDBRANCH   5  23
TORSDOF 6
