REMARK  Name = ZINC21963586
REMARK  7 active torsions:
REMARK  status: ('A' for Active; 'I' for Inactive)
REMARK    1  A    between atoms: C_1  and  N_2
REMARK    2  A    between atoms: N_2  and  C_3
REMARK    3  A    between atoms: C_3  and  C_4
REMARK    4  A    between atoms: C_7  and  N_10
REMARK    5  A    between atoms: C_16  and  C_18
REMARK    6  A    between atoms: C_18  and  C_19
REMARK    7  A    between atoms: C_19  and  N_20
REMARK                            x       y       z     vdW  Elec       q    Type
REMARK                         _______ _______ _______ _____ _____    ______ ____
ROOT
ATOM      1  C   UNL     1       2.422   4.335   2.074  0.00  0.00    +0.132 C 
ATOM      2  N   UNL     1       1.151   4.074   1.394  0.00  0.00    -0.300 N 
ATOM      3  C   UNL     1      -0.013   4.277   2.041  0.00  0.00    +0.217 C 
ATOM      4  O   UNL     1      -1.066   4.060   1.478  0.00  0.00    -0.276 OA
ENDROOT
BRANCH   2   5
ATOM      5  C   UNL     1       1.146   3.593   0.010  0.00  0.00    +0.142 C 
BRANCH   5   6
ATOM      6  C   UNL     1       1.171   2.086   0.002  0.00  0.00    -0.030 A 
ATOM      7  C   UNL     1      -0.017   1.377   0.010  0.00  0.00    +0.007 A 
ATOM      8  C   UNL     1       0.002  -0.004   0.002  0.00  0.00    +0.023 A 
ATOM      9  C   UNL     1       1.215  -0.681  -0.013  0.00  0.00    +0.030 A 
ATOM     10  C   UNL     1       2.406   0.035  -0.021  0.00  0.00    +0.023 A 
ATOM     11  C   UNL     1       2.380   1.416  -0.013  0.00  0.00    +0.007 A 
BRANCH   9  12
ATOM     12  N   UNL     1       1.238  -2.077  -0.021  0.00  0.00    -0.330 N 
ATOM     13  C   UNL     1       0.487  -2.622   1.118  0.00  0.00    +0.105 C 
ATOM     14  C   UNL     1       0.410  -4.145   0.998  0.00  0.00    +0.019 C 
ATOM     15  C   UNL     1       1.827  -4.723   0.975  0.00  0.00    +0.003 C 
ATOM     16  C   UNL     1       2.603  -4.104  -0.191  0.00  0.00    +0.019 C 
ATOM     17  C   UNL     1       2.617  -2.581  -0.036  0.00  0.00    +0.105 C 
ENDBRANCH   9  12
ENDBRANCH   5   6
ENDBRANCH   2   5
BRANCH   3  18
ATOM     18  C   UNL     1      -0.008   4.771   3.464  0.00  0.00    +0.115 C 
BRANCH  18  19
ATOM     19  C   UNL     1      -1.449   4.916   3.959  0.00  0.00    +0.127 C 
BRANCH  19  20
ATOM     20  N   UNL     1      -1.444   5.397   5.343  0.00  0.00    -0.224 N 
ATOM     21  C   UNL     1      -1.462   6.701   5.694  0.00  0.00    +0.247 C 
ATOM     22  O   UNL     1      -1.484   7.661   4.954  0.00  0.00    -0.273 OA
ATOM     23  C   UNL     1      -1.448   6.708   7.201  0.00  0.00    +0.113 C 
ATOM     24  C   UNL     1      -2.695   7.405   7.760  0.00  0.00    +0.035 C 
ATOM     25  C   UNL     1      -2.184   8.120   9.038  0.00  0.00    +0.003 C 
ATOM     26  C   UNL     1      -0.769   8.598   8.623  0.00  0.00    +0.003 C 
ATOM     27  C   UNL     1      -0.225   7.452   7.742  0.00  0.00    +0.035 C 
ATOM     28  N   UNL     1      -1.421   5.292   7.574  0.00  0.00    -0.285 N 
ATOM     29  C   UNL     1      -1.427   4.598   6.418  0.00  0.00    +0.309 C 
ATOM     30  O   UNL     1      -1.414   3.384   6.358  0.00  0.00    -0.252 OA
ATOM     31  H   UNL     1      -1.403   5.003   8.635  0.00  0.00    +0.151 HD
ENDBRANCH  19  20
ENDBRANCH  18  19
ENDBRANCH   3  18
TORSDOF 6
