REMARK  Name = ZINC31680471
REMARK  4 active torsions:
REMARK  status: ('A' for Active; 'I' for Inactive)
REMARK    1  A    between atoms: N_11  and  C_15
REMARK    2  A    between atoms: C_15  and  C_16
REMARK    3  A    between atoms: N_18  and  C_19
REMARK    4  A    between atoms: C_20  and  C_27
REMARK                            x       y       z     vdW  Elec       q    Type
REMARK                         _______ _______ _______ _____ _____    ______ ____
ROOT
ATOM      1  C   UNL     1      -5.453   1.443   1.478  0.00  0.00    +0.237 C 
ATOM      2  O   UNL     1      -4.670   1.601   2.389  0.00  0.00    -0.274 OA
ATOM      3  N   UNL     1      -6.706   1.016   1.732  0.00  0.00    -0.278 N 
ATOM      4  H   UNL     1      -7.417   0.873   0.904  0.00  0.00    +0.155 HD
ENDROOT
BRANCH   3   5
ATOM      5  C   UNL     1      -7.099   0.758   3.036  0.00  0.00    +0.084 A 
ATOM      6  C   UNL     1      -8.331   0.324   3.494  0.00  0.00    +0.068 A 
ATOM      7  C   UNL     1      -8.487   0.122   4.934  0.00  0.00    -0.023 A 
ATOM      8  C   UNL     1      -7.395   0.397   5.670  0.00  0.00    -0.004 A 
ATOM      9  S   UNL     1      -6.171   0.909   4.489  0.00  0.00    -0.077 S 
ATOM     10  C   UNL     1      -7.633   0.169   7.138  0.00  0.00    +0.043 C 
ATOM     11  C   UNL     1      -8.904  -0.706   7.195  0.00  0.00    +0.010 C 
ATOM     12  C   UNL     1      -9.605  -0.329   5.875  0.00  0.00    +0.037 C 
BRANCH   6  13
ATOM     13  C   UNL     1      -9.439   0.071   2.567  0.00  0.00    +0.244 C 
ATOM     14  O   UNL     1      -9.585  -1.035   2.080  0.00  0.00    -0.270 OA
ATOM     15  N   UNL     1     -10.297   1.062   2.255  0.00  0.00    -0.325 N 
ATOM     16  H   UNL     1     -11.128   0.873   1.560  0.00  0.00    +0.145 HD
ATOM     17  H   UNL     1     -10.165   2.062   2.695  0.00  0.00    +0.145 HD
ENDBRANCH   6  13
ENDBRANCH   3   5
BRANCH   1  18
ATOM     18  C   UNL     1      -5.026   1.723   0.060  0.00  0.00    +0.227 C 
BRANCH  18  29
ATOM     19  C   UNL     1      -1.184  -0.678   0.010  0.00  0.00    +0.002 A 
ATOM     20  C   UNL     1       0.002  -0.004   0.002  0.00  0.00    +0.009 A 
ATOM     21  C   UNL     1      -0.017   1.401   0.010  0.00  0.00    -0.014 A 
ATOM     22  C   UNL     1       1.148   2.186   0.003  0.00  0.00    +0.009 A 
ATOM     23  C   UNL     1       1.048   3.546   0.012  0.00  0.00    +0.003 A 
ATOM     24  C   UNL     1      -0.199   4.184   0.028  0.00  0.00    +0.029 A 
ATOM     25  C   UNL     1      -1.327   3.451   0.035  0.00  0.00    +0.118 A 
ATOM     26  C   UNL     1      -1.268   2.053   0.031  0.00  0.00    +0.031 A 
ATOM     27  C   UNL     1      -2.480   1.365   0.034  0.00  0.00    +0.061 A 
ATOM     28  C   UNL     1      -2.411  -0.027   0.025  0.00  0.00    +0.025 A 
ATOM     29  N   UNL     1      -3.631   2.171   0.050  0.00  0.00    -0.194 N 
ATOM     30  S   UNL     1      -3.072   3.751   0.054  0.00  0.00    +0.076 S 
ATOM     31  O   UNL     1      -3.424   4.339  -1.191  0.00  0.00    -0.150 OA
ATOM     32  O   UNL     1      -3.400   4.324   1.312  0.00  0.00    -0.150 OA
ENDBRANCH  18  29
ENDBRANCH   1  18
TORSDOF 4
