REMARK  Name = ZINC36305012
REMARK  14 active torsions:
REMARK  status: ('A' for Active; 'I' for Inactive)
REMARK    1  A    between atoms: C_1  and  N_2
REMARK    2  A    between atoms: C_3  and  O_27
REMARK    3  A    between atoms: C_4  and  C_13
REMARK    4  A    between atoms: C_5  and  C_7
REMARK    5  A    between atoms: C_13  and  N_14
REMARK    6  A    between atoms: N_14  and  C_15
REMARK    7  A    between atoms: N_14  and  C_24
REMARK    8  A    between atoms: C_15  and  C_16
REMARK    9  A    between atoms: C_16  and  C_18
REMARK   10  A    between atoms: C_16  and  O_23
REMARK   11  A    between atoms: C_18  and  O_19
REMARK   12  A    between atoms: O_19  and  C_20
REMARK   13  A    between atoms: C_20  and  C_21
REMARK   14  A    between atoms: O_27  and  C_28
REMARK                            x       y       z     vdW  Elec       q    Type
REMARK                         _______ _______ _______ _____ _____    ______ ____
ROOT
ATOM      1  C   UNL     1      -0.090   1.561  -1.492  0.00  0.00    +0.176 C 
ATOM      2  N   UNL     1      -0.301   0.147  -1.175  0.00  0.00    -0.235 N 
ATOM      3  C   UNL     1      -0.141  -0.895  -2.030  0.00  0.00    +0.221 A 
ATOM      4  C   UNL     1      -0.434  -2.035  -1.353  0.00  0.00    +0.025 A 
ATOM      5  C   UNL     1      -0.785  -1.677  -0.038  0.00  0.00    +0.098 A 
ATOM      6  N   UNL     1      -0.698  -0.368   0.066  0.00  0.00    -0.168 NA
ENDROOT
BRANCH   5   7
ATOM      7  C   UNL     1      -1.178  -2.613   1.044  0.00  0.00    +0.002 A 
ATOM      8  C   UNL     1      -0.698  -2.427   2.339  0.00  0.00    +0.010 A 
ATOM      9  C   UNL     1      -1.067  -3.300   3.342  0.00  0.00    +0.001 A 
ATOM     10  C   UNL     1      -1.912  -4.359   3.063  0.00  0.00    +0.000 A 
ATOM     11  C   UNL     1      -2.392  -4.549   1.780  0.00  0.00    +0.001 A 
ATOM     12  C   UNL     1      -2.034  -3.678   0.771  0.00  0.00    +0.010 A 
ENDBRANCH   5   7
BRANCH   4  13
ATOM     13  C   UNL     1      -0.391  -3.435  -1.911  0.00  0.00    -0.035 C 
BRANCH  13  14
ATOM     14  N   UNL     1       0.982  -3.952  -1.832  0.00  0.00    +0.386 N 
ATOM     15  H   UNL     1       1.609  -3.314  -2.298  0.00  0.00    -0.081 HD
BRANCH  14  16
ATOM     16  C   UNL     1       1.375  -4.083  -0.422  0.00  0.00    -0.068 C 
ATOM     17  C   UNL     1       2.401  -3.086   0.120  0.00  0.00    -0.017 C 
ATOM     18  C   UNL     1       2.805  -4.541  -0.127  0.00  0.00    -0.017 C 
ENDBRANCH  14  16
BRANCH  14  19
ATOM     19  C   UNL     1       1.048  -5.267  -2.483  0.00  0.00    -0.044 C 
BRANCH  19  20
ATOM     20  C   UNL     1       0.018  -6.203  -1.848  0.00  0.00    +0.124 C 
BRANCH  20  21
ATOM     21  O   UNL     1       0.382  -6.462  -0.490  0.00  0.00    -0.391 OA
ATOM     22  H   UNL     1       1.248  -6.879  -0.388  0.00  0.00    +0.210 HD
ENDBRANCH  20  21
BRANCH  20  23
ATOM     23  C   UNL     1      -0.022  -7.520  -2.625  0.00  0.00    +0.190 C 
BRANCH  23  24
ATOM     24  O   UNL     1      -1.064  -8.349  -2.106  0.00  0.00    -0.365 OA
BRANCH  24  25
ATOM     25  C   UNL     1      -1.187  -9.610  -2.765  0.00  0.00    +0.248 C 
BRANCH  25  26
ATOM     26  C   UNL     1      -2.283 -10.379  -2.154  0.00  0.00    -0.077 C 
ATOM     27  C   UNL     1      -3.158 -10.992  -1.667  0.00  0.00    +0.006 C 
ENDBRANCH  25  26
ENDBRANCH  24  25
ENDBRANCH  23  24
ENDBRANCH  20  23
ENDBRANCH  19  20
ENDBRANCH  14  19
ENDBRANCH  13  14
ENDBRANCH   4  13
BRANCH   3  28
ATOM     28  O   UNL     1       0.242  -0.812  -3.330  0.00  0.00    -0.437 OA
BRANCH  28  29
ATOM     29  C   UNL     1      -0.717  -0.580  -4.264  0.00  0.00    +0.149 A 
ATOM     30  C   UNL     1      -2.024  -0.331  -3.871  0.00  0.00    +0.048 A 
ATOM     31  C   UNL     1      -2.997  -0.095  -4.823  0.00  0.00    +0.004 A 
ATOM     32  C   UNL     1      -2.670  -0.106  -6.167  0.00  0.00    +0.002 A 
ATOM     33  C   UNL     1      -1.368  -0.353  -6.562  0.00  0.00    +0.024 A 
ATOM     34  C   UNL     1      -0.389  -0.585  -5.613  0.00  0.00    +0.083 A 
ATOM     35 CL   UNL     1       1.246  -0.889  -6.109  0.00  0.00    -0.080 Cl
ENDBRANCH  28  29
ENDBRANCH   3  28
TORSDOF 13
