REMARK  Name = ZINC37034028
REMARK  6 active torsions:
REMARK  status: ('A' for Active; 'I' for Inactive)
REMARK    1  A    between atoms: C_1  and  C_2
REMARK    2  A    between atoms: C_2  and  C_3
REMARK    3  A    between atoms: C_2  and  C_4
REMARK    4  A    between atoms: C_4  and  C_6
REMARK    5  A    between atoms: C_4  and  N_22
REMARK    6  A    between atoms: N_8  and  C_9
REMARK                            x       y       z     vdW  Elec       q    Type
REMARK                         _______ _______ _______ _____ _____    ______ ____
ROOT
ATOM      1  C   UNL     1       3.679   1.808  -1.573  0.00  0.00    +0.049 A 
ATOM      2  C   UNL     1       4.573   1.283  -0.651  0.00  0.00    +0.052 A 
ATOM      3  C   UNL     1       5.856   1.798  -0.565  0.00  0.00    +0.069 A 
ATOM      4  C   UNL     1       6.246   2.843  -1.407  0.00  0.00    +0.068 A 
ATOM      5  C   UNL     1       5.348   3.363  -2.327  0.00  0.00    +0.045 A 
ATOM      6  C   UNL     1       4.072   2.844  -2.414  0.00  0.00    +0.041 A 
ATOM      7 BR   UNL     1       2.851   3.549  -3.674  0.00  0.00    -0.048 Br
ATOM      8  N   UNL     1       7.571   3.142  -1.090  0.00  0.00    -0.306 N 
ATOM      9  H   UNL     1       8.114   3.827  -1.510  0.00  0.00    +0.170 HD
ATOM     10  C   UNL     1       7.967   2.317  -0.103  0.00  0.00    +0.325 A 
ATOM     11  O   UNL     1       9.072   2.314   0.407  0.00  0.00    -0.247 OA
ATOM     12  N   UNL     1       6.955   1.495   0.235  0.00  0.00    -0.306 N 
ATOM     13  H   UNL     1       6.987   0.808   0.920  0.00  0.00    +0.170 HD
ENDROOT
BRANCH   1  16
ATOM     14  C   UNL     1       2.131   0.025  -1.265  0.00  0.00    +0.203 C 
ATOM     15  O   UNL     1       3.046  -0.695  -0.925  0.00  0.00    -0.277 OA
ATOM     16  N   UNL     1       2.381   1.288  -1.662  0.00  0.00    -0.286 N 
ATOM     17  H   UNL     1       1.661   1.839  -2.010  0.00  0.00    +0.155 HD
BRANCH  14  18
ATOM     18  C   UNL     1       0.716  -0.492  -1.243  0.00  0.00    +0.016 C 
BRANCH  18  19
ATOM     19  N   UNL     1       0.732  -1.961  -1.250  0.00  0.00    +0.386 N 
ATOM     20  H   UNL     1       1.197  -2.289  -2.084  0.00  0.00    -0.089 HD
ATOM     21  H   UNL     1       1.225  -2.296  -0.436  0.00  0.00    -0.089 HD
ATOM     22  H   UNL     1      -0.216  -2.308  -1.235  0.00  0.00    -0.089 HD
ENDBRANCH  18  19
BRANCH  18  24
ATOM     23  C   UNL     1      -0.005   1.534   0.029  0.00  0.00    +0.006 C 
ATOM     24  C   UNL     1       0.011   0.004   0.021  0.00  0.00    -0.023 C 
ATOM     25  C   UNL     1      -1.425  -0.522   0.044  0.00  0.00    +0.006 C 
ENDBRANCH  18  24
ENDBRANCH  14  18
ENDBRANCH   1  16
TORSDOF 4
