REMARK  Name = ZINC38936662
REMARK  8 active torsions:
REMARK  status: ('A' for Active; 'I' for Inactive)
REMARK    1  A    between atoms: C_1  and  C_2
REMARK    2  A    between atoms: C_2  and  C_3
REMARK    3  A    between atoms: N_5  and  C_6
REMARK    4  A    between atoms: C_9  and  S_13
REMARK    5  A    between atoms: C_10  and  C_12
REMARK    6  A    between atoms: S_13  and  N_16
REMARK    7  A    between atoms: N_16  and  C_17
REMARK    8  A    between atoms: C_17  and  C_18
REMARK                            x       y       z     vdW  Elec       q    Type
REMARK                         _______ _______ _______ _____ _____    ______ ____
ROOT
ATOM      1  S   UNL     1       3.357  -3.668  -6.773  0.00  0.00    +0.059 S 
ATOM      2  O   UNL     1       2.593  -4.503  -7.632  0.00  0.00    -0.153 OA
ATOM      3  O   UNL     1       3.921  -2.439  -7.211  0.00  0.00    -0.153 OA
ENDROOT
BRANCH   1   7
ATOM      4  C   UNL     1       0.713  -2.689  -3.229  0.00  0.00    +0.034 A 
ATOM      5  C   UNL     1       0.231  -3.488  -4.258  0.00  0.00    +0.025 A 
ATOM      6  C   UNL     1       1.039  -3.784  -5.337  0.00  0.00    +0.030 A 
ATOM      7  C   UNL     1       2.328  -3.287  -5.394  0.00  0.00    +0.108 A 
ATOM      8  C   UNL     1       2.812  -2.491  -4.372  0.00  0.00    -0.022 A 
ATOM      9  C   UNL     1       2.006  -2.186  -3.293  0.00  0.00    +0.028 A 
ATOM     10  C   UNL     1       4.217  -1.952  -4.439  0.00  0.00    +0.046 C 
BRANCH   4  13
ATOM     11  C   UNL     1      -0.022  -1.176  -1.546  0.00  0.00    +0.217 C 
ATOM     12  O   UNL     1       0.821  -0.382  -1.907  0.00  0.00    -0.275 OA
ATOM     13  N   UNL     1      -0.104  -2.386  -2.134  0.00  0.00    -0.285 N 
ATOM     14  H   UNL     1      -0.729  -3.048  -1.798  0.00  0.00    +0.155 HD
BRANCH  11  16
ATOM     15  C   UNL     1      -0.672   0.607   0.050  0.00  0.00    +0.013 C 
ATOM     16  C   UNL     1      -0.978  -0.810  -0.440  0.00  0.00    +0.093 C 
ENDBRANCH  11  16
ENDBRANCH   4  13
ENDBRANCH   1   7
BRANCH   1  17
ATOM     17  N   UNL     1       4.611  -4.590  -6.208  0.00  0.00    -0.187 NA
ATOM     18  H   UNL     1       5.518  -4.246  -6.237  0.00  0.00    +0.148 HD
BRANCH  17  19
ATOM     19  C   UNL     1       4.352  -5.926  -5.666  0.00  0.00    +0.139 C 
BRANCH  19  20
ATOM     20  C   UNL     1       5.659  -6.720  -5.620  0.00  0.00    +0.163 C 
ATOM     21  C   UNL     1       5.416  -8.158  -5.096  0.00  0.00    +0.196 C 
ATOM     22  O   UNL     1       6.690  -8.516  -4.524  0.00  0.00    -0.346 OA
ATOM     23  C   UNL     1       7.388  -7.297  -4.241  0.00  0.00    +0.171 C 
ATOM     24  O   UNL     1       6.554  -6.187  -4.616  0.00  0.00    -0.342 OA
ATOM     25  C   UNL     1       8.688  -7.250  -5.046  0.00  0.00    +0.065 C 
ATOM     26  C   UNL     1       9.578  -8.427  -4.644  0.00  0.00    +0.005 C 
ATOM     27  C   UNL     1       9.894  -8.341  -3.150  0.00  0.00    +0.000 C 
ATOM     28  C   UNL     1       8.592  -8.396  -2.349  0.00  0.00    +0.005 C 
ATOM     29  C   UNL     1       7.699  -7.218  -2.746  0.00  0.00    +0.065 C 
ENDBRANCH  19  20
ENDBRANCH  17  19
ENDBRANCH   1  17
TORSDOF 6
