REMARK  Name = ZINC36599041
REMARK  12 active torsions:
REMARK  status: ('A' for Active; 'I' for Inactive)
REMARK    1  A    between atoms: C_1  and  C_2
REMARK    2  A    between atoms: C_3  and  C_4
REMARK    3  A    between atoms: C_4  and  C_6
REMARK    4  A    between atoms: C_4  and  N_15
REMARK    5  A    between atoms: N_8  and  C_9
REMARK    6  A    between atoms: N_15  and  C_16
REMARK    7  A    between atoms: C_16  and  C_17
REMARK    8  A    between atoms: C_20  and  C_22
REMARK    9  A    between atoms: C_23  and  C_25
REMARK   10  A    between atoms: C_25  and  C_26
REMARK   11  A    between atoms: C_25  and  C_32
REMARK   12  A    between atoms: C_25  and  O_38
REMARK                            x       y       z     vdW  Elec       q    Type
REMARK                         _______ _______ _______ _____ _____    ______ ____
ROOT
ATOM      1  N   UNL     1       0.222  -1.835   0.244  0.00  0.00    -0.276 N 
ATOM      2  C   UNL     1       0.045  -2.761   1.206  0.00  0.00    +0.258 C 
ATOM      3  O   UNL     1       0.999  -3.366   1.649  0.00  0.00    -0.272 OA
ENDROOT
BRANCH   1   4
ATOM      4  C   UNL     1       1.556  -1.608  -0.319  0.00  0.00    +0.185 C 
BRANCH   4   5
ATOM      5  C   UNL     1       1.557  -1.986  -1.777  0.00  0.00    +0.238 C 
ATOM      6  O   UNL     1       0.737  -2.774  -2.200  0.00  0.00    -0.273 OA
ATOM      7  N   UNL     1       2.469  -1.450  -2.612  0.00  0.00    -0.311 N 
ATOM      8  H   UNL     1       3.125  -0.820  -2.273  0.00  0.00    +0.149 HD
BRANCH   7   9
ATOM      9  C   UNL     1       2.471  -1.818  -4.030  0.00  0.00    +0.073 C 
ATOM     10  C   UNL     1       3.270  -3.109  -4.221  0.00  0.00    +0.022 C 
ATOM     11  C   UNL     1       3.272  -3.493  -5.702  0.00  0.00    +0.002 C 
ATOM     12  C   UNL     1       3.913  -2.370  -6.520  0.00  0.00    +0.000 C 
ATOM     13  C   UNL     1       3.113  -1.080  -6.328  0.00  0.00    +0.002 C 
ATOM     14  C   UNL     1       3.112  -0.695  -4.848  0.00  0.00    +0.022 C 
ENDBRANCH   7   9
ENDBRANCH   4   5
BRANCH   4  17
ATOM     15  C   UNL     1       1.406   2.135   0.506  0.00  0.00    +0.035 C 
ATOM     16  C   UNL     1       1.155   0.649   0.523  0.00  0.00    -0.032 C 
ATOM     17  C   UNL     1       1.919  -0.152  -0.177  0.00  0.00    +0.000 C 
ENDBRANCH   4  17
ENDBRANCH   1   4
BRANCH   1  18
ATOM     18  C   UNL     1      -0.920  -1.055  -0.240  0.00  0.00    +0.183 C 
BRANCH  18  19
ATOM     19  C   UNL     1      -1.328  -1.554  -1.603  0.00  0.00    +0.122 A 
ATOM     20  C   UNL     1      -2.292  -2.458  -1.852  0.00  0.00    +0.046 A 
ATOM     21  C   UNL     1      -2.338  -2.631  -3.255  0.00  0.00    +0.045 A 
ATOM     22  C   UNL     1      -1.400  -1.821  -3.778  0.00  0.00    +0.102 A 
ATOM     23  O   UNL     1      -0.795  -1.167  -2.773  0.00  0.00    -0.463 OA
ATOM     24  C   UNL     1      -1.084  -1.670  -5.244  0.00  0.00    +0.086 C 
ENDBRANCH  18  19
ENDBRANCH   1  18
BRANCH   2  25
ATOM     25  C   UNL     1      -1.338  -3.046   1.733  0.00  0.00    +0.192 C 
BRANCH  25  26
ATOM     26  C   UNL     1      -1.308  -4.298   2.572  0.00  0.00    -0.003 A 
ATOM     27  C   UNL     1      -1.044  -4.215   3.927  0.00  0.00    +0.007 A 
ATOM     28  C   UNL     1      -1.016  -5.363   4.697  0.00  0.00    +0.000 A 
ATOM     29  C   UNL     1      -1.253  -6.593   4.112  0.00  0.00    +0.000 A 
ATOM     30  C   UNL     1      -1.517  -6.675   2.758  0.00  0.00    +0.000 A 
ATOM     31  C   UNL     1      -1.549  -5.527   1.989  0.00  0.00    +0.007 A 
ENDBRANCH  25  26
BRANCH  25  32
ATOM     32  C   UNL     1      -1.803  -1.887   2.577  0.00  0.00    -0.003 A 
ATOM     33  C   UNL     1      -0.883  -1.131   3.280  0.00  0.00    +0.007 A 
ATOM     34  C   UNL     1      -1.310  -0.068   4.053  0.00  0.00    +0.000 A 
ATOM     35  C   UNL     1      -2.655   0.240   4.123  0.00  0.00    +0.000 A 
ATOM     36  C   UNL     1      -3.575  -0.515   3.419  0.00  0.00    +0.000 A 
ATOM     37  C   UNL     1      -3.148  -1.576   2.643  0.00  0.00    +0.007 A 
ENDBRANCH  25  32
BRANCH  25  38
ATOM     38  O   UNL     1      -2.237  -3.229   0.638  0.00  0.00    -0.371 OA
ATOM     39  H   UNL     1      -2.053  -4.015   0.105  0.00  0.00    +0.212 HD
ENDBRANCH  25  38
ENDBRANCH   2  25
TORSDOF 10
