REMARK  Name = ZINC01028524
REMARK  4 active torsions:
REMARK  status: ('A' for Active; 'I' for Inactive)
REMARK    1  A    between atoms: C_1  and  N_2
REMARK    2  A    between atoms: C_5  and  C_8
REMARK    3  A    between atoms: C_14  and  C_16
REMARK    4  A    between atoms: C_20  and  C_22
REMARK                            x       y       z     vdW  Elec       q    Type
REMARK                         _______ _______ _______ _____ _____    ______ ____
ROOT
ATOM      1  C   UNL     1      -0.922   3.047  -0.862  0.00  0.00    +0.140 C 
ATOM      2  N   UNL     1      -0.328   1.846  -0.268  0.00  0.00    -0.253 N 
ATOM      3  C   UNL     1      -0.160   1.763   1.109  0.00  0.00    +0.167 A 
ATOM      4  N   UNL     1      -0.471   2.643   2.042  0.00  0.00    -0.224 NA
ATOM      5  C   UNL     1      -0.237   2.396   3.328  0.00  0.00    +0.087 A 
ATOM      6  C   UNL     1       0.337   1.205   3.686  0.00  0.00    +0.077 A 
ATOM      7  S   UNL     1       0.527   0.433   2.085  0.00  0.00    -0.060 S 
ATOM      8  C   UNL     1       0.054   0.822  -1.056  0.00  0.00    +0.225 C 
ATOM      9  O   UNL     1       0.545  -0.171  -0.564  0.00  0.00    -0.275 OA
ENDROOT
BRANCH   5  10
ATOM     10  C   UNL     1      -0.592   3.395   4.359  0.00  0.00    +0.040 A 
ATOM     11  C   UNL     1      -1.170   4.625   4.204  0.00  0.00    +0.019 A 
ATOM     12  C   UNL     1      -1.410   5.391   5.326  0.00  0.00    +0.028 A 
ATOM     13  C   UNL     1      -1.066   4.902   6.546  0.00  0.00    +0.079 A 
ATOM     14  S   UNL     1      -0.384   3.306   6.130  0.00  0.00    -0.075 S 
ATOM     15 CL   UNL     1      -1.248   5.638   8.107  0.00  0.00    -0.076 Cl
ENDBRANCH   5  10
BRANCH   8  16
ATOM     16  C   UNL     1      -0.128   0.913  -2.549  0.00  0.00    +0.089 C 
ATOM     17  C   UNL     1       0.617  -0.184  -3.328  0.00  0.00    +0.014 C 
ATOM     18  C   UNL     1      -0.648  -1.044  -3.172  0.00  0.00    +0.016 C 
ATOM     19  C   UNL     1      -1.435   0.275  -3.050  0.00  0.00    +0.114 C 
BRANCH  19  20
ATOM     20  C   UNL     1      -2.525   0.236  -2.010  0.00  0.00    +0.360 C 
ATOM     21  O   UNL     1      -3.510   0.943  -2.134  0.00  0.00    -0.246 OA
ATOM     22  O   UNL     1      -2.421  -0.503  -1.046  0.00  0.00    -0.246 OA
ENDBRANCH  19  20
ENDBRANCH   8  16
TORSDOF 3
