REMARK  Name = ZINC04117156
REMARK  11 active torsions:
REMARK  status: ('A' for Active; 'I' for Inactive)
REMARK    1  A    between atoms: C_1  and  C_2
REMARK    2  A    between atoms: C_2  and  C_3
REMARK    3  A    between atoms: C_2  and  C_4
REMARK    4  A    between atoms: C_2  and  C_5
REMARK    5  A    between atoms: C_8  and  O_11
REMARK    6  A    between atoms: O_11  and  C_12
REMARK    7  A    between atoms: C_12  and  C_13
REMARK    8  A    between atoms: N_15  and  N_16
REMARK    9  A    between atoms: C_17  and  C_18
REMARK   10  A    between atoms: C_21  and  N_27
REMARK   11  A    between atoms: C_22  and  N_24
REMARK                            x       y       z     vdW  Elec       q    Type
REMARK                         _______ _______ _______ _____ _____    ______ ____
ROOT
ATOM      1  C   UNL     1      -2.390  -4.149   0.131  0.00  0.00    +0.270 C 
ATOM      2  O   UNL     1      -1.327  -4.729   0.198  0.00  0.00    -0.270 OA
ATOM      3  N   UNL     1      -2.420  -2.803   0.059  0.00  0.00    -0.204 N 
ATOM      4  H   UNL     1      -3.270  -2.339   0.006  0.00  0.00    +0.177 HD
ENDROOT
BRANCH   3   5
ATOM      5  N   UNL     1      -1.223  -2.075   0.061  0.00  0.00    -0.188 NA
ATOM      6  C   UNL     1      -1.252  -0.779  -0.009  0.00  0.00    +0.138 C 
BRANCH   6   7
ATOM      7  C   UNL     1       0.008  -0.013  -0.007  0.00  0.00    -0.003 A 
ATOM      8  C   UNL     1       1.234  -0.681   0.070  0.00  0.00    +0.011 A 
ATOM      9  C   UNL     1       2.408   0.038   0.070  0.00  0.00    +0.026 A 
ATOM     10  C   UNL     1       2.376   1.427  -0.005  0.00  0.00    +0.060 A 
ATOM     11  C   UNL     1       1.158   2.094  -0.080  0.00  0.00    +0.148 A 
ATOM     12  C   UNL     1      -0.021   1.382  -0.082  0.00  0.00    +0.044 A 
BRANCH  10  13
ATOM     13  N   UNL     1       3.567   2.152  -0.004  0.00  0.00    -0.328 N 
ATOM     14  C   UNL     1       4.414   1.784   1.159  0.00  0.00    +0.105 C 
ATOM     15  C   UNL     1       5.829   2.243   0.728  0.00  0.00    +0.020 C 
ATOM     16  C   UNL     1       5.855   1.912  -0.782  0.00  0.00    +0.020 C 
ATOM     17  C   UNL     1       4.375   1.844  -1.204  0.00  0.00    +0.105 C 
ENDBRANCH  10  13
BRANCH  11  18
ATOM     18  N   UNL     1       1.129   3.572  -0.160  0.00  0.00    +0.058 N 
ATOM     19  O   UNL     1       0.064   4.163  -0.128  0.00  0.00    -0.126 OA
ATOM     20  O   UNL     1       2.169   4.198  -0.257  0.00  0.00    -0.126 OA
ENDBRANCH  11  18
ENDBRANCH   6   7
ENDBRANCH   3   5
BRANCH   1  21
ATOM     21  C   UNL     1      -3.678  -4.932   0.129  0.00  0.00    +0.326 C 
BRANCH  21  22
ATOM     22  O   UNL     1      -3.386  -6.329   0.213  0.00  0.00    -0.483 OA
BRANCH  22  26
ATOM     23  C   UNL     1      -6.600  -8.915   0.242  0.00  0.00    -0.042 A 
ATOM     24  C   UNL     1      -5.312  -9.414   0.312  0.00  0.00    +0.008 A 
ATOM     25  C   UNL     1      -4.234  -8.550   0.302  0.00  0.00    +0.046 A 
ATOM     26  C   UNL     1      -4.445  -7.181   0.223  0.00  0.00    +0.121 A 
ATOM     27  C   UNL     1      -5.738  -6.683   0.158  0.00  0.00    +0.046 A 
ATOM     28  C   UNL     1      -6.812  -7.551   0.162  0.00  0.00    +0.008 A 
BRANCH  23  30
ATOM     29  C   UNL     1      -7.761 -10.674   1.547  0.00  0.00    +0.015 C 
ATOM     30  C   UNL     1      -7.774  -9.860   0.252  0.00  0.00    -0.013 C 
ATOM     31  C   UNL     1      -9.074  -9.059   0.166  0.00  0.00    +0.015 C 
ATOM     32  C   UNL     1      -7.677 -10.806  -0.946  0.00  0.00    +0.015 C 
ENDBRANCH  23  30
ENDBRANCH  22  26
ENDBRANCH  21  22
ENDBRANCH   1  21
TORSDOF 8
