REMARK  Name = ZINC08455997
REMARK  11 active torsions:
REMARK  status: ('A' for Active; 'I' for Inactive)
REMARK    1  A    between atoms: C_1  and  C_2
REMARK    2  A    between atoms: C_2  and  C_4
REMARK    3  A    between atoms: C_2  and  N_25
REMARK    4  A    between atoms: C_7  and  S_10
REMARK    5  A    between atoms: N_8  and  C_9
REMARK    6  A    between atoms: S_10  and  C_11
REMARK    7  A    between atoms: C_11  and  C_12
REMARK    8  A    between atoms: N_14  and  N_15
REMARK    9  A    between atoms: C_16  and  C_17
REMARK   10  A    between atoms: C_16  and  C_18
REMARK   11  A    between atoms: N_25  and  C_26
REMARK                            x       y       z     vdW  Elec       q    Type
REMARK                         _______ _______ _______ _____ _____    ______ ____
ROOT
ATOM      1  C   UNL     1       3.014   1.042   4.564  0.00  0.00    +0.154 A 
ATOM      2  N   UNL     1       3.125   2.289   4.201  0.00  0.00    -0.132 NA
ATOM      3  N   UNL     1       4.236   2.470   3.580  0.00  0.00    -0.122 NA
ATOM      4  C   UNL     1       4.895   1.337   3.505  0.00  0.00    +0.192 A 
ATOM      5  N   UNL     1       4.135   0.390   4.131  0.00  0.00    -0.308 N 
ATOM      6  C   UNL     1       4.455  -1.029   4.303  0.00  0.00    +0.152 C 
ENDROOT
BRANCH   1   8
ATOM      7  C   UNL     1       0.666   0.268   4.375  0.00  0.00    +0.036 C 
ATOM      8  C   UNL     1       1.860   0.431   5.317  0.00  0.00    +0.135 C 
BRANCH   8   9
ATOM      9  N   UNL     1       1.487   1.305   6.432  0.00  0.00    -0.334 N 
ATOM     10  H   UNL     1       1.684   2.254   6.392  0.00  0.00    +0.147 HD
BRANCH   9  11
ATOM     11  C   UNL     1       0.846   0.772   7.553  0.00  0.00    +0.028 A 
ATOM     12  C   UNL     1       0.557  -0.585   7.610  0.00  0.00    +0.024 A 
ATOM     13  C   UNL     1      -0.072  -1.110   8.722  0.00  0.00    +0.017 A 
ATOM     14  C   UNL     1      -0.424  -0.284   9.774  0.00  0.00    +0.018 A 
ATOM     15  C   UNL     1      -0.142   1.070   9.718  0.00  0.00    +0.017 A 
ATOM     16  C   UNL     1       0.491   1.599   8.611  0.00  0.00    +0.024 A 
ATOM     17 BR   UNL     1      -1.291  -1.005  11.291  0.00  0.00    -0.050 Br
ENDBRANCH   9  11
ENDBRANCH   8   9
ENDBRANCH   1   8
BRANCH   4  18
ATOM     18  S   UNL     1       6.463   1.085   2.742  0.00  0.00    -0.077 S 
BRANCH  18  19
ATOM     19  C   UNL     1       6.803   2.765   2.161  0.00  0.00    +0.174 C 
BRANCH  19  20
ATOM     20  C   UNL     1       8.134   2.792   1.455  0.00  0.00    +0.242 C 
ATOM     21  O   UNL     1       8.788   1.776   1.354  0.00  0.00    -0.273 OA
ATOM     22  N   UNL     1       8.597   3.946   0.935  0.00  0.00    -0.206 N 
ATOM     23  H   UNL     1       8.074   4.759   1.015  0.00  0.00    +0.177 HD
BRANCH  22  24
ATOM     24  N   UNL     1       9.835   3.972   0.279  0.00  0.00    -0.185 NA
ATOM     25  C   UNL     1      10.334   5.101  -0.121  0.00  0.00    +0.063 C 
ATOM     26  C   UNL     1      11.568   5.115  -0.985  0.00  0.00    +0.068 C 
BRANCH  25  27
ATOM     27  C   UNL     1       9.694   6.370   0.271  0.00  0.00    -0.002 A 
ATOM     28  C   UNL     1       9.652   7.441  -0.625  0.00  0.00    +0.012 A 
ATOM     29  C   UNL     1       9.047   8.623  -0.255  0.00  0.00    +0.039 A 
ATOM     30  C   UNL     1       8.491   8.755   1.008  0.00  0.00    +0.123 A 
ATOM     31  C   UNL     1       8.534   7.698   1.903  0.00  0.00    +0.039 A 
ATOM     32  C   UNL     1       9.131   6.509   1.542  0.00  0.00    +0.012 A 
ATOM     33  F   UNL     1       7.904   9.917   1.367  0.00  0.00    -0.205 F 
ENDBRANCH  25  27
ENDBRANCH  22  24
ENDBRANCH  19  20
ENDBRANCH  18  19
ENDBRANCH   4  18
TORSDOF 8
