REMARK  Name = ZINC43688663
REMARK  4 active torsions:
REMARK  status: ('A' for Active; 'I' for Inactive)
REMARK    1  A    between atoms: C_6  and  N_7
REMARK    2  A    between atoms: C_10  and  S_12
REMARK    3  A    between atoms: S_12  and  C_13
REMARK    4  A    between atoms: C_13  and  C_14
REMARK                            x       y       z     vdW  Elec       q    Type
REMARK                         _______ _______ _______ _____ _____    ______ ____
ROOT
ATOM      1  C   UNL     1      -0.017   1.388   0.010  0.00  0.00    +0.025 A 
ATOM      2  C   UNL     1       1.161   2.101   0.002  0.00  0.00    +0.032 A 
ATOM      3  C   UNL     1       2.383   1.426  -0.013  0.00  0.00    +0.090 A 
ATOM      4  C   UNL     1       2.400   0.021  -0.021  0.00  0.00    +0.069 A 
ATOM      5  C   UNL     1       1.208  -0.686  -0.014  0.00  0.00    +0.050 A 
ATOM      6  C   UNL     1       0.002  -0.004   0.002  0.00  0.00    +0.027 A 
ATOM      7  N   UNL     1       3.735  -0.348  -0.035  0.00  0.00    -0.333 N 
ATOM      8  H   UNL     1       4.081  -1.255  -0.044  0.00  0.00    +0.168 HD
ATOM      9  C   UNL     1       4.474   0.802  -0.036  0.00  0.00    +0.168 A 
ATOM     10  N   UNL     1       3.679   1.842  -0.023  0.00  0.00    -0.222 NA
ENDROOT
BRANCH   6  11
ATOM     11  N   UNL     1      -1.202  -0.717   0.010  0.00  0.00    -0.358 N 
ATOM     12  H   UNL     1      -2.047  -0.242   0.020  0.00  0.00    +0.142 HD
ATOM     13  H   UNL     1      -1.191  -1.687   0.004  0.00  0.00    +0.142 HD
ENDBRANCH   6  11
BRANCH   9  14
ATOM     14  S   UNL     1       6.235   0.874  -0.052  0.00  0.00    -0.083 S 
BRANCH  14  15
ATOM     15  C   UNL     1       6.601   2.650  -0.046  0.00  0.00    +0.119 C 
BRANCH  15  16
ATOM     16  C   UNL     1       8.094   2.855  -0.059  0.00  0.00    +0.001 A 
ATOM     17  C   UNL     1       8.930   2.982  -1.119  0.00  0.00    +0.027 A 
ATOM     18  C   UNL     1      10.281   3.164  -0.889  0.00  0.00    +0.025 A 
ATOM     19  C   UNL     1      10.730   3.211   0.389  0.00  0.00    +0.060 A 
ATOM     20  S   UNL     1       9.220   3.002   1.319  0.00  0.00    -0.100 S 
ATOM     21 BR   UNL     1      11.484   3.346  -2.337  0.00  0.00    -0.050 Br
ENDBRANCH  15  16
ENDBRANCH  14  15
ENDBRANCH   9  14
TORSDOF 4
