REMARK  Name = ZINC20756905
REMARK  6 active torsions:
REMARK  status: ('A' for Active; 'I' for Inactive)
REMARK    1  A    between atoms: C_1  and  C_2
REMARK    2  A    between atoms: C_2  and  C_3
REMARK    3  A    between atoms: C_3  and  C_4
REMARK    4  A    between atoms: C_4  and  N_5
REMARK    5  A    between atoms: C_10  and  C_28
REMARK    6  A    between atoms: C_28  and  C_29
REMARK                            x       y       z     vdW  Elec       q    Type
REMARK                         _______ _______ _______ _____ _____    ______ ____
ROOT
ATOM      1  N   UNL     1       1.471  -2.526   2.420  0.00  0.00    -0.242 N 
ATOM      2  C   UNL     1       2.791  -2.744   2.436  0.00  0.00    +0.227 C 
ATOM      3  O   UNL     1       3.541  -2.574   1.498  0.00  0.00    -0.275 OA
ATOM      4  C   UNL     1       3.203  -3.235   3.805  0.00  0.00    +0.107 C 
ATOM      5  C   UNL     1       3.663  -4.704   3.704  0.00  0.00    +0.072 C 
ATOM      6  N   UNL     1       2.418  -5.505   3.847  0.00  0.00    -0.295 NA
ATOM      7  C   UNL     1       1.640  -4.780   4.869  0.00  0.00    +0.136 C 
ATOM      8  C   UNL     1       1.862  -3.273   4.591  0.00  0.00    +0.122 C 
ATOM      9  C   UNL     1       0.852  -2.782   3.578  0.00  0.00    +0.228 C 
ATOM     10  O   UNL     1      -0.335  -2.645   3.783  0.00  0.00    -0.275 OA
ATOM     11  C   UNL     1       0.184  -5.145   4.816  0.00  0.00    +0.005 A 
ATOM     12  C   UNL     1      -0.781  -5.055   3.838  0.00  0.00    +0.027 A 
ATOM     13  C   UNL     1      -2.072  -5.485   4.097  0.00  0.00    +0.041 A 
ATOM     14  C   UNL     1      -2.388  -6.005   5.340  0.00  0.00    +0.022 A 
ATOM     15  C   UNL     1      -1.424  -6.095   6.322  0.00  0.00    +0.025 A 
ATOM     16  C   UNL     1      -0.124  -5.665   6.070  0.00  0.00    +0.039 A 
ATOM     17  N   UNL     1       1.008  -5.652   6.889  0.00  0.00    -0.283 N 
ATOM     18  C   UNL     1       2.086  -5.146   6.259  0.00  0.00    +0.243 C 
ATOM     19  O   UNL     1       3.199  -5.012   6.722  0.00  0.00    -0.273 OA
ATOM     20 CL   UNL     1      -3.290  -5.373   2.865  0.00  0.00    -0.084 Cl
ATOM     21  H   UNL     1       1.915  -5.550   2.974  0.00  0.00    +0.124 HD
ATOM     22  H   UNL     1       1.017  -5.971   7.805  0.00  0.00    +0.155 HD
ENDROOT
BRANCH   1  23
ATOM     23  C   UNL     1       0.763  -2.041   1.233  0.00  0.00    +0.116 C 
BRANCH  23  24
ATOM     24  C   UNL     1       0.742  -0.511   1.242  0.00  0.00    +0.019 C 
BRANCH  24  26
ATOM     25  C   UNL     1      -0.019   1.526   0.010  0.00  0.00    +0.004 C 
ATOM     26  C   UNL     1       0.002  -0.004   0.002  0.00  0.00    -0.002 C 
ENDBRANCH  24  26
ENDBRANCH  23  24
ENDBRANCH   1  23
BRANCH   5  27
ATOM     27  C   UNL     1       4.314  -4.966   2.344  0.00  0.00    +0.056 C 
BRANCH  27  28
ATOM     28  C   UNL     1       4.865  -6.368   2.312  0.00  0.00    -0.021 A 
ATOM     29  C   UNL     1       6.124  -6.737   2.592  0.00  0.00    +0.087 A 
ATOM     30  N   UNL     1       6.254  -8.093   2.457  0.00  0.00    -0.360 N 
ATOM     31  H   UNL     1       7.072  -8.592   2.607  0.00  0.00    +0.165 HD
ATOM     32  C   UNL     1       5.050  -8.643   2.077  0.00  0.00    +0.047 A 
ATOM     33  C   UNL     1       4.125  -7.587   1.975  0.00  0.00    +0.003 A 
ATOM     34  C   UNL     1       2.805  -7.851   1.608  0.00  0.00    +0.010 A 
ATOM     35  C   UNL     1       2.416  -9.136   1.351  0.00  0.00    +0.001 A 
ATOM     36  C   UNL     1       3.323 -10.181   1.454  0.00  0.00    +0.002 A 
ATOM     37  C   UNL     1       4.634  -9.942   1.806  0.00  0.00    +0.026 A 
ENDBRANCH  27  28
ENDBRANCH   5  27
TORSDOF 5
