REMARK  Name = ZINC65587222
REMARK  4 active torsions:
REMARK  status: ('A' for Active; 'I' for Inactive)
REMARK    1  A    between atoms: C_3  and  C_8
REMARK    2  A    between atoms: C_8  and  C_14
REMARK    3  A    between atoms: C_14  and  N_15
REMARK    4  A    between atoms: N_15  and  C_16
REMARK                            x       y       z     vdW  Elec       q    Type
REMARK                         _______ _______ _______ _____ _____    ______ ____
ROOT
ATOM      1  C   UNL     1       3.751   2.271   0.031  0.00  0.00    +0.015 C 
ATOM      2  C   UNL     1       4.040   3.279   1.148  0.00  0.00    +0.041 C 
ATOM      3  C   UNL     1       5.453   3.838   0.967  0.00  0.00    +0.160 C 
ATOM      4  O   UNL     1       6.394   2.763   0.972  0.00  0.00    -0.380 OA
ATOM      5  C   UNL     1       6.202   1.815  -0.080  0.00  0.00    +0.160 C 
ATOM      6  C   UNL     1       4.819   1.173   0.060  0.00  0.00    +0.041 C 
ENDROOT
BRANCH   1   9
ATOM      7  C   UNL     1       0.712   0.068  -0.380  0.00  0.00    +0.003 A 
ATOM      8  C   UNL     1       1.959   0.632  -0.575  0.00  0.00    +0.004 A 
ATOM      9  C   UNL     1       2.392   1.657   0.246  0.00  0.00    -0.037 A 
ATOM     10  C   UNL     1       1.578   2.118   1.263  0.00  0.00    +0.042 A 
ATOM     11  C   UNL     1       0.329   1.554   1.460  0.00  0.00    +0.124 A 
ATOM     12  C   UNL     1      -0.103   0.528   0.636  0.00  0.00    +0.038 A 
ATOM     13  F   UNL     1      -0.467   2.003   2.455  0.00  0.00    -0.205 F 
ENDBRANCH   1   9
BRANCH   1  14
ATOM     14  C   UNL     1       3.784   2.982  -1.323  0.00  0.00    +0.113 C 
BRANCH  14  15
ATOM     15  N   UNL     1       2.727   3.995  -1.368  0.00  0.00    -0.341 N 
ATOM     16  H   UNL     1       2.143   4.122  -0.604  0.00  0.00    +0.146 HD
BRANCH  15  17
ATOM     17  C   UNL     1       2.562   4.773  -2.502  0.00  0.00    +0.071 A 
ATOM     18  C   UNL     1       3.404   4.591  -3.619  0.00  0.00    +0.157 A 
ATOM     19  N   UNL     1       3.250   5.322  -4.688  0.00  0.00    -0.177 NA
ATOM     20  N   UNL     1       2.253   6.300  -4.755  0.00  0.00    -0.242 N 
ATOM     21  H   UNL     1       2.155   6.833  -5.559  0.00  0.00    +0.192 HD
ATOM     22  C   UNL     1       1.426   6.508  -3.711  0.00  0.00    +0.285 A 
ATOM     23  O   UNL     1       0.557   7.364  -3.776  0.00  0.00    -0.265 OA
ATOM     24  C   UNL     1       1.566   5.732  -2.551  0.00  0.00    +0.129 A 
ATOM     25 CL   UNL     1       0.509   5.975  -1.196  0.00  0.00    -0.076 Cl
ENDBRANCH  15  17
ENDBRANCH  14  15
ENDBRANCH   1  14
TORSDOF 4
