REMARK  Name = ZINC09287553
REMARK  7 active torsions:
REMARK  status: ('A' for Active; 'I' for Inactive)
REMARK    1  A    between atoms: C_1  and  C_2
REMARK    2  A    between atoms: C_11  and  C_13
REMARK    3  A    between atoms: C_16  and  S_19
REMARK    4  A    between atoms: S_19  and  C_20
REMARK    5  A    between atoms: N_21  and  C_22
REMARK    6  A    between atoms: C_22  and  C_23
REMARK    7  A    between atoms: C_23  and  C_24
REMARK                            x       y       z     vdW  Elec       q    Type
REMARK                         _______ _______ _______ _____ _____    ______ ____
ROOT
ATOM      1  C   UNL     1      -2.455   4.131   0.033  0.00  0.00    +0.066 C 
ATOM      2  C   UNL     1      -1.146   3.385   0.013  0.00  0.00    +0.047 A 
ATOM      3  C   UNL     1       0.030   4.075  -0.015  0.00  0.00    +0.093 A 
ATOM      4  C   UNL     1       1.242   3.358  -0.027  0.00  0.00    +0.257 A 
ATOM      5  O   UNL     1       2.313   3.942  -0.063  0.00  0.00    -0.267 OA
ATOM      6  N   UNL     1       1.192   2.015   0.002  0.00  0.00    -0.255 N 
ATOM      7  C   UNL     1      -0.017   1.378   0.010  0.00  0.00    +0.207 A 
ATOM      8  N   UNL     1      -1.142   2.051   0.019  0.00  0.00    -0.221 NA
ATOM      9  N   UNL     1       0.002  -0.004   0.002  0.00  0.00    -0.259 N 
ATOM     10  C   UNL     1       1.020  -0.598  -0.736  0.00  0.00    +0.162 C 
ATOM     11  C   UNL     1       2.412   1.202   0.035  0.00  0.00    +0.220 C 
ATOM     12  N   UNL     1       0.799  -1.761  -1.435  0.00  0.00    -0.318 N 
ATOM     13  H   UNL     1      -0.656  -0.529   0.484  0.00  0.00    +0.158 HD
ATOM     14  H   UNL     1      -0.077  -2.178  -1.417  0.00  0.00    +0.149 HD
ATOM     15  N   UNL     1       2.244  -0.050  -0.786  0.00  0.00    -0.337 N 
ATOM     16  H   UNL     1       3.008  -0.452  -1.342  0.00  0.00    +0.164 HD
ENDROOT
BRANCH  11  17
ATOM     17  C   UNL     1       2.736   0.837   1.460  0.00  0.00    -0.004 A 
ATOM     18  C   UNL     1       2.390   1.696   2.488  0.00  0.00    +0.008 A 
ATOM     19  C   UNL     1       2.681   1.363   3.796  0.00  0.00    +0.015 A 
ATOM     20  C   UNL     1       3.332   0.168   4.078  0.00  0.00    +0.008 A 
ATOM     21  C   UNL     1       3.683  -0.690   3.043  0.00  0.00    +0.015 A 
ATOM     22  C   UNL     1       3.384  -0.353   1.737  0.00  0.00    +0.008 A 
BRANCH  20  23
ATOM     23  S   UNL     1       3.712  -0.259   5.745  0.00  0.00    -0.129 S 
ATOM     24  C   UNL     1       3.073   1.137   6.712  0.00  0.00    +0.090 C 
ENDBRANCH  20  23
ENDBRANCH  11  17
BRANCH  12  25
ATOM     25  C   UNL     1       1.885  -2.371  -2.206  0.00  0.00    +0.109 C 
BRANCH  25  26
ATOM     26  C   UNL     1       1.377  -3.646  -2.882  0.00  0.00    +0.056 C 
BRANCH  26  27
ATOM     27  C   UNL     1       2.494  -4.273  -3.675  0.00  0.00    -0.021 A 
ATOM     28  C   UNL     1       2.739  -4.101  -4.984  0.00  0.00    +0.087 A 
ATOM     29  N   UNL     1       3.837  -4.829  -5.353  0.00  0.00    -0.360 N 
ATOM     30  H   UNL     1       4.207  -4.864  -6.249  0.00  0.00    +0.165 HD
ATOM     31  C   UNL     1       4.340  -5.503  -4.263  0.00  0.00    +0.047 A 
ATOM     32  C   UNL     1       3.524  -5.180  -3.163  0.00  0.00    +0.003 A 
ATOM     33  C   UNL     1       3.795  -5.732  -1.910  0.00  0.00    +0.010 A 
ATOM     34  C   UNL     1       4.859  -6.575  -1.755  0.00  0.00    +0.001 A 
ATOM     35  C   UNL     1       5.670  -6.893  -2.836  0.00  0.00    +0.002 A 
ATOM     36  C   UNL     1       5.417  -6.364  -4.083  0.00  0.00    +0.026 A 
ENDBRANCH  26  27
ENDBRANCH  25  26
ENDBRANCH  12  25
TORSDOF 5
