REMARK  Name = ZINC08568307
REMARK  7 active torsions:
REMARK  status: ('A' for Active; 'I' for Inactive)
REMARK    1  A    between atoms: C_1  and  C_2
REMARK    2  A    between atoms: C_2  and  C_3
REMARK    3  A    between atoms: C_3  and  C_4
REMARK    4  A    between atoms: C_11  and  N_30
REMARK    5  A    between atoms: C_12  and  C_28
REMARK    6  A    between atoms: C_13  and  C_15
REMARK    7  A    between atoms: C_20  and  C_21
REMARK                            x       y       z     vdW  Elec       q    Type
REMARK                         _______ _______ _______ _____ _____    ______ ____
ROOT
ATOM      1  C   UNL     1      -1.223  -2.515  -0.307  0.00  0.00    +0.071 A 
ATOM      2  C   UNL     1      -1.428  -3.167  -1.516  0.00  0.00    +0.050 A 
ATOM      3  C   UNL     1      -1.393  -4.514  -1.283  0.00  0.00    +0.222 A 
ATOM      4  N   UNL     1      -1.174  -4.692   0.030  0.00  0.00    -0.246 N 
ATOM      5  H   UNL     1      -1.101  -5.545   0.486  0.00  0.00    +0.192 HD
ATOM      6  N   UNL     1      -1.064  -3.425   0.624  0.00  0.00    -0.176 NA
ATOM      7  O   UNL     1      -1.558  -5.432  -2.267  0.00  0.00    -0.423 OA
ATOM      8  C   UNL     1      -1.487  -5.000  -3.542  0.00  0.00    +0.200 C 
ATOM      9  C   UNL     1      -1.525  -3.697  -3.898  0.00  0.00    +0.098 C 
ATOM     10  C   UNL     1      -1.657  -2.586  -2.887  0.00  0.00    +0.105 C 
ENDROOT
BRANCH  10  11
ATOM     11  C   UNL     1      -3.040  -1.991  -2.962  0.00  0.00    +0.010 A 
ATOM     12  C   UNL     1      -4.193  -2.615  -2.638  0.00  0.00    +0.110 A 
ATOM     13  N   UNL     1      -5.208  -1.748  -2.842  0.00  0.00    -0.284 N 
ATOM     14  H   UNL     1      -6.149  -1.927  -2.690  0.00  0.00    +0.188 HD
ATOM     15  N   UNL     1      -4.666  -0.544  -3.310  0.00  0.00    -0.174 NA
ATOM     16  C   UNL     1      -3.359  -0.683  -3.378  0.00  0.00    +0.097 A 
BRANCH  16  17
ATOM     17  C   UNL     1      -2.392   0.353  -3.820  0.00  0.00    +0.003 A 
ATOM     18  C   UNL     1      -1.152   0.462  -3.196  0.00  0.00    +0.013 A 
ATOM     19  C   UNL     1      -0.256   1.427  -3.609  0.00  0.00    +0.039 A 
ATOM     20  C   UNL     1      -0.589   2.286  -4.644  0.00  0.00    +0.123 A 
ATOM     21  C   UNL     1      -1.822   2.181  -5.267  0.00  0.00    +0.039 A 
ATOM     22  C   UNL     1      -2.721   1.215  -4.864  0.00  0.00    +0.013 A 
ATOM     23  F   UNL     1       0.290   3.230  -5.045  0.00  0.00    -0.205 F 
ENDBRANCH  16  17
ENDBRANCH  10  11
BRANCH   8  24
ATOM     24  N   UNL     1      -1.370  -5.939  -4.537  0.00  0.00    -0.328 N 
ATOM     25  H   UNL     1      -1.340  -6.882  -4.313  0.00  0.00    +0.145 HD
ATOM     26  H   UNL     1      -1.317  -5.659  -5.464  0.00  0.00    +0.145 HD
ENDBRANCH   8  24
BRANCH   9  27
ATOM     27  C   UNL     1      -1.437  -3.359  -5.287  0.00  0.00    +0.101 C 
ATOM     28  N   UNL     1      -1.368  -3.090  -6.389  0.00  0.00    -0.191 NA
ENDBRANCH   9  27
BRANCH   1  29
ATOM     29  C   UNL     1      -1.184  -1.023  -0.103  0.00  0.00    +0.057 C 
BRANCH  29  31
ATOM     30  C   UNL     1       0.306   0.977   0.045  0.00  0.00    +0.004 C 
ATOM     31  C   UNL     1       0.266  -0.538  -0.163  0.00  0.00    +0.003 C 
ENDBRANCH  29  31
ENDBRANCH   1  29
TORSDOF 6
