REMARK  Name = ZINC08386088
REMARK  8 active torsions:
REMARK  status: ('A' for Active; 'I' for Inactive)
REMARK    1  A    between atoms: C_5  and  C_7
REMARK    2  A    between atoms: N_9  and  C_10
REMARK    3  A    between atoms: C_10  and  C_17
REMARK    4  A    between atoms: C_11  and  C_12
REMARK    5  A    between atoms: N_19  and  N_20
REMARK    6  A    between atoms: C_21  and  C_22
REMARK    7  A    between atoms: C_25  and  O_29
REMARK    8  A    between atoms: C_27  and  O_28
REMARK                            x       y       z     vdW  Elec       q    Type
REMARK                         _______ _______ _______ _____ _____    ______ ____
ROOT
ATOM      1  C   UNL     1       7.103   3.674  -0.034  0.00  0.00    +0.099 C 
ATOM      2  C   UNL     1       7.075   5.034  -0.030  0.00  0.00    +0.043 C 
ENDROOT
BRANCH   2   3
ATOM      3  C   UNL     1       5.840   5.717   0.094  0.00  0.00    +0.014 A 
ATOM      4  C   UNL     1       5.582   7.080   0.021  0.00  0.00    +0.015 A 
ATOM      5  C   UNL     1       4.287   7.506   0.174  0.00  0.00    +0.008 A 
ATOM      6  C   UNL     1       3.304   6.590   0.390  0.00  0.00    +0.046 A 
ATOM      7  S   UNL     1       4.208   5.051   0.377  0.00  0.00    -0.097 S 
ENDBRANCH   2   3
BRANCH   1  10
ATOM      8  C   UNL     1       8.358   1.656  -0.158  0.00  0.00    +0.250 C 
ATOM      9  O   UNL     1       7.328   1.040  -0.352  0.00  0.00    -0.270 OA
ATOM     10  N   UNL     1       8.329   2.998  -0.044  0.00  0.00    -0.277 N 
ATOM     11  H   UNL     1       9.158   3.497   0.032  0.00  0.00    +0.155 HD
BRANCH   8  16
ATOM     12  C   UNL     1      12.022   0.956   0.273  0.00  0.00    +0.001 A 
ATOM     13  C   UNL     1      12.049  -0.423   0.156  0.00  0.00    +0.001 A 
ATOM     14  C   UNL     1      10.880  -1.128  -0.064  0.00  0.00    +0.021 A 
ATOM     15  C   UNL     1       9.675  -0.459  -0.167  0.00  0.00    +0.053 A 
ATOM     16  C   UNL     1       9.642   0.933  -0.049  0.00  0.00    +0.055 A 
ATOM     17  C   UNL     1      10.828   1.637   0.168  0.00  0.00    +0.014 A 
ATOM     18 CL   UNL     1       8.208  -1.345  -0.443  0.00  0.00    -0.083 Cl
ENDBRANCH   8  16
ENDBRANCH   1  10
BRANCH   1  19
ATOM     19  C   UNL     1       5.850   2.917  -0.028  0.00  0.00    +0.277 C 
ATOM     20  O   UNL     1       5.384   2.518   1.024  0.00  0.00    -0.267 OA
ATOM     21  N   UNL     1       5.212   2.661  -1.188  0.00  0.00    -0.202 N 
ATOM     22  H   UNL     1       5.618   2.915  -2.031  0.00  0.00    +0.178 HD
BRANCH  21  23
ATOM     23  N   UNL     1       3.962   2.028  -1.175  0.00  0.00    -0.187 NA
ATOM     24  C   UNL     1       3.391   1.694  -2.292  0.00  0.00    +0.142 C 
BRANCH  24  25
ATOM     25  C   UNL     1       2.131   0.932  -2.277  0.00  0.00    +0.036 A 
ATOM     26  C   UNL     1       1.515   0.571  -3.478  0.00  0.00    +0.016 A 
ATOM     27  C   UNL     1       0.336  -0.142  -3.459  0.00  0.00    +0.046 A 
ATOM     28  C   UNL     1      -0.240  -0.509  -2.249  0.00  0.00    +0.120 A 
ATOM     29  C   UNL     1       0.361  -0.151  -1.051  0.00  0.00    +0.091 A 
ATOM     30  C   UNL     1       1.545   0.565  -1.057  0.00  0.00    +0.129 A 
BRANCH  30  31
ATOM     31  O   UNL     1       2.138   0.911   0.115  0.00  0.00    -0.506 OA
ATOM     32  H   UNL     1       2.766   0.256   0.447  0.00  0.00    +0.292 HD
ENDBRANCH  30  31
BRANCH  28  33
ATOM     33  O   UNL     1      -1.399  -1.217  -2.239  0.00  0.00    -0.507 OA
ATOM     34  H   UNL     1      -2.195  -0.668  -2.231  0.00  0.00    +0.292 HD
ENDBRANCH  28  33
ENDBRANCH  24  25
ENDBRANCH  21  23
ENDBRANCH   1  19
TORSDOF 8
