REMARK  Name = ZINC35416298
REMARK  12 active torsions:
REMARK  status: ('A' for Active; 'I' for Inactive)
REMARK    1  A    between atoms: C_1  and  C_2
REMARK    2  A    between atoms: C_5  and  C_8
REMARK    3  A    between atoms: C_8  and  N_9
REMARK    4  A    between atoms: N_9  and  C_10
REMARK    5  A    between atoms: N_9  and  C_25
REMARK    6  A    between atoms: C_10  and  C_11
REMARK    7  A    between atoms: C_11  and  C_12
REMARK    8  A    between atoms: C_12  and  C_13
REMARK    9  A    between atoms: C_12  and  C_19
REMARK   10  A    between atoms: C_25  and  C_26
REMARK   11  A    between atoms: C_28  and  C_31
REMARK   12  A    between atoms: C_36  and  C_39
REMARK                            x       y       z     vdW  Elec       q    Type
REMARK                         _______ _______ _______ _____ _____    ______ ____
ROOT
ATOM      1  N   UNL     1       3.433  -5.103  -0.063  0.00  0.00    +0.386 N 
ATOM      2  H   UNL     1       3.928  -4.583  -0.772  0.00  0.00    -0.081 HD
ENDROOT
BRANCH   1   3
ATOM      3  C   UNL     1       2.357  -4.271   0.491  0.00  0.00    -0.042 C 
BRANCH   3   8
ATOM      4  C   UNL     1       4.562   0.714   2.408  0.00  0.00    +0.044 C 
ATOM      5  C   UNL     1       3.987  -0.586   1.908  0.00  0.00    -0.050 A 
ATOM      6  C   UNL     1       3.666  -0.731   0.572  0.00  0.00    +0.003 A 
ATOM      7  C   UNL     1       3.139  -1.924   0.113  0.00  0.00    +0.002 A 
ATOM      8  C   UNL     1       2.932  -2.971   0.991  0.00  0.00    -0.064 A 
ATOM      9  C   UNL     1       3.254  -2.826   2.328  0.00  0.00    +0.002 A 
ATOM     10  C   UNL     1       3.785  -1.635   2.785  0.00  0.00    +0.003 A 
ENDBRANCH   3   8
ENDBRANCH   1   3
BRANCH   1  11
ATOM     11  C   UNL     1       2.858  -6.317  -0.657  0.00  0.00    -0.077 C 
BRANCH  11  12
ATOM     12  C   UNL     1       1.985  -5.934  -1.855  0.00  0.00    -0.006 C 
BRANCH  12  13
ATOM     13  C   UNL     1       1.386  -7.198  -2.474  0.00  0.00    +0.047 C 
BRANCH  13  14
ATOM     14  C   UNL     1       0.448  -7.844  -1.487  0.00  0.00    -0.040 A 
ATOM     15  C   UNL     1       0.604  -9.178  -1.157  0.00  0.00    +0.004 A 
ATOM     16  C   UNL     1      -0.257  -9.771  -0.252  0.00  0.00    +0.000 A 
ATOM     17  C   UNL     1      -1.273  -9.030   0.323  0.00  0.00    +0.000 A 
ATOM     18  C   UNL     1      -1.428  -7.697  -0.007  0.00  0.00    +0.000 A 
ATOM     19  C   UNL     1      -0.565  -7.103  -0.908  0.00  0.00    +0.004 A 
ENDBRANCH  13  14
BRANCH  13  20
ATOM     20  C   UNL     1       0.627  -6.833  -3.724  0.00  0.00    -0.040 A 
ATOM     21  C   UNL     1      -0.371  -5.878  -3.673  0.00  0.00    +0.004 A 
ATOM     22  C   UNL     1      -1.067  -5.544  -4.820  0.00  0.00    +0.000 A 
ATOM     23  C   UNL     1      -0.765  -6.165  -6.017  0.00  0.00    +0.000 A 
ATOM     24  C   UNL     1       0.234  -7.120  -6.068  0.00  0.00    +0.000 A 
ATOM     25  C   UNL     1       0.932  -7.451  -4.923  0.00  0.00    +0.004 A 
ENDBRANCH  13  20
ENDBRANCH  12  13
ENDBRANCH  11  12
ENDBRANCH   1  11
BRANCH   1  26
ATOM     26  C   UNL     1       4.364  -5.477   1.010  0.00  0.00    -0.014 C 
BRANCH  26  27
ATOM     27  C   UNL     1       5.542  -6.209   0.420  0.00  0.00    +0.063 A 
ATOM     28  N   UNL     1       6.649  -5.704  -0.053  0.00  0.00    -0.241 NA
ATOM     29  C   UNL     1       7.574  -6.540  -0.534  0.00  0.00    +0.133 A 
ATOM     30  C   UNL     1       7.266  -7.873  -0.482  0.00  0.00    +0.079 A 
ATOM     31  S   UNL     1       5.742  -7.864   0.225  0.00  0.00    -0.082 S 
BRANCH  29  32
ATOM     32  C   UNL     1       8.850  -6.056  -1.087  0.00  0.00    +0.265 C 
ATOM     33  O   UNL     1       9.602  -6.830  -1.648  0.00  0.00    -0.268 OA
ATOM     34  N   UNL     1       9.184  -4.755  -0.973  0.00  0.00    -0.296 N 
ATOM     35  C   UNL     1       8.370  -3.842  -0.159  0.00  0.00    +0.108 C 
ATOM     36  C   UNL     1       9.281  -3.138   0.851  0.00  0.00    +0.022 C 
ATOM     37  C   UNL     1      10.433  -2.459   0.106  0.00  0.00    -0.011 C 
ATOM     38  C   UNL     1      11.258  -3.515  -0.633  0.00  0.00    +0.022 C 
ATOM     39  C   UNL     1      10.373  -4.225  -1.655  0.00  0.00    +0.108 C 
ATOM     40  C   UNL     1      11.326  -1.724   1.108  0.00  0.00    +0.007 C 
ENDBRANCH  29  32
ENDBRANCH  26  27
ENDBRANCH   1  26
TORSDOF 10
