REMARK  Name = ZINC39622830
REMARK  7 active torsions:
REMARK  status: ('A' for Active; 'I' for Inactive)
REMARK    1  A    between atoms: C_1  and  C_2
REMARK    2  A    between atoms: C_2  and  C_4
REMARK    3  A    between atoms: C_2  and  O_14
REMARK    4  A    between atoms: N_6  and  C_7
REMARK    5  A    between atoms: O_14  and  C_15
REMARK    6  A    between atoms: C_15  and  C_17
REMARK    7  A    between atoms: C_23  and  C_25
REMARK                            x       y       z     vdW  Elec       q    Type
REMARK                         _______ _______ _______ _____ _____    ______ ____
ROOT
ATOM      1  C   UNL     1       2.793  -0.919  -1.892  0.00  0.00    +0.110 C 
ATOM      2  C   UNL     1       2.711  -0.120  -3.194  0.00  0.00    +0.015 C 
ATOM      3  C   UNL     1       2.990  -1.046  -4.379  0.00  0.00    +0.001 C 
ATOM      4  C   UNL     1       4.390  -1.648  -4.237  0.00  0.00    +0.001 C 
ATOM      5  C   UNL     1       4.472  -2.447  -2.935  0.00  0.00    +0.013 C 
ATOM      6  C   UNL     1       4.193  -1.521  -1.750  0.00  0.00    +0.089 C 
ENDROOT
BRANCH   6   7
ATOM      7  C   UNL     1       4.274  -2.308  -0.467  0.00  0.00    +0.224 C 
ATOM      8  O   UNL     1       3.272  -2.801   0.006  0.00  0.00    -0.275 OA
ATOM      9  N   UNL     1       5.460  -2.464   0.154  0.00  0.00    -0.271 N 
ATOM     10  C   UNL     1       6.748  -1.996  -0.364  0.00  0.00    +0.118 C 
ATOM     11  C   UNL     1       7.783  -2.408   0.695  0.00  0.00    +0.056 C 
ATOM     12  C   UNL     1       6.974  -3.101   1.768  0.00  0.00    -0.024 A 
ATOM     13  C   UNL     1       5.640  -3.090   1.391  0.00  0.00    +0.039 A 
ATOM     14  C   UNL     1       4.693  -3.673   2.234  0.00  0.00    +0.024 A 
ATOM     15  C   UNL     1       5.082  -4.246   3.426  0.00  0.00    +0.002 A 
ATOM     16  C   UNL     1       6.414  -4.248   3.796  0.00  0.00    +0.000 A 
ATOM     17  C   UNL     1       7.360  -3.680   2.962  0.00  0.00    +0.005 A 
ENDBRANCH   6   7
BRANCH   1  18
ATOM     18  C   UNL     1       2.518  -0.006  -0.724  0.00  0.00    +0.312 C 
ATOM     19  O   UNL     1       3.356   0.147   0.133  0.00  0.00    -0.250 OA
BRANCH  18  20
ATOM     20  O   UNL     1       1.343   0.636  -0.637  0.00  0.00    -0.452 OA
BRANCH  20  22
ATOM     21  C   UNL     1       1.633   2.898   0.163  0.00  0.00    +0.062 C 
ATOM     22  C   UNL     1       1.150   1.485   0.496  0.00  0.00    +0.259 C 
BRANCH  22  23
ATOM     23  C   UNL     1      -0.314   1.525   0.851  0.00  0.00    +0.258 C 
ATOM     24  O   UNL     1      -1.124   0.964   0.144  0.00  0.00    -0.271 OA
ATOM     25  N   UNL     1      -0.723   2.185   1.952  0.00  0.00    -0.280 N 
ATOM     26  H   UNL     1      -0.070   2.571   2.557  0.00  0.00    +0.155 HD
BRANCH  25  27
ATOM     27  C   UNL     1      -2.091   2.312   2.225  0.00  0.00    +0.069 A 
ATOM     28  C   UNL     1      -2.979   1.335   1.799  0.00  0.00    +0.026 A 
ATOM     29  C   UNL     1      -4.327   1.463   2.070  0.00  0.00    +0.002 A 
ATOM     30  C   UNL     1      -4.794   2.564   2.764  0.00  0.00    +0.003 A 
ATOM     31  C   UNL     1      -3.913   3.541   3.190  0.00  0.00    +0.040 A 
ATOM     32  C   UNL     1      -2.561   3.416   2.928  0.00  0.00    +0.144 A 
ATOM     33  F   UNL     1      -1.700   4.368   3.349  0.00  0.00    -0.204 F 
ENDBRANCH  25  27
ENDBRANCH  22  23
ENDBRANCH  20  22
ENDBRANCH  18  20
ENDBRANCH   1  18
TORSDOF 6
