REMARK  Name = ZINC38728596
REMARK  14 active torsions:
REMARK  status: ('A' for Active; 'I' for Inactive)
REMARK    1  A    between atoms: C_1  and  C_2
REMARK    2  A    between atoms: C_2  and  C_3
REMARK    3  A    between atoms: N_16  and  C_29
REMARK    4  A    between atoms: C_17  and  C_19
REMARK    5  A    between atoms: C_22  and  O_25
REMARK    6  A    between atoms: O_25  and  C_26
REMARK    7  A    between atoms: C_26  and  C_27
REMARK    8  A    between atoms: C_26  and  C_28
REMARK    9  A    between atoms: C_29  and  C_30
REMARK   10  A    between atoms: C_30  and  N_31
REMARK   11  A    between atoms: N_31  and  C_32
REMARK   12  A    between atoms: N_31  and  C_34
REMARK   13  A    between atoms: C_32  and  C_33
REMARK   14  A    between atoms: C_34  and  C_35
REMARK                            x       y       z     vdW  Elec       q    Type
REMARK                         _______ _______ _______ _____ _____    ______ ____
ROOT
ATOM      1  C   UNL     1      -1.318  -2.909  -4.237  0.00  0.00    -0.047 A 
ATOM      2  C   UNL     1      -1.331  -2.719  -2.862  0.00  0.00    +0.007 A 
ATOM      3  C   UNL     1      -2.503  -2.822  -2.147  0.00  0.00    +0.047 A 
ATOM      4  C   UNL     1      -3.698  -3.119  -2.803  0.00  0.00    +0.139 A 
ATOM      5  C   UNL     1      -3.673  -3.303  -4.195  0.00  0.00    +0.065 A 
ATOM      6  C   UNL     1      -2.477  -3.194  -4.904  0.00  0.00    +0.019 A 
ATOM      7  C   UNL     1      -4.942  -3.604  -4.905  0.00  0.00    +0.199 A 
ATOM      8  O   UNL     1      -4.989  -3.942  -6.074  0.00  0.00    -0.287 OA
ATOM      9  C   UNL     1      -6.134  -3.456  -4.063  0.00  0.00    +0.072 A 
ATOM     10  C   UNL     1      -6.025  -3.272  -2.714  0.00  0.00    +0.199 A 
ATOM     11  O   UNL     1      -4.837  -3.223  -2.080  0.00  0.00    -0.450 OA
ATOM     12  C   UNL     1      -7.382  -3.150  -2.152  0.00  0.00    +0.283 C 
ATOM     13  O   UNL     1      -7.636  -2.974  -0.977  0.00  0.00    -0.267 OA
ATOM     14  N   UNL     1      -8.301  -3.261  -3.133  0.00  0.00    -0.285 N 
ATOM     15  C   UNL     1      -7.588  -3.464  -4.405  0.00  0.00    +0.144 C 
ENDROOT
BRANCH  15  16
ATOM     16  C   UNL     1      -7.972  -4.790  -5.011  0.00  0.00    -0.022 A 
ATOM     17  C   UNL     1      -8.179  -5.887  -4.196  0.00  0.00    +0.009 A 
ATOM     18  C   UNL     1      -8.530  -7.103  -4.748  0.00  0.00    +0.046 A 
ATOM     19  C   UNL     1      -8.677  -7.223  -6.123  0.00  0.00    +0.121 A 
ATOM     20  C   UNL     1      -8.470  -6.120  -6.939  0.00  0.00    +0.046 A 
ATOM     21  C   UNL     1      -8.123  -4.904  -6.380  0.00  0.00    +0.009 A 
BRANCH  19  22
ATOM     22  O   UNL     1      -9.023  -8.418  -6.669  0.00  0.00    -0.489 OA
BRANCH  22  23
ATOM     23  C   UNL     1      -9.339  -9.478  -5.764  0.00  0.00    +0.167 C 
ATOM     24  C   UNL     1     -10.303 -10.455  -6.440  0.00  0.00    +0.051 C 
ATOM     25  C   UNL     1      -8.056 -10.215  -5.374  0.00  0.00    +0.051 C 
ENDBRANCH  22  23
ENDBRANCH  19  22
ENDBRANCH  15  16
BRANCH   1  27
ATOM     26  C   UNL     1       0.179  -1.345  -5.447  0.00  0.00    +0.009 C 
ATOM     27  C   UNL     1      -0.022  -2.794  -4.998  0.00  0.00    +0.032 C 
ENDBRANCH   1  27
BRANCH  14  28
ATOM     28  C   UNL     1      -9.755  -3.194  -2.962  0.00  0.00    +0.090 C 
BRANCH  28  29
ATOM     29  C   UNL     1     -10.218  -1.743  -3.107  0.00  0.00    -0.060 C 
BRANCH  29  30
ATOM     30  N   UNL     1     -11.685  -1.691  -3.068  0.00  0.00    +0.380 N 
ATOM     31  H   UNL     1     -12.063  -2.336  -3.745  0.00  0.00    -0.082 HD
BRANCH  30  32
ATOM     32  C   UNL     1     -12.153  -2.061  -1.725  0.00  0.00    -0.082 C 
ATOM     33  C   UNL     1     -13.682  -2.129  -1.719  0.00  0.00    -0.017 C 
ENDBRANCH  30  32
BRANCH  30  34
ATOM     34  C   UNL     1     -12.136  -0.329  -3.385  0.00  0.00    -0.082 C 
ATOM     35  C   UNL     1     -11.782   0.000  -4.837  0.00  0.00    -0.017 C 
ENDBRANCH  30  34
ENDBRANCH  29  30
ENDBRANCH  28  29
ENDBRANCH  14  28
TORSDOF 9
