REMARK  Name = ZINC04089795
REMARK  8 active torsions:
REMARK  status: ('A' for Active; 'I' for Inactive)
REMARK    1  A    between atoms: C_1  and  C_2
REMARK    2  A    between atoms: C_6  and  O_27
REMARK    3  A    between atoms: C_7  and  O_26
REMARK    4  A    between atoms: C_12  and  C_13
REMARK    5  A    between atoms: C_13  and  C_14
REMARK    6  A    between atoms: N_16  and  C_17
REMARK    7  A    between atoms: C_17  and  C_19
REMARK    8  A    between atoms: C_17  and  C_20
REMARK                            x       y       z     vdW  Elec       q    Type
REMARK                         _______ _______ _______ _____ _____    ______ ____
ROOT
ATOM      1  C   UNL     1      -2.869   1.962  -0.021  0.00  0.00    +0.045 C 
ATOM      2  C   UNL     1      -2.065   2.203   1.231  0.00  0.00    -0.029 A 
ATOM      3  C   UNL     1      -2.709   2.670   2.460  0.00  0.00    +0.025 A 
ATOM      4  C   UNL     1      -4.088   2.905   2.507  0.00  0.00    +0.015 A 
ATOM      5  C   UNL     1      -4.664   3.345   3.664  0.00  0.00    +0.050 A 
ATOM      6  C   UNL     1      -3.890   3.563   4.800  0.00  0.00    +0.162 A 
ATOM      7  C   UNL     1      -2.520   3.336   4.774  0.00  0.00    +0.202 A 
ATOM      8  C   UNL     1      -1.919   2.888   3.603  0.00  0.00    +0.184 A 
ATOM      9  O   UNL     1      -0.588   2.660   3.554  0.00  0.00    -0.418 OA
ATOM     10  C   UNL     1       0.008   2.228   2.432  0.00  0.00    +0.341 A 
ATOM     11  O   UNL     1       1.211   2.037   2.434  0.00  0.00    -0.245 OA
ATOM     12  C   UNL     1      -0.724   1.989   1.250  0.00  0.00    +0.049 A 
ENDROOT
BRANCH   7  13
ATOM     13  O   UNL     1      -1.770   3.552   5.889  0.00  0.00    -0.501 OA
ATOM     14  H   UNL     1      -1.420   4.450   5.960  0.00  0.00    +0.292 HD
ENDBRANCH   7  13
BRANCH   6  15
ATOM     15  O   UNL     1      -4.479   4.001   5.943  0.00  0.00    -0.503 OA
ATOM     16  H   UNL     1      -4.516   4.964   6.023  0.00  0.00    +0.292 HD
ENDBRANCH   6  15
BRANCH  12  17
ATOM     17  C   UNL     1      -0.018   1.503   0.010  0.00  0.00    +0.138 C 
BRANCH  17  18
ATOM     18  C   UNL     1       0.002  -0.004   0.002  0.00  0.00    +0.218 C 
ATOM     19  O   UNL     1      -0.506  -0.622   0.913  0.00  0.00    -0.275 OA
ATOM     20  N   UNL     1       0.585  -0.664  -1.018  0.00  0.00    -0.308 N 
ATOM     21  H   UNL     1       0.992  -0.170  -1.747  0.00  0.00    +0.149 HD
BRANCH  20  22
ATOM     22  C   UNL     1       0.605  -2.129  -1.026  0.00  0.00    +0.100 C 
ATOM     23  C   UNL     1       1.801  -2.628  -0.213  0.00  0.00    +0.033 C 
BRANCH  22  24
ATOM     24  C   UNL     1       0.722  -2.622  -2.445  0.00  0.00    -0.027 A 
ATOM     25  C   UNL     1       1.551  -1.968  -3.338  0.00  0.00    +0.005 A 
ATOM     26  C   UNL     1       1.661  -2.423  -4.639  0.00  0.00    +0.000 A 
ATOM     27  C   UNL     1       0.936  -3.526  -5.049  0.00  0.00    +0.000 A 
ATOM     28  C   UNL     1       0.104  -4.177  -4.158  0.00  0.00    +0.000 A 
ATOM     29  C   UNL     1      -0.003  -3.725  -2.856  0.00  0.00    +0.005 A 
ENDBRANCH  22  24
ENDBRANCH  20  22
ENDBRANCH  17  18
ENDBRANCH  12  17
TORSDOF 6
