REMARK  Name = ZINC38814984
REMARK  14 active torsions:
REMARK  status: ('A' for Active; 'I' for Inactive)
REMARK    1  A    between atoms: C_1  and  C_2
REMARK    2  A    between atoms: C_2  and  C_3
REMARK    3  A    between atoms: C_2  and  C_4
REMARK    4  A    between atoms: C_2  and  C_5
REMARK    5  A    between atoms: C_7  and  C_16
REMARK    6  A    between atoms: C_9  and  C_12
REMARK    7  A    between atoms: C_10  and  O_11
REMARK    8  A    between atoms: C_12  and  C_13
REMARK    9  A    between atoms: C_12  and  C_14
REMARK   10  A    between atoms: C_12  and  C_15
REMARK   11  A    between atoms: N_17  and  N_18
REMARK   12  A    between atoms: C_19  and  C_21
REMARK   13  A    between atoms: C_24  and  C_27
REMARK   14  A    between atoms: C_31  and  N_33
REMARK                            x       y       z     vdW  Elec       q    Type
REMARK                         _______ _______ _______ _____ _____    ______ ____
ROOT
ATOM      1  C   UNL     1       2.413   0.934  -4.261  0.00  0.00    +0.138 C 
ATOM      2  N   UNL     1       3.020   0.512  -5.327  0.00  0.00    -0.188 NA
ENDROOT
BRANCH   1   5
ATOM      3  C   UNL     1       0.707  -0.490  -1.238  0.00  0.00    +0.000 A 
ATOM      4  C   UNL     1       1.215   0.418  -2.141  0.00  0.00    +0.017 A 
ATOM      5  C   UNL     1       1.869  -0.034  -3.291  0.00  0.00    -0.005 A 
ATOM      6  C   UNL     1       2.005  -1.406  -3.518  0.00  0.00    +0.017 A 
ATOM      7  C   UNL     1       1.494  -2.307  -2.609  0.00  0.00    +0.000 A 
ATOM      8  C   UNL     1       0.850  -1.853  -1.465  0.00  0.00    +0.124 A 
BRANCH   3  10
ATOM      9  C   UNL     1      -0.019   1.526   0.010  0.00  0.00    +0.015 C 
ATOM     10  C   UNL     1       0.002  -0.004   0.002  0.00  0.00    -0.009 C 
ATOM     11  C   UNL     1       0.742  -0.511   1.242  0.00  0.00    +0.015 C 
ATOM     12  C   UNL     1      -1.433  -0.534   0.013  0.00  0.00    +0.015 C 
ENDBRANCH   3  10
BRANCH   7  13
ATOM     13  C   UNL     1       1.641  -3.787  -2.853  0.00  0.00    -0.009 C 
ATOM     14  C   UNL     1       2.388  -4.015  -4.169  0.00  0.00    +0.015 C 
ATOM     15  C   UNL     1       2.428  -4.418  -1.704  0.00  0.00    +0.015 C 
ATOM     16  C   UNL     1       0.255  -4.429  -2.936  0.00  0.00    +0.015 C 
ENDBRANCH   7  13
BRANCH   8  17
ATOM     17  O   UNL     1       0.354  -2.745  -0.569  0.00  0.00    -0.506 OA
ATOM     18  H   UNL     1      -0.559  -3.011  -0.744  0.00  0.00    +0.292 HD
ENDBRANCH   8  17
ENDBRANCH   1   5
BRANCH   2  19
ATOM     19  N   UNL     1       3.537   1.432  -6.249  0.00  0.00    -0.205 N 
ATOM     20  C   UNL     1       4.167   0.994  -7.357  0.00  0.00    +0.263 C 
ATOM     21  O   UNL     1       4.287  -0.196  -7.556  0.00  0.00    -0.271 OA
ATOM     22  H   UNL     1       3.441   2.384  -6.090  0.00  0.00    +0.177 HD
BRANCH  20  23
ATOM     23  C   UNL     1       4.723   1.984  -8.348  0.00  0.00    +0.240 C 
ATOM     24  C   UNL     1       3.634   2.472  -9.287  0.00  0.00    +0.041 C 
ATOM     25  C   UNL     1       4.056   2.076 -10.504  0.00  0.00    +0.092 C 
ATOM     26  N   UNL     1       5.243   1.423 -10.405  0.00  0.00    -0.153 NA
ATOM     27  N   UNL     1       5.683   1.329  -9.253  0.00  0.00    -0.170 NA
BRANCH  25  28
ATOM     28  C   UNL     1       3.326   2.319 -11.773  0.00  0.00    +0.004 A 
ATOM     29  C   UNL     1       2.114   3.006 -11.762  0.00  0.00    +0.010 A 
ATOM     30  C   UNL     1       1.439   3.228 -12.945  0.00  0.00    +0.003 A 
ATOM     31  C   UNL     1       1.965   2.771 -14.140  0.00  0.00    +0.033 A 
ATOM     32  C   UNL     1       3.168   2.088 -14.157  0.00  0.00    +0.127 A 
ATOM     33  C   UNL     1       3.853   1.865 -12.980  0.00  0.00    +0.042 A 
BRANCH  32  34
ATOM     34  N   UNL     1       3.723   1.601 -15.440  0.00  0.00    +0.056 N 
ATOM     35  O   UNL     1       3.126   1.800 -16.472  0.00  0.00    -0.126 OA
ATOM     36  O   UNL     1       4.774   1.005 -15.455  0.00  0.00    -0.126 OA
ENDBRANCH  32  34
ENDBRANCH  25  28
ENDBRANCH  20  23
ENDBRANCH   2  19
TORSDOF 8
