REMARK  Name = ZINC59785283
REMARK  5 active torsions:
REMARK  status: ('A' for Active; 'I' for Inactive)
REMARK    1  A    between atoms: C_3  and  C_6
REMARK    2  A    between atoms: C_6  and  N_7
REMARK    3  A    between atoms: N_7  and  C_8
REMARK    4  A    between atoms: C_16  and  C_18
REMARK    5  A    between atoms: C_20  and  N_25
REMARK                            x       y       z     vdW  Elec       q    Type
REMARK                         _______ _______ _______ _____ _____    ______ ____
ROOT
ATOM      1  N   UNL     1       3.414   0.679   1.143  0.00  0.00    -0.257 N 
ATOM      2  C   UNL     1       3.716   1.723   1.940  0.00  0.00    +0.253 C 
ATOM      3  O   UNL     1       4.122   2.761   1.455  0.00  0.00    -0.270 OA
ENDROOT
BRANCH   1   4
ATOM      4  C   UNL     1       3.066  -0.555   1.707  0.00  0.00    +0.072 A 
ATOM      5  C   UNL     1       3.966  -1.612   1.675  0.00  0.00    +0.029 A 
ATOM      6  C   UNL     1       3.621  -2.828   2.232  0.00  0.00    +0.040 A 
ATOM      7  C   UNL     1       2.380  -2.995   2.823  0.00  0.00    +0.126 A 
ATOM      8  C   UNL     1       1.480  -1.943   2.857  0.00  0.00    +0.078 A 
ATOM      9  C   UNL     1       1.822  -0.722   2.306  0.00  0.00    +0.147 A 
ATOM     10  F   UNL     1       0.947   0.306   2.344  0.00  0.00    -0.203 F 
ATOM     11  F   UNL     1       2.047  -4.186   3.367  0.00  0.00    -0.205 F 
ENDBRANCH   1   4
BRANCH   2  12
ATOM     12  C   UNL     1       3.553   1.606   3.404  0.00  0.00    +0.058 A 
ATOM     13  C   UNL     1       3.856   0.406   4.050  0.00  0.00    +0.047 A 
ATOM     14  C   UNL     1       3.702   0.304   5.416  0.00  0.00    +0.127 A 
ATOM     15  C   UNL     1       3.248   1.387   6.149  0.00  0.00    +0.034 A 
ATOM     16  C   UNL     1       2.946   2.579   5.517  0.00  0.00    +0.023 A 
ATOM     17  C   UNL     1       3.101   2.698   4.149  0.00  0.00    +0.053 A 
ATOM     18 CL   UNL     1       2.728   4.198   3.358  0.00  0.00    -0.083 Cl
BRANCH  14  19
ATOM     19  N   UNL     1       4.022  -0.969   6.102  0.00  0.00    +0.056 N 
ATOM     20  O   UNL     1       4.418  -1.916   5.464  0.00  0.00    -0.126 OA
ATOM     21  O   UNL     1       3.888  -1.060   7.300  0.00  0.00    -0.126 OA
ENDBRANCH  14  19
ENDBRANCH   2  12
BRANCH   1  22
ATOM     22  C   UNL     1       3.449   0.835  -0.313  0.00  0.00    +0.188 C 
BRANCH  22  25
ATOM     23  C   UNL     1       0.518   2.772  -1.427  0.00  0.00    +0.041 A 
ATOM     24  C   UNL     1       1.857   2.699  -0.978  0.00  0.00    +0.046 A 
ATOM     25  C   UNL     1       2.134   1.397  -0.790  0.00  0.00    +0.122 A 
ATOM     26  O   UNL     1       1.041   0.681  -1.100  0.00  0.00    -0.466 OA
ATOM     27  C   UNL     1       0.058   1.510  -1.487  0.00  0.00    +0.195 A 
ENDBRANCH  22  25
ENDBRANCH   1  22
TORSDOF 5
