REMARK  Name = ZINC05766838
REMARK  8 active torsions:
REMARK  status: ('A' for Active; 'I' for Inactive)
REMARK    1  A    between atoms: C_1  and  O_2
REMARK    2  A    between atoms: O_2  and  C_3
REMARK    3  A    between atoms: C_6  and  C_11
REMARK    4  A    between atoms: C_7  and  O_10
REMARK    5  A    between atoms: C_8  and  O_9
REMARK    6  A    between atoms: C_12  and  C_13
REMARK    7  A    between atoms: C_17  and  O_19
REMARK    8  A    between atoms: O_19  and  C_20
REMARK                            x       y       z     vdW  Elec       q    Type
REMARK                         _______ _______ _______ _____ _____    ______ ____
ROOT
ATOM      1  C   UNL     1       3.788  -1.927   0.287  0.00  0.00    +0.012 C 
ATOM      2  C   UNL     1       2.699  -2.679   0.055  0.00  0.00    +0.009 C 
ENDROOT
BRANCH   2   3
ATOM      3  C   UNL     1       1.479  -2.059  -0.491  0.00  0.00    -0.018 A 
ATOM      4  C   UNL     1       1.575  -1.075  -1.479  0.00  0.00    +0.057 A 
ATOM      5  C   UNL     1       0.429  -0.493  -1.990  0.00  0.00    +0.170 A 
ATOM      6  C   UNL     1      -0.822  -0.893  -1.525  0.00  0.00    +0.208 A 
ATOM      7  C   UNL     1      -0.920  -1.869  -0.537  0.00  0.00    +0.166 A 
ATOM      8  C   UNL     1       0.223  -2.453  -0.023  0.00  0.00    +0.057 A 
ATOM      9  O   UNL     1      -1.781  -0.180  -2.186  0.00  0.00    -0.449 OA
ATOM     10  C   UNL     1      -1.126   0.358  -3.350  0.00  0.00    +0.467 C 
ATOM     11  O   UNL     1       0.253   0.471  -2.940  0.00  0.00    -0.452 OA
BRANCH   7  12
ATOM     12  O   UNL     1      -2.142  -2.252  -0.082  0.00  0.00    -0.491 OA
ATOM     13  C   UNL     1      -2.178  -3.344   0.840  0.00  0.00    +0.277 C 
ENDBRANCH   7  12
ENDBRANCH   2   3
BRANCH   1  17
ATOM     14  C   UNL     1       3.546   2.306  -0.003  0.00  0.00    +0.165 A 
ATOM     15  C   UNL     1       2.537   1.593   0.632  0.00  0.00    +0.050 A 
ATOM     16  C   UNL     1       2.609   0.220   0.723  0.00  0.00    +0.015 A 
ATOM     17  C   UNL     1       3.706  -0.460   0.186  0.00  0.00    +0.020 A 
ATOM     18  C   UNL     1       4.725   0.259  -0.455  0.00  0.00    +0.169 A 
ATOM     19  C   UNL     1       4.639   1.640  -0.546  0.00  0.00    +0.201 A 
BRANCH  14  21
ATOM     20  C   UNL     1       2.372   4.291   0.579  0.00  0.00    +0.277 C 
ATOM     21  O   UNL     1       3.464   3.660  -0.094  0.00  0.00    -0.491 OA
ENDBRANCH  14  21
BRANCH  19  22
ATOM     22  O   UNL     1       5.625   2.344  -1.167  0.00  0.00    -0.501 OA
ATOM     23  H   UNL     1       5.481   2.470  -2.115  0.00  0.00    +0.292 HD
ENDBRANCH  19  22
BRANCH  18  24
ATOM     24  O   UNL     1       5.792  -0.395  -0.984  0.00  0.00    -0.503 OA
ATOM     25  H   UNL     1       5.673  -0.662  -1.905  0.00  0.00    +0.292 HD
ENDBRANCH  18  24
ENDBRANCH   1  17
TORSDOF 6
