REMARK  Name = ZINC39676034
REMARK  7 active torsions:
REMARK  status: ('A' for Active; 'I' for Inactive)
REMARK    1  A    between atoms: C_4  and  C_7
REMARK    2  A    between atoms: C_7  and  N_8
REMARK    3  A    between atoms: C_10  and  C_13
REMARK    4  A    between atoms: C_13  and  N_14
REMARK    5  A    between atoms: C_15  and  C_17
REMARK    6  A    between atoms: C_28  and  C_30
REMARK    7  A    between atoms: C_30  and  C_31
REMARK                            x       y       z     vdW  Elec       q    Type
REMARK                         _______ _______ _______ _____ _____    ______ ____
ROOT
ATOM      1  C   UNL     1       8.824  -4.257   4.774  0.00  0.00    +0.100 C 
ATOM      2  C   UNL     1       9.229  -4.868   3.414  0.00  0.00    +0.121 C 
ATOM      3  N   UNL     1      10.347  -5.786   3.733  0.00  0.00    -0.300 N 
ATOM      4  C   UNL     1       9.951  -6.417   5.015  0.00  0.00    +0.115 C 
ATOM      5  C   UNL     1       9.299  -5.277   5.822  0.00  0.00    -0.004 C 
ATOM      6  C   UNL     1       8.112  -5.808   6.619  0.00  0.00    -0.010 C 
ATOM      7  C   UNL     1       8.616  -6.776   7.694  0.00  0.00    -0.082 C 
ATOM      8  N   UNL     1       9.554  -6.080   8.581  0.00  0.00    +0.379 N 
ATOM      9  C   UNL     1      10.738  -5.654   7.824  0.00  0.00    -0.082 C 
ATOM     10  C   UNL     1      10.323  -4.638   6.755  0.00  0.00    -0.010 C 
ATOM     11  C   UNL     1      11.471  -5.998   3.020  0.00  0.00    +0.220 C 
ATOM     12  O   UNL     1      12.300  -6.789   3.417  0.00  0.00    -0.275 OA
ATOM     13  H   UNL     1       9.102  -5.270   8.979  0.00  0.00    -0.086 HD
ATOM     14  H   UNL     1       9.838  -6.702   9.323  0.00  0.00    -0.086 HD
ENDROOT
BRANCH   1  16
ATOM     15  N   UNL     1       6.800  -3.108   5.611  0.00  0.00    -0.311 N 
ATOM     16  C   UNL     1       7.329  -4.086   4.849  0.00  0.00    +0.218 C 
ATOM     17  O   UNL     1       6.602  -4.827   4.223  0.00  0.00    -0.275 OA
ATOM     18  H   UNL     1       7.381  -2.515   6.112  0.00  0.00    +0.149 HD
BRANCH  15  19
ATOM     19  C   UNL     1       5.346  -2.942   5.684  0.00  0.00    +0.142 C 
BRANCH  19  22
ATOM     20  N   UNL     1       4.585   0.221   7.330  0.00  0.00    -0.267 N 
ATOM     21  C   UNL     1       4.879  -0.494   6.225  0.00  0.00    +0.113 A 
ATOM     22  C   UNL     1       5.017  -1.788   6.596  0.00  0.00    +0.007 A 
ATOM     23  C   UNL     1       4.800  -1.866   7.975  0.00  0.00    +0.139 A 
ATOM     24  N   UNL     1       4.547  -0.661   8.418  0.00  0.00    -0.179 NA
BRANCH  20  25
ATOM     25  C   UNL     1       4.353   1.667   7.385  0.00  0.00    +0.178 C 
BRANCH  25  29
ATOM     26  C   UNL     1       0.563   2.435   9.199  0.00  0.00    +0.000 A 
ATOM     27  C   UNL     1       1.699   2.353   9.981  0.00  0.00    +0.000 A 
ATOM     28  C   UNL     1       2.926   2.105   9.394  0.00  0.00    +0.005 A 
ATOM     29  C   UNL     1       3.016   1.937   8.025  0.00  0.00    -0.026 A 
ATOM     30  C   UNL     1       1.879   2.018   7.243  0.00  0.00    +0.005 A 
ATOM     31  C   UNL     1       0.652   2.268   7.830  0.00  0.00    +0.000 A 
ENDBRANCH  25  29
ENDBRANCH  20  25
ENDBRANCH  19  22
ENDBRANCH  15  19
ENDBRANCH   1  16
BRANCH  11  32
ATOM     32  C   UNL     1      11.697  -5.253   1.730  0.00  0.00    +0.131 C 
BRANCH  32  33
ATOM     33  C   UNL     1      13.017  -5.668   1.134  0.00  0.00    -0.039 A 
ATOM     34  C   UNL     1      14.171  -4.985   1.468  0.00  0.00    +0.005 A 
ATOM     35  C   UNL     1      15.383  -5.366   0.922  0.00  0.00    +0.020 A 
ATOM     36  C   UNL     1      15.440  -6.431   0.041  0.00  0.00    +0.041 A 
ATOM     37  C   UNL     1      14.284  -7.115  -0.293  0.00  0.00    +0.020 A 
ATOM     38  C   UNL     1      13.074  -6.737   0.258  0.00  0.00    +0.005 A 
ATOM     39 CL   UNL     1      16.960  -6.910  -0.646  0.00  0.00    -0.084 Cl
ENDBRANCH  32  33
ENDBRANCH  11  32
TORSDOF 7
