REMARK  Name = ZINC65265902
REMARK  3 active torsions:
REMARK  status: ('A' for Active; 'I' for Inactive)
REMARK    1  A    between atoms: C_14  and  C_16
REMARK    2  A    between atoms: C_16  and  C_17
REMARK    3  A    between atoms: N_24  and  C_25
REMARK                            x       y       z     vdW  Elec       q    Type
REMARK                         _______ _______ _______ _____ _____    ______ ____
ROOT
ATOM      1  C   UNL     1      -0.017   1.374   0.010  0.00  0.00    +0.000 A 
ATOM      2  C   UNL     1       1.167   2.090   0.002  0.00  0.00    +0.002 A 
ATOM      3  C   UNL     1       2.369   1.412  -0.007  0.00  0.00    +0.023 A 
ATOM      4  C   UNL     1       2.388   0.025  -0.012  0.00  0.00    +0.037 A 
ATOM      5  C   UNL     1       1.205  -0.704  -0.016  0.00  0.00    -0.012 A 
ATOM      6  C   UNL     1       0.002  -0.004   0.002  0.00  0.00    +0.007 A 
ATOM      7  C   UNL     1       1.117  -2.208  -0.056  0.00  0.00    +0.119 C 
ATOM      8  N   UNL     1       2.252  -2.860   0.611  0.00  0.00    -0.299 NA
ATOM      9  C   UNL     1       3.372  -3.058  -0.336  0.00  0.00    +0.091 C 
ATOM     10  C   UNL     1       4.541  -3.783   0.354  0.00  0.00    +0.050 C 
ATOM     11  C   UNL     1       4.147  -5.271   0.219  0.00  0.00    +0.110 C 
ATOM     12  N   UNL     1       3.183  -5.371  -0.888  0.00  0.00    -0.299 N 
ATOM     13  C   UNL     1       2.975  -4.025  -1.459  0.00  0.00    +0.137 C 
ATOM     14  C   UNL     1       2.588  -6.503  -1.311  0.00  0.00    +0.216 C 
ATOM     15  O   UNL     1       1.806  -6.468  -2.237  0.00  0.00    -0.276 OA
ATOM     16  C   UNL     1       3.774  -1.719  -0.854  0.00  0.00    +0.095 C 
ATOM     17  N   UNL     1       3.602  -0.654  -0.003  0.00  0.00    -0.303 N 
ATOM     18  N   UNL     1       4.258  -1.568  -2.044  0.00  0.00    -0.372 N 
ATOM     19  H   UNL     1       2.550  -2.333   1.418  0.00  0.00    +0.123 HD
ATOM     20  H   UNL     1       4.369  -2.338  -2.624  0.00  0.00    +0.161 HD
ATOM     21  H   UNL     1       4.316  -0.381   0.594  0.00  0.00    +0.153 HD
ENDROOT
BRANCH  18  22
ATOM     22  C   UNL     1       4.640  -0.235  -2.515  0.00  0.00    +0.080 C 
ATOM     23  C   UNL     1       3.426   0.467  -3.156  0.00  0.00    +0.024 C 
ATOM     24  C   UNL     1       4.027   1.253  -4.348  0.00  0.00    +0.002 C 
ATOM     25  C   UNL     1       5.110   0.285  -4.885  0.00  0.00    +0.002 C 
ATOM     26  C   UNL     1       5.711  -0.351  -3.614  0.00  0.00    +0.024 C 
ENDBRANCH  18  22
BRANCH  14  27
ATOM     27  C   UNL     1       2.893  -7.814  -0.632  0.00  0.00    +0.099 C 
BRANCH  27  28
ATOM     28  C   UNL     1       2.092  -8.933  -1.300  0.00  0.00    -0.002 C 
ATOM     29  C   UNL     1       0.587  -8.747  -1.016  0.00  0.00    +0.004 C 
ATOM     30  C   UNL     1       0.054 -10.190  -0.834  0.00  0.00    +0.000 C 
ATOM     31  C   UNL     1       1.209 -10.888  -0.074  0.00  0.00    +0.000 C 
ATOM     32  C   UNL     1       2.487 -10.294  -0.701  0.00  0.00    +0.004 C 
ENDBRANCH  27  28
ENDBRANCH  14  27
TORSDOF 3
