REMARK  Name = ZINC34715809
REMARK  8 active torsions:
REMARK  status: ('A' for Active; 'I' for Inactive)
REMARK    1  A    between atoms: C_1  and  C_2
REMARK    2  A    between atoms: C_4  and  C_9
REMARK    3  A    between atoms: C_12  and  C_23
REMARK    4  A    between atoms: N_19  and  C_20
REMARK    5  A    between atoms: C_20  and  C_21
REMARK    6  A    between atoms: C_20  and  C_22
REMARK    7  A    between atoms: N_25  and  C_26
REMARK    8  A    between atoms: C_26  and  C_27
REMARK                            x       y       z     vdW  Elec       q    Type
REMARK                         _______ _______ _______ _____ _____    ______ ____
ROOT
ATOM      1  C   UNL     1      -0.137  -3.255  -2.225  0.00  0.00    +0.037 C 
ATOM      2  C   UNL     1       1.152  -4.059  -2.410  0.00  0.00    +0.024 C 
ATOM      3  C   UNL     1       1.251  -4.542  -3.859  0.00  0.00    +0.093 C 
ATOM      4  C   UNL     1       0.062  -5.456  -4.171  0.00  0.00    +0.122 C 
ATOM      5  N   UNL     1      -1.181  -4.738  -3.858  0.00  0.00    -0.284 N 
ATOM      6  C   UNL     1      -1.342  -4.154  -2.519  0.00  0.00    +0.117 C 
ATOM      7  C   UNL     1      -2.155  -4.617  -4.781  0.00  0.00    +0.302 C 
ATOM      8  O   UNL     1      -3.137  -3.939  -4.544  0.00  0.00    -0.253 OA
ATOM      9  N   UNL     1      -2.042  -5.247  -5.968  0.00  0.00    -0.297 N 
ATOM     10  H   UNL     1      -1.294  -5.842  -6.131  0.00  0.00    +0.150 HD
ENDROOT
BRANCH   1  14
ATOM     11  C   UNL     1      -0.422   0.547   1.016  0.00  0.00    +0.047 C 
ATOM     12  C   UNL     1      -0.355  -0.934   0.744  0.00  0.00    -0.015 A 
ATOM     13  C   UNL     1      -0.280  -1.395  -0.557  0.00  0.00    +0.010 A 
ATOM     14  C   UNL     1      -0.218  -2.753  -0.807  0.00  0.00    -0.042 A 
ATOM     15  C   UNL     1      -0.231  -3.652   0.244  0.00  0.00    +0.007 A 
ATOM     16  C   UNL     1      -0.305  -3.193   1.545  0.00  0.00    +0.039 A 
ATOM     17  C   UNL     1      -0.362  -1.832   1.797  0.00  0.00    +0.126 A 
ATOM     18  F   UNL     1      -0.430  -1.382   3.069  0.00  0.00    -0.205 F 
ENDBRANCH   1  14
BRANCH   3  19
ATOM     19  C   UNL     1       1.231  -3.354  -4.787  0.00  0.00    +0.218 C 
ATOM     20  O   UNL     1       0.187  -2.994  -5.287  0.00  0.00    -0.275 OA
ATOM     21  N   UNL     1       2.374  -2.694  -5.060  0.00  0.00    -0.311 N 
ATOM     22  H   UNL     1       3.219  -3.023  -4.716  0.00  0.00    +0.149 HD
BRANCH  21  23
ATOM     23  C   UNL     1       2.339  -1.477  -5.876  0.00  0.00    +0.142 C 
BRANCH  23  24
ATOM     24  C   UNL     1       3.747  -1.004  -6.132  0.00  0.00    +0.005 A 
ATOM     25  C   UNL     1       4.271   0.040  -5.394  0.00  0.00    +0.008 A 
ATOM     26  C   UNL     1       5.562   0.474  -5.629  0.00  0.00    +0.000 A 
ATOM     27  C   UNL     1       6.331  -0.136  -6.603  0.00  0.00    +0.003 A 
ATOM     28  C   UNL     1       5.809  -1.180  -7.342  0.00  0.00    +0.038 A 
ATOM     29  C   UNL     1       4.518  -1.619  -7.104  0.00  0.00    +0.128 A 
ATOM     30  F   UNL     1       4.008  -2.643  -7.823  0.00  0.00    -0.205 F 
ENDBRANCH  23  24
ENDBRANCH  21  23
ENDBRANCH   3  19
BRANCH   9  31
ATOM     31  C   UNL     1      -3.048  -5.032  -7.010  0.00  0.00    +0.068 C 
ATOM     32  C   UNL     1      -2.726  -3.745  -7.773  0.00  0.00    +0.027 C 
ATOM     33  C   UNL     1      -3.038  -6.215  -7.980  0.00  0.00    +0.027 C 
ENDBRANCH   9  31
TORSDOF 5
