REMARK  Name = ZINC34710909
REMARK  10 active torsions:
REMARK  status: ('A' for Active; 'I' for Inactive)
REMARK    1  A    between atoms: C_1  and  C_2
REMARK    2  A    between atoms: C_2  and  N_3
REMARK    3  A    between atoms: C_8  and  C_22
REMARK    4  A    between atoms: C_11  and  C_14
REMARK    5  A    between atoms: N_16  and  C_17
REMARK    6  A    between atoms: C_17  and  C_18
REMARK    7  A    between atoms: C_18  and  N_19
REMARK    8  A    between atoms: N_19  and  C_20
REMARK    9  A    between atoms: N_19  and  C_21
REMARK   10  A    between atoms: C_26  and  C_28
REMARK                            x       y       z     vdW  Elec       q    Type
REMARK                         _______ _______ _______ _____ _____    ______ ____
ROOT
ATOM      1  N   UNL     1       0.336  -2.686  -0.537  0.00  0.00    -0.300 N 
ATOM      2  C   UNL     1       0.827  -1.799  -1.425  0.00  0.00    +0.302 C 
ATOM      3  O   UNL     1       0.622  -0.610  -1.273  0.00  0.00    -0.253 OA
ATOM      4  N   UNL     1       1.545  -2.229  -2.481  0.00  0.00    -0.284 N 
ATOM      5  C   UNL     1       1.703  -3.666  -2.744  0.00  0.00    +0.117 C 
ATOM      6  C   UNL     1       3.196  -3.984  -2.865  0.00  0.00    +0.037 C 
ATOM      7  C   UNL     1       3.822  -3.078  -3.928  0.00  0.00    +0.024 C 
ATOM      8  C   UNL     1       3.672  -1.615  -3.507  0.00  0.00    +0.093 C 
ATOM      9  C   UNL     1       2.179  -1.270  -3.396  0.00  0.00    +0.122 C 
ATOM     10  H   UNL     1       0.436  -3.638  -0.697  0.00  0.00    +0.150 HD
ENDROOT
BRANCH   6  11
ATOM     11  C   UNL     1       3.373  -5.426  -3.264  0.00  0.00    -0.043 A 
ATOM     12  C   UNL     1       2.842  -5.883  -4.456  0.00  0.00    +0.004 A 
ATOM     13  C   UNL     1       3.004  -7.206  -4.822  0.00  0.00    +0.001 A 
ATOM     14  C   UNL     1       3.697  -8.072  -3.997  0.00  0.00    +0.003 A 
ATOM     15  C   UNL     1       4.229  -7.615  -2.806  0.00  0.00    -0.050 A 
ATOM     16  C   UNL     1       4.071  -6.291  -2.442  0.00  0.00    +0.007 A 
ATOM     17  C   UNL     1       4.985  -8.559  -1.907  0.00  0.00    +0.044 C 
ENDBRANCH   6  11
BRANCH   8  18
ATOM     18  C   UNL     1       4.341  -1.405  -2.173  0.00  0.00    +0.218 C 
ATOM     19  O   UNL     1       4.885  -2.334  -1.614  0.00  0.00    -0.275 OA
ATOM     20  N   UNL     1       4.336  -0.184  -1.601  0.00  0.00    -0.317 N 
ATOM     21  H   UNL     1       3.901   0.559  -2.048  0.00  0.00    +0.149 HD
BRANCH  20  22
ATOM     22  C   UNL     1       4.986   0.020  -0.304  0.00  0.00    +0.085 C 
BRANCH  22  23
ATOM     23  C   UNL     1       4.836   1.484   0.117  0.00  0.00    -0.061 C 
BRANCH  23  24
ATOM     24  N   UNL     1       5.489   1.689   1.417  0.00  0.00    +0.377 N 
ATOM     25  C   UNL     1       6.935   1.470   1.279  0.00  0.00    -0.097 C 
ATOM     26  C   UNL     1       5.242   3.062   1.877  0.00  0.00    -0.097 C 
ATOM     27  H   UNL     1       5.112   1.036   2.088  0.00  0.00    -0.083 HD
ENDBRANCH  23  24
ENDBRANCH  22  23
ENDBRANCH  20  22
ENDBRANCH   8  18
BRANCH   1  29
ATOM     28  C   UNL     1      -0.804  -3.414   1.500  0.00  0.00    +0.024 C 
ATOM     29  C   UNL     1      -0.348  -2.213   0.669  0.00  0.00    +0.102 C 
ENDBRANCH   1  29
TORSDOF 6
