REMARK  Name = ZINC17840561
REMARK  8 active torsions:
REMARK  status: ('A' for Active; 'I' for Inactive)
REMARK    1  A    between atoms: C_1  and  C_2
REMARK    2  A    between atoms: C_7  and  N_8
REMARK    3  A    between atoms: C_12  and  S_13
REMARK    4  A    between atoms: S_13  and  C_14
REMARK    5  A    between atoms: C_14  and  C_15
REMARK    6  A    between atoms: N_17  and  C_18
REMARK    7  A    between atoms: C_18  and  C_20
REMARK    8  A    between atoms: C_18  and  C_21
REMARK                            x       y       z     vdW  Elec       q    Type
REMARK                         _______ _______ _______ _____ _____    ______ ____
ROOT
ATOM      1  N   UNL     1       0.002  -0.004   0.002  0.00  0.00    -0.258 N 
ATOM      2  C   UNL     1       1.310  -0.407  -0.013  0.00  0.00    +0.225 A 
ATOM      3  N   UNL     1       2.064   0.664  -0.014  0.00  0.00    -0.112 NA
ATOM      4  N   UNL     1       1.225   1.786   0.000  0.00  0.00    -0.120 NA
ATOM      5  C   UNL     1      -0.017   1.365   0.009  0.00  0.00    +0.198 A 
ATOM      6  N   UNL     1       1.759  -1.722  -0.024  0.00  0.00    -0.295 N 
ATOM      7  C   UNL     1       1.220  -2.472   1.120  0.00  0.00    +0.136 C 
ATOM      8  C   UNL     1       1.691  -3.927   1.036  0.00  0.00    +0.179 C 
ATOM      9  O   UNL     1       3.120  -3.959   0.991  0.00  0.00    -0.377 OA
ATOM     10  C   UNL     1       3.678  -3.238  -0.111  0.00  0.00    +0.179 C 
ATOM     11  C   UNL     1       3.228  -1.777  -0.038  0.00  0.00    +0.136 C 
ENDROOT
BRANCH   1  18
ATOM     12  C   UNL     1      -1.045  -0.834   2.515  0.00  0.00    +0.046 C 
ATOM     13  C   UNL     1      -1.663  -1.272   1.212  0.00  0.00    -0.026 A 
ATOM     14  C   UNL     1      -2.772  -2.095   1.215  0.00  0.00    +0.005 A 
ATOM     15  C   UNL     1      -3.335  -2.503   0.021  0.00  0.00    +0.000 A 
ATOM     16  C   UNL     1      -2.794  -2.083  -1.181  0.00  0.00    +0.002 A 
ATOM     17  C   UNL     1      -1.689  -1.255  -1.190  0.00  0.00    +0.026 A 
ATOM     18  C   UNL     1      -1.121  -0.845   0.008  0.00  0.00    +0.055 A 
ENDBRANCH   1  18
BRANCH   5  19
ATOM     19  S   UNL     1      -1.456   2.382   0.022  0.00  0.00    -0.076 S 
BRANCH  19  20
ATOM     20  C   UNL     1      -0.798   4.072   0.028  0.00  0.00    +0.173 C 
BRANCH  20  21
ATOM     21  C   UNL     1      -1.940   5.055   0.039  0.00  0.00    +0.224 C 
ATOM     22  O   UNL     1      -3.085   4.655   0.043  0.00  0.00    -0.275 OA
ATOM     23  N   UNL     1      -1.690   6.380   0.045  0.00  0.00    -0.308 N 
ATOM     24  H   UNL     1      -0.774   6.700   0.042  0.00  0.00    +0.149 HD
BRANCH  23  25
ATOM     25  C   UNL     1      -2.800   7.335   0.056  0.00  0.00    +0.100 C 
ATOM     26  C   UNL     1      -3.276   7.580  -1.378  0.00  0.00    +0.033 C 
BRANCH  25  27
ATOM     27  C   UNL     1      -2.338   8.636   0.661  0.00  0.00    -0.027 A 
ATOM     28  C   UNL     1      -1.081   9.130   0.366  0.00  0.00    +0.006 A 
ATOM     29  C   UNL     1      -0.664  10.320   0.926  0.00  0.00    +0.004 A 
ATOM     30  C   UNL     1      -1.497  11.026   1.784  0.00  0.00    -0.044 A 
ATOM     31  C   UNL     1      -2.751  10.536   2.074  0.00  0.00    -0.044 A 
ATOM     32  C   UNL     1      -3.170   9.340   1.506  0.00  0.00    +0.009 A 
ATOM     33  C   UNL     1      -3.710  11.254   2.987  0.00  0.00    +0.035 C 
ATOM     34  C   UNL     1      -2.971  12.279   3.844  0.00  0.00    +0.005 C 
ATOM     35  C   UNL     1      -2.119  13.158   2.920  0.00  0.00    +0.005 C 
ATOM     36  C   UNL     1      -0.973  12.311   2.371  0.00  0.00    +0.035 C 
ENDBRANCH  25  27
ENDBRANCH  23  25
ENDBRANCH  20  21
ENDBRANCH  19  20
ENDBRANCH   5  19
TORSDOF 6
