REMARK  Name = ZINC04043417
REMARK  14 active torsions:
REMARK  status: ('A' for Active; 'I' for Inactive)
REMARK    1  A    between atoms: C_1  and  C_2
REMARK    2  A    between atoms: C_2  and  O_4
REMARK    3  A    between atoms: O_4  and  C_5
REMARK    4  A    between atoms: C_5  and  C_6
REMARK    5  A    between atoms: C_8  and  O_34
REMARK    6  A    between atoms: C_10  and  O_30
REMARK    7  A    between atoms: C_12  and  O_26
REMARK    8  A    between atoms: C_14  and  N_17
REMARK    9  A    between atoms: O_26  and  C_27
REMARK   10  A    between atoms: C_27  and  C_29
REMARK   11  A    between atoms: O_30  and  C_31
REMARK   12  A    between atoms: C_31  and  C_33
REMARK   13  A    between atoms: O_34  and  C_35
REMARK   14  A    between atoms: C_35  and  C_37
REMARK                            x       y       z     vdW  Elec       q    Type
REMARK                         _______ _______ _______ _____ _____    ______ ____
ROOT
ATOM      1  C   UNL     1       1.705   2.296   1.532  0.00  0.00    +0.202 C 
ATOM      2  C   UNL     1       1.286   1.970   0.096  0.00  0.00    +0.253 C 
ATOM      3  C   UNL     1       1.178   3.271  -0.705  0.00  0.00    +0.264 C 
ATOM      4  C   UNL     1       2.519   4.009  -0.644  0.00  0.00    +0.267 C 
ATOM      5  C   UNL     1       2.890   4.257   0.820  0.00  0.00    +0.252 C 
ATOM      6  O   UNL     1       2.943   3.009   1.515  0.00  0.00    -0.344 OA
ENDROOT
BRANCH   5   7
ATOM      7  N   UNL     1       4.202   4.913   0.889  0.00  0.00    -0.301 N 
ATOM      8  C   UNL     1       4.226   6.140   0.064  0.00  0.00    +0.112 C 
ATOM      9  C   UNL     1       5.223   7.041   0.826  0.00  0.00    +0.056 C 
ATOM     10  C   UNL     1       5.133   6.518   2.246  0.00  0.00    -0.025 A 
ATOM     11  C   UNL     1       4.515   5.274   2.205  0.00  0.00    +0.035 A 
ATOM     12  C   UNL     1       4.298   4.586   3.398  0.00  0.00    +0.023 A 
ATOM     13  C   UNL     1       4.699   5.135   4.598  0.00  0.00    +0.002 A 
ATOM     14  C   UNL     1       5.317   6.371   4.628  0.00  0.00    +0.000 A 
ATOM     15  C   UNL     1       5.534   7.061   3.448  0.00  0.00    +0.005 A 
ENDBRANCH   5   7
BRANCH   1  16
ATOM     16  C   UNL     1       0.629   3.159   2.194  0.00  0.00    +0.267 C 
BRANCH  16  17
ATOM     17  O   UNL     1       0.969   3.369   3.590  0.00  0.00    -0.462 OA
BRANCH  17  19
ATOM     18  C   UNL     1       0.407   4.372   5.775  0.00  0.00    +0.136 C 
ATOM     19  C   UNL     1       0.121   4.111   4.319  0.00  0.00    +0.304 C 
ATOM     20  O   UNL     1      -0.873   4.570   3.807  0.00  0.00    -0.251 OA
ENDBRANCH  17  19
ENDBRANCH  16  17
ENDBRANCH   1  16
BRANCH   4  21
ATOM     21  O   UNL     1       3.546   3.200  -1.274  0.00  0.00    -0.453 OA
BRANCH  21  22
ATOM     22  C   UNL     1       3.741   3.378  -2.591  0.00  0.00    +0.304 C 
ATOM     23  O   UNL     1       3.074   4.184  -3.196  0.00  0.00    -0.251 OA
ATOM     24  C   UNL     1       4.790   2.574  -3.313  0.00  0.00    +0.136 C 
ENDBRANCH  21  22
ENDBRANCH   4  21
BRANCH   3  25
ATOM     25  O   UNL     1       0.854   2.966  -2.087  0.00  0.00    -0.454 OA
BRANCH  25  26
ATOM     26  C   UNL     1      -0.448   2.900  -2.408  0.00  0.00    +0.304 C 
ATOM     27  O   UNL     1      -1.289   3.091  -1.562  0.00  0.00    -0.251 OA
ATOM     28  C   UNL     1      -0.860   2.587  -3.823  0.00  0.00    +0.136 C 
ENDBRANCH  25  26
ENDBRANCH   3  25
BRANCH   2  29
ATOM     29  O   UNL     1      -0.001   1.298   0.106  0.00  0.00    -0.455 OA
BRANCH  29  30
ATOM     30  C   UNL     1       0.011  -0.042   0.187  0.00  0.00    +0.304 C 
ATOM     31  O   UNL     1       1.063  -0.633   0.246  0.00  0.00    -0.251 OA
ATOM     32  C   UNL     1      -1.287  -0.807   0.203  0.00  0.00    +0.136 C 
ENDBRANCH  29  30
ENDBRANCH   2  29
TORSDOF 10
