REMARK  Name = ZINC08451188
REMARK  12 active torsions:
REMARK  status: ('A' for Active; 'I' for Inactive)
REMARK    1  A    between atoms: C_1  and  C_2
REMARK    2  A    between atoms: C_2  and  C_3
REMARK    3  A    between atoms: C_2  and  O_4
REMARK    4  A    between atoms: O_4  and  C_5
REMARK    5  A    between atoms: C_5  and  C_7
REMARK    6  A    between atoms: C_8  and  C_23
REMARK    7  A    between atoms: C_10  and  N_22
REMARK    8  A    between atoms: C_11  and  C_20
REMARK    9  A    between atoms: C_12  and  C_14
REMARK   10  A    between atoms: C_23  and  S_24
REMARK   11  A    between atoms: S_24  and  C_25
REMARK   12  A    between atoms: C_26  and  C_36
REMARK                            x       y       z     vdW  Elec       q    Type
REMARK                         _______ _______ _______ _____ _____    ______ ____
ROOT
ATOM      1  C   UNL     1      -0.176  -0.659   1.156  0.00  0.00    +0.088 C 
ATOM      2  C   UNL     1      -0.181  -0.019  -0.020  0.00  0.00    +0.128 C 
ATOM      3  O   UNL     1       0.010  -0.657  -1.184  0.00  0.00    -0.444 OA
ATOM      4  C   UNL     1      -0.171  -1.988  -1.243  0.00  0.00    +0.198 C 
ATOM      5  C   UNL     1      -0.170  -2.759  -0.130  0.00  0.00    +0.098 C 
ATOM      6  C   UNL     1       0.034  -2.147   1.230  0.00  0.00    +0.105 C 
ENDROOT
BRANCH   6   7
ATOM      7  C   UNL     1       1.438  -2.427   1.701  0.00  0.00    -0.032 A 
ATOM      8  C   UNL     1       2.532  -1.986   0.972  0.00  0.00    +0.024 A 
ATOM      9  C   UNL     1       3.805  -2.258   1.438  0.00  0.00    +0.111 A 
ATOM     10  N   UNL     1       3.984  -2.936   2.554  0.00  0.00    -0.263 NA
ATOM     11  C   UNL     1       2.967  -3.376   3.269  0.00  0.00    +0.111 A 
ATOM     12  C   UNL     1       1.666  -3.138   2.869  0.00  0.00    +0.024 A 
ENDBRANCH   6   7
BRANCH   4  13
ATOM     13  N   UNL     1      -0.361  -2.581  -2.466  0.00  0.00    -0.328 N 
ATOM     14  H   UNL     1      -0.365  -2.042  -3.272  0.00  0.00    +0.145 HD
ATOM     15  H   UNL     1      -0.493  -3.541  -2.525  0.00  0.00    +0.145 HD
ENDBRANCH   4  13
BRANCH   1  16
ATOM     16  C   UNL     1      -0.378   0.076   2.350  0.00  0.00    +0.340 C 
ATOM     17  O   UNL     1      -1.468   0.072   2.890  0.00  0.00    -0.245 OA
BRANCH  16  18
ATOM     18  O   UNL     1       0.639   0.780   2.888  0.00  0.00    -0.459 OA
BRANCH  18  20
ATOM     19  C   UNL     1       0.655   0.602   5.298  0.00  0.00    +0.052 C 
ATOM     20  C   UNL     1       0.365   1.498   4.093  0.00  0.00    +0.171 C 
ATOM     21  C   UNL     1       1.252   2.743   4.158  0.00  0.00    +0.052 C 
ENDBRANCH  18  20
ENDBRANCH  16  18
ENDBRANCH   1  16
BRANCH   5  22
ATOM     22  C   UNL     1      -0.365  -4.173  -0.247  0.00  0.00    +0.101 C 
ATOM     23  N   UNL     1      -0.520  -5.295  -0.341  0.00  0.00    -0.191 NA
ENDBRANCH   5  22
BRANCH   2  24
ATOM     24  C   UNL     1      -0.403   1.472  -0.035  0.00  0.00    +0.150 C 
BRANCH  24  25
ATOM     25  S   UNL     1       1.170   2.313  -0.343  0.00  0.00    -0.097 S 
BRANCH  25  26
ATOM     26  C   UNL     1       0.632   3.990  -0.310  0.00  0.00    +0.115 A 
ATOM     27  C   UNL     1       1.562   5.026  -0.511  0.00  0.00    +0.084 A 
ATOM     28  C   UNL     1       1.110   6.351  -0.478  0.00  0.00    +0.027 A 
ATOM     29  C   UNL     1      -0.237   6.572  -0.247  0.00  0.00    -0.025 A 
ATOM     30  C   UNL     1      -1.088   5.512  -0.062  0.00  0.00    +0.046 A 
ATOM     31  N   UNL     1      -0.646   4.266  -0.101  0.00  0.00    -0.244 NA
ATOM     32  C   UNL     1      -2.563   5.763   0.185  0.00  0.00    +0.056 C 
ATOM     33  C   UNL     1      -3.192   6.276  -1.112  0.00  0.00    +0.006 C 
ATOM     34  C   UNL     1      -3.034   7.778  -1.237  0.00  0.00    +0.001 C 
ATOM     35  C   UNL     1      -1.606   8.242  -1.447  0.00  0.00    +0.005 C 
ATOM     36  C   UNL     1      -0.761   7.991  -0.195  0.00  0.00    +0.037 C 
BRANCH  27  37
ATOM     37  C   UNL     1       2.944   4.731  -0.747  0.00  0.00    +0.102 C 
ATOM     38  N   UNL     1       4.040   4.497  -0.934  0.00  0.00    -0.191 NA
ENDBRANCH  27  37
ENDBRANCH  25  26
ENDBRANCH  24  25
ENDBRANCH   2  24
TORSDOF 10
