REMARK  Name = ZINC63393497
REMARK  9 active torsions:
REMARK  status: ('A' for Active; 'I' for Inactive)
REMARK    1  A    between atoms: C_1  and  C_2
REMARK    2  A    between atoms: C_5  and  C_8
REMARK    3  A    between atoms: N_13  and  S_14
REMARK    4  A    between atoms: S_14  and  C_17
REMARK    5  A    between atoms: C_20  and  C_23
REMARK    6  A    between atoms: C_24  and  C_26
REMARK    7  A    between atoms: C_26  and  S_27
REMARK    8  A    between atoms: S_27  and  C_28
REMARK    9  A    between atoms: C_34  and  C_38
REMARK                            x       y       z     vdW  Elec       q    Type
REMARK                         _______ _______ _______ _____ _____    ______ ____
ROOT
ATOM      1  C   UNL     1       0.066  -4.266  -0.022  0.00  0.00    +0.199 C 
ATOM      2  N   UNL     1       0.674  -4.750  -1.269  0.00  0.00    -0.278 N 
ATOM      3  C   UNL     1       2.052  -5.152  -0.929  0.00  0.00    +0.127 C 
ATOM      4  C   UNL     1       1.968  -5.561   0.555  0.00  0.00    +0.131 C 
ATOM      5  N   UNL     1       0.861  -4.766   1.107  0.00  0.00    -0.150 NA
ATOM      6  C   UNL     1       0.089  -4.813  -2.482  0.00  0.00    +0.227 C 
ATOM      7  O   UNL     1      -1.058  -4.447  -2.622  0.00  0.00    -0.275 OA
ENDROOT
BRANCH   1  12
ATOM      8  C   UNL     1       0.044   1.512   0.016  0.00  0.00    +0.044 C 
ATOM      9  C   UNL     1       0.050   0.005   0.006  0.00  0.00    -0.050 A 
ATOM     10  C   UNL     1       1.250  -0.681   0.015  0.00  0.00    +0.004 A 
ATOM     11  C   UNL     1       1.255  -2.064   0.006  0.00  0.00    +0.007 A 
ATOM     12  C   UNL     1       0.060  -2.759  -0.011  0.00  0.00    -0.011 A 
ATOM     13  C   UNL     1      -1.139  -2.072  -0.019  0.00  0.00    +0.007 A 
ATOM     14  C   UNL     1      -1.145  -0.690  -0.005  0.00  0.00    +0.004 A 
ENDBRANCH   1  12
BRANCH   5  15
ATOM     15  S   UNL     1       0.566  -4.485   2.712  0.00  0.00    +0.063 S 
ATOM     16  O   UNL     1       1.826  -4.515   3.368  0.00  0.00    -0.153 OA
ATOM     17  O   UNL     1      -0.300  -3.360   2.775  0.00  0.00    -0.153 OA
BRANCH  15  18
ATOM     18  C   UNL     1      -0.352  -5.861   3.321  0.00  0.00    +0.106 A 
ATOM     19  C   UNL     1      -1.733  -5.848   3.269  0.00  0.00    +0.029 A 
ATOM     20  C   UNL     1      -2.453  -6.927   3.747  0.00  0.00    +0.005 A 
ATOM     21  C   UNL     1      -1.791  -8.020   4.275  0.00  0.00    -0.050 A 
ATOM     22  C   UNL     1      -0.410  -8.033   4.326  0.00  0.00    +0.005 A 
ATOM     23  C   UNL     1       0.310  -6.956   3.844  0.00  0.00    +0.029 A 
ATOM     24  C   UNL     1      -2.576  -9.196   4.797  0.00  0.00    +0.044 C 
ENDBRANCH  15  18
ENDBRANCH   5  15
BRANCH   6  25
ATOM     25  C   UNL     1       0.862  -5.339  -3.664  0.00  0.00    +0.168 C 
BRANCH  25  26
ATOM     26  S   UNL     1      -0.191  -5.299  -5.141  0.00  0.00    -0.106 S 
BRANCH  26  27
ATOM     27  C   UNL     1       0.873  -5.955  -6.456  0.00  0.00    +0.236 C 
ATOM     28  N   UNL     1       1.341  -7.300  -6.101  0.00  0.00    -0.355 N 
ATOM     29  C   UNL     1       2.641  -7.258  -6.042  0.00  0.00    +0.061 A 
ATOM     30  C   UNL     1       3.661  -8.271  -5.738  0.00  0.00    +0.028 A 
ATOM     31  C   UNL     1       4.964  -7.928  -5.752  0.00  0.00    +0.005 A 
ATOM     32  C   UNL     1       5.402  -6.625  -6.047  0.00  0.00    -0.048 A 
ATOM     33  C   UNL     1       4.551  -5.621  -6.339  0.00  0.00    +0.030 A 
ATOM     34  C   UNL     1       3.104  -5.879  -6.355  0.00  0.00    +0.061 A 
ATOM     35  N   UNL     1       2.073  -5.120  -6.597  0.00  0.00    -0.355 N 
ATOM     36  C   UNL     1       6.882  -6.340  -6.037  0.00  0.00    +0.044 C 
ATOM     37  H   UNL     1       0.784  -8.078  -5.940  0.00  0.00    +0.162 HD
ATOM     38  H   UNL     1       2.093  -4.179  -6.828  0.00  0.00    +0.162 HD
ENDBRANCH  26  27
ENDBRANCH  25  26
ENDBRANCH   6  25
TORSDOF 6
