REMARK  Name = ZINC37006624
REMARK  10 active torsions:
REMARK  status: ('A' for Active; 'I' for Inactive)
REMARK    1  A    between atoms: C_1  and  C_2
REMARK    2  A    between atoms: C_5  and  C_39
REMARK    3  A    between atoms: N_8  and  C_10
REMARK    4  A    between atoms: C_10  and  C_11
REMARK    5  A    between atoms: C_11  and  C_12
REMARK    6  A    between atoms: C_12  and  N_13
REMARK    7  A    between atoms: C_14  and  C_16
REMARK    8  A    between atoms: C_16  and  C_38
REMARK    9  A    between atoms: N_29  and  C_30
REMARK   10  A    between atoms: C_30  and  C_31
REMARK                            x       y       z     vdW  Elec       q    Type
REMARK                         _______ _______ _______ _____ _____    ______ ____
ROOT
ATOM      1  C   UNL     1       6.652   1.491   5.452  0.00  0.00    +0.129 C 
ATOM      2  C   UNL     1       7.288   1.005   6.753  0.00  0.00    +0.157 C 
ATOM      3  N   UNL     1       6.633   1.664   7.889  0.00  0.00    -0.334 N 
ATOM      4  C   UNL     1       6.439   1.233   9.158  0.00  0.00    +0.050 A 
ATOM      5  C   UNL     1       6.770   0.041   9.803  0.00  0.00    +0.026 A 
ATOM      6  C   UNL     1       6.420  -0.071  11.136  0.00  0.00    +0.002 A 
ATOM      7  C   UNL     1       5.768   0.945  11.819  0.00  0.00    +0.001 A 
ATOM      8  C   UNL     1       5.428   2.127  11.214  0.00  0.00    +0.010 A 
ATOM      9  C   UNL     1       5.769   2.271   9.862  0.00  0.00    +0.001 A 
ATOM     10  C   UNL     1       5.570   3.328   8.955  0.00  0.00    +0.041 A 
ATOM     11  C   UNL     1       6.089   2.945   7.769  0.00  0.00    +0.106 A 
ATOM     12  C   UNL     1       6.125   3.660   6.480  0.00  0.00    +0.264 C 
ATOM     13  O   UNL     1       5.820   4.834   6.391  0.00  0.00    -0.268 OA
ATOM     14  N   UNL     1       6.517   2.942   5.402  0.00  0.00    -0.276 N 
ATOM     15  C   UNL     1       7.522   1.035   4.279  0.00  0.00    +0.043 C 
ENDROOT
BRANCH   1  17
ATOM     16  N   UNL     1       4.216   1.465   5.877  0.00  0.00    -0.314 N 
ATOM     17  C   UNL     1       5.287   0.869   5.316  0.00  0.00    +0.238 C 
ATOM     18  O   UNL     1       5.151  -0.167   4.701  0.00  0.00    -0.273 OA
ATOM     19  H   UNL     1       4.310   2.332   6.301  0.00  0.00    +0.149 HD
BRANCH  16  20
ATOM     20  C   UNL     1       2.909   0.803   5.846  0.00  0.00    +0.102 C 
BRANCH  20  21
ATOM     21  C   UNL     1       1.850   1.736   6.436  0.00  0.00    +0.000 C 
BRANCH  21  22
ATOM     22  C   UNL     1       0.469   1.095   6.293  0.00  0.00    -0.077 C 
BRANCH  22  28
ATOM     23  C   UNL     1      -1.188   4.637   7.881  0.00  0.00    +0.005 C 
ATOM     24  C   UNL     1      -1.612   4.214   6.473  0.00  0.00    -0.031 C 
ATOM     25  C   UNL     1      -2.997   3.563   6.530  0.00  0.00    +0.003 C 
ATOM     26  C   UNL     1      -2.919   2.292   7.380  0.00  0.00    -0.031 C 
ATOM     27  C   UNL     1      -1.862   1.355   6.790  0.00  0.00    -0.076 C 
ATOM     28  N   UNL     1      -0.556   2.025   6.787  0.00  0.00    +0.380 N 
ATOM     29  C   UNL     1      -0.603   3.207   5.917  0.00  0.00    -0.076 C 
ATOM     30  C   UNL     1      -4.280   1.593   7.379  0.00  0.00    +0.005 C 
ATOM     31  H   UNL     1      -0.324   2.310   7.727  0.00  0.00    -0.082 HD
ENDBRANCH  22  28
ENDBRANCH  21  22
ENDBRANCH  20  21
ENDBRANCH  16  20
ENDBRANCH   1  17
BRANCH  14  32
ATOM     32  C   UNL     1       6.813   3.642   4.150  0.00  0.00    +0.144 C 
BRANCH  32  33
ATOM     33  C   UNL     1       5.536   3.851   3.377  0.00  0.00    -0.030 A 
ATOM     34  C   UNL     1       5.056   2.850   2.553  0.00  0.00    +0.008 A 
ATOM     35  C   UNL     1       3.885   3.041   1.845  0.00  0.00    +0.038 A 
ATOM     36  C   UNL     1       3.193   4.235   1.960  0.00  0.00    +0.123 A 
ATOM     37  C   UNL     1       3.675   5.236   2.785  0.00  0.00    +0.038 A 
ATOM     38  C   UNL     1       4.843   5.042   3.497  0.00  0.00    +0.008 A 
ATOM     39  F   UNL     1       2.048   4.422   1.267  0.00  0.00    -0.205 F 
ENDBRANCH  32  33
ENDBRANCH  14  32
TORSDOF 7
