REMARK  Name = ZINC20455114
REMARK  7 active torsions:
REMARK  status: ('A' for Active; 'I' for Inactive)
REMARK    1  A    between atoms: C_3  and  N_8
REMARK    2  A    between atoms: C_15  and  C_25
REMARK    3  A    between atoms: C_25  and  N_26
REMARK    4  A    between atoms: N_26  and  C_27
REMARK    5  A    between atoms: C_27  and  C_28
REMARK    6  A    between atoms: C_28  and  C_29
REMARK    7  A    between atoms: C_29  and  O_30
REMARK                            x       y       z     vdW  Elec       q    Type
REMARK                         _______ _______ _______ _____ _____    ______ ____
ROOT
ATOM      1  N   UNL     1      -3.061   4.128   3.001  0.00  0.00    -0.327 N 
ATOM      2  C   UNL     1      -3.152   4.653   1.631  0.00  0.00    +0.124 C 
ATOM      3  C   UNL     1      -3.651   3.548   0.696  0.00  0.00    +0.125 C 
ATOM      4  N   UNL     1      -2.730   2.405   0.759  0.00  0.00    -0.312 N 
ATOM      5  C   UNL     1      -2.639   1.880   2.128  0.00  0.00    +0.125 C 
ATOM      6  C   UNL     1      -2.141   2.984   3.063  0.00  0.00    +0.124 C 
ATOM      7  C   UNL     1      -3.111   1.411  -0.130  0.00  0.00    +0.123 A 
ATOM      8  C   UNL     1      -2.242   1.053  -1.171  0.00  0.00    -0.024 A 
ATOM      9  C   UNL     1      -2.600   0.075  -2.049  0.00  0.00    +0.015 A 
ATOM     10  C   UNL     1      -3.853  -0.548  -1.879  0.00  0.00    +0.001 A 
ATOM     11  C   UNL     1      -4.284  -1.564  -2.748  0.00  0.00    +0.013 A 
ATOM     12  C   UNL     1      -5.501  -2.144  -2.555  0.00  0.00    +0.039 A 
ATOM     13  C   UNL     1      -6.326  -1.743  -1.504  0.00  0.00    +0.125 A 
ATOM     14  C   UNL     1      -5.937  -0.759  -0.643  0.00  0.00    +0.066 A 
ATOM     15  C   UNL     1      -4.689  -0.139  -0.812  0.00  0.00    +0.076 A 
ATOM     16  N   UNL     1      -4.283   0.829   0.019  0.00  0.00    -0.232 NA
ATOM     17  F   UNL     1      -7.528  -2.336  -1.338  0.00  0.00    -0.205 F 
ENDROOT
BRANCH   1  20
ATOM     18  C   UNL     1      -2.059   7.406   4.325  0.00  0.00    +0.003 A 
ATOM     19  C   UNL     1      -2.434   6.417   3.437  0.00  0.00    +0.023 A 
ATOM     20  C   UNL     1      -2.678   5.129   3.896  0.00  0.00    +0.031 A 
ATOM     21  C   UNL     1      -2.534   4.837   5.246  0.00  0.00    +0.043 A 
ATOM     22  C   UNL     1      -2.153   5.830   6.129  0.00  0.00    +0.043 A 
ATOM     23  C   UNL     1      -1.916   7.114   5.669  0.00  0.00    +0.020 A 
ATOM     24 CL   UNL     1      -1.973   5.467   7.817  0.00  0.00    -0.083 Cl
ENDBRANCH   1  20
BRANCH   8  25
ATOM     25  C   UNL     1      -0.911   1.746  -1.315  0.00  0.00    -0.043 C 
BRANCH  25  26
ATOM     26  N   UNL     1       0.023   1.225  -0.309  0.00  0.00    +0.382 N 
ATOM     27  H   UNL     1      -0.380   1.411   0.698  0.00  0.00    -0.085 HD
ATOM     28  H   UNL     1       0.155   0.143  -0.457  0.00  0.00    -0.085 HD
BRANCH  26  29
ATOM     29  C   UNL     1       1.334   1.879  -0.419  0.00  0.00    -0.080 C 
BRANCH  29  30
ATOM     30  C   UNL     1       2.278   1.311   0.642  0.00  0.00    +0.009 C 
BRANCH  30  31
ATOM     31  C   UNL     1       3.644   1.992   0.527  0.00  0.00    +0.154 C 
BRANCH  31  32
ATOM     32  O   UNL     1       4.526   1.462   1.519  0.00  0.00    -0.395 OA
ATOM     33  H   UNL     1       5.559   1.832   1.591  0.00  0.00    +0.209 HD
ENDBRANCH  31  32
ENDBRANCH  30  31
ENDBRANCH  29  30
ENDBRANCH  26  29
ENDBRANCH  25  26
ENDBRANCH   8  25
TORSDOF 7
