REMARK  Name = ZINC33256687
REMARK  13 active torsions:
REMARK  status: ('A' for Active; 'I' for Inactive)
REMARK    1  A    between atoms: C_1  and  C_2
REMARK    2  A    between atoms: C_5  and  C_34
REMARK    3  A    between atoms: C_6  and  C_8
REMARK    4  A    between atoms: C_8  and  S_9
REMARK    5  A    between atoms: S_9  and  C_10
REMARK    6  A    between atoms: C_17  and  C_28
REMARK    7  A    between atoms: N_23  and  C_24
REMARK    8  A    between atoms: C_24  and  C_25
REMARK    9  A    between atoms: C_25  and  C_26
REMARK   10  A    between atoms: C_25  and  C_27
REMARK   11  A    between atoms: N_30  and  C_31
REMARK   12  A    between atoms: C_31  and  C_32
REMARK   13  A    between atoms: C_31  and  C_33
REMARK                            x       y       z     vdW  Elec       q    Type
REMARK                         _______ _______ _______ _____ _____    ______ ____
ROOT
ATOM      1  C   UNL     1       1.279   1.806  -0.001  0.00  0.00    +0.198 A 
ATOM      2  N   UNL     1       2.064   0.757  -0.014  0.00  0.00    -0.120 NA
ATOM      3  N   UNL     1       1.259  -0.388  -0.012  0.00  0.00    -0.109 NA
ATOM      4  C   UNL     1       0.002  -0.004   0.002  0.00  0.00    +0.240 A 
ATOM      5  N   UNL     1      -0.017   1.364   0.009  0.00  0.00    -0.256 N 
ATOM      6  C   UNL     1      -1.226   2.057   0.020  0.00  0.00    +0.065 A 
ATOM      7  C   UNL     1      -1.251   3.442   0.032  0.00  0.00    +0.040 A 
ATOM      8  C   UNL     1      -2.474   4.111   0.047  0.00  0.00    +0.039 A 
ATOM      9  C   UNL     1      -3.671   3.389   0.055  0.00  0.00    +0.014 A 
ATOM     10  C   UNL     1      -3.650   2.012   0.048  0.00  0.00    +0.016 A 
ATOM     11  C   UNL     1      -2.430   1.337   0.033  0.00  0.00    +0.064 A 
ATOM     12  C   UNL     1      -2.375  -0.138   0.025  0.00  0.00    +0.263 A 
ATOM     13  O   UNL     1      -3.398  -0.796   0.031  0.00  0.00    -0.267 OA
ATOM     14  N   UNL     1      -1.170  -0.744   0.009  0.00  0.00    -0.276 N 
ENDROOT
BRANCH   8  15
ATOM     15  C   UNL     1      -2.505   5.591   0.053  0.00  0.00    +0.244 C 
ATOM     16  O   UNL     1      -1.465   6.220   0.046  0.00  0.00    -0.270 OA
ATOM     17  N   UNL     1      -3.685   6.240   0.068  0.00  0.00    -0.309 N 
ATOM     18  H   UNL     1      -4.626   5.670   0.074  0.00  0.00    +0.149 HD
BRANCH  17  19
ATOM     19  C   UNL     1      -3.716   7.705   0.074  0.00  0.00    +0.067 C 
ATOM     20  C   UNL     1      -3.615   8.224  -1.361  0.00  0.00    +0.027 C 
ATOM     21  C   UNL     1      -5.028   8.185   0.699  0.00  0.00    +0.027 C 
ENDBRANCH  17  19
ENDBRANCH   8  15
BRANCH   1  22
ATOM     22  S   UNL     1       1.799   3.489   0.003  0.00  0.00    -0.081 S 
BRANCH  22  23
ATOM     23  C   UNL     1       3.610   3.389  -0.015  0.00  0.00    +0.112 C 
BRANCH  23  29
ATOM     24  C   UNL     1       5.303   7.376   2.492  0.00  0.00    +0.044 C 
ATOM     25  C   UNL     1       5.000   6.687   1.186  0.00  0.00    -0.050 A 
ATOM     26  C   UNL     1       5.256   7.331  -0.010  0.00  0.00    +0.003 A 
ATOM     27  C   UNL     1       4.978   6.699  -1.208  0.00  0.00    +0.004 A 
ATOM     28  C   UNL     1       4.450   5.421  -1.209  0.00  0.00    -0.046 A 
ATOM     29  C   UNL     1       4.190   4.780  -0.013  0.00  0.00    -0.034 A 
ATOM     30  C   UNL     1       4.468   5.412   1.185  0.00  0.00    +0.008 A 
ATOM     31  C   UNL     1       4.154   4.730  -2.515  0.00  0.00    +0.044 C 
ENDBRANCH  23  29
ENDBRANCH  22  23
ENDBRANCH   1  22
BRANCH  14  32
ATOM     32  C   UNL     1      -1.099  -2.207   0.001  0.00  0.00    +0.131 C 
BRANCH  32  33
ATOM     33  C   UNL     1      -1.061  -2.724   1.440  0.00  0.00    +0.003 C 
ATOM     34  C   UNL     1      -2.380  -2.387   2.139  0.00  0.00    +0.009 C 
ATOM     35  C   UNL     1      -0.861  -4.241   1.432  0.00  0.00    +0.009 C 
ENDBRANCH  32  33
ENDBRANCH  14  32
TORSDOF 7
