REMARK  Name = ZINC15103159
REMARK  14 active torsions:
REMARK  status: ('A' for Active; 'I' for Inactive)
REMARK    1  A    between atoms: C_1  and  C_2
REMARK    2  A    between atoms: C_4  and  C_28
REMARK    3  A    between atoms: C_6  and  O_8
REMARK    4  A    between atoms: O_8  and  C_9
REMARK    5  A    between atoms: C_9  and  C_10
REMARK    6  A    between atoms: C_10  and  N_58
REMARK    7  A    between atoms: C_11  and  N_58
REMARK    8  A    between atoms: C_12  and  C_13
REMARK    9  A    between atoms: C_12  and  N_58
REMARK   10  A    between atoms: N_15  and  C_16
REMARK   11  A    between atoms: C_18  and  S_24
REMARK   12  A    between atoms: C_20  and  C_23
REMARK   13  A    between atoms: C_21  and  C_22
REMARK   14  A    between atoms: S_24  and  N_27
REMARK                            x       y       z     vdW  Elec       q    Type
REMARK                         _______ _______ _______ _____ _____    ______ ____
ROOT
ATOM      1  C   UNL     1       7.199   4.124  -2.954  0.00  0.00    +0.201 C 
ATOM      2  O   UNL     1       6.525   3.432  -3.686  0.00  0.00    -0.278 OA
ATOM      3  N   UNL     1       8.319   4.710  -3.422  0.00  0.00    -0.287 N 
ATOM      4  H   UNL     1       8.816   5.325  -2.860  0.00  0.00    +0.155 HD
ENDROOT
BRANCH   3   5
ATOM      5  C   UNL     1       8.766   4.430  -4.718  0.00  0.00    +0.038 A 
ATOM      6  C   UNL     1       8.344   3.276  -5.365  0.00  0.00    +0.052 A 
ATOM      7  C   UNL     1       8.786   3.002  -6.645  0.00  0.00    +0.107 A 
ATOM      8  C   UNL     1       9.648   3.877  -7.281  0.00  0.00    +0.032 A 
ATOM      9  C   UNL     1      10.070   5.026  -6.639  0.00  0.00    -0.044 A 
ATOM     10  C   UNL     1       9.627   5.308  -5.362  0.00  0.00    -0.026 A 
ATOM     11  C   UNL     1      10.082   6.565  -4.666  0.00  0.00    +0.046 C 
ATOM     12  C   UNL     1      11.010   5.976  -7.337  0.00  0.00    +0.044 C 
BRANCH   7  13
ATOM     13  S   UNL     1       8.251   1.539  -7.467  0.00  0.00    +0.056 S 
ATOM     14  O   UNL     1       9.237   1.240  -8.446  0.00  0.00    -0.153 OA
ATOM     15  O   UNL     1       7.880   0.616  -6.452  0.00  0.00    -0.153 OA
BRANCH  13  16
ATOM     16  N   UNL     1       6.866   1.919  -8.291  0.00  0.00    -0.204 NA
ATOM     17  H   UNL     1       6.646   1.451  -9.112  0.00  0.00    +0.144 HD
ATOM     18  H   UNL     1       6.274   2.609  -7.953  0.00  0.00    +0.144 HD
ENDBRANCH  13  16
ENDBRANCH   7  13
ENDBRANCH   3   5
BRANCH   1  19
ATOM     19  C   UNL     1       6.785   4.330  -1.519  0.00  0.00    +0.019 C 
BRANCH  19  21
ATOM     20  C   UNL     1       5.758   2.143  -1.355  0.00  0.00    -0.095 C 
ATOM     21  N   UNL     1       5.522   3.600  -1.279  0.00  0.00    +0.386 N 
ATOM     22  H   UNL     1       4.841   3.866  -2.000  0.00  0.00    -0.081 HD
BRANCH  21  23
ATOM     23  C   UNL     1       4.979   3.955   0.049  0.00  0.00    -0.037 C 
BRANCH  23  24
ATOM     24  C   UNL     1       4.304   5.325  -0.048  0.00  0.00    +0.210 C 
BRANCH  24  25
ATOM     25  O   UNL     1       3.203   5.250  -0.956  0.00  0.00    -0.494 OA
BRANCH  25  31
ATOM     26  C   UNL     1       2.507   9.983   0.015  0.00  0.00    +0.044 C 
ATOM     27  C   UNL     1       2.119   8.714  -0.700  0.00  0.00    -0.047 A 
ATOM     28  C   UNL     1       1.042   8.711  -1.567  0.00  0.00    +0.007 A 
ATOM     29  C   UNL     1       0.687   7.550  -2.229  0.00  0.00    -0.047 A 
ATOM     30  C   UNL     1       1.409   6.390  -2.026  0.00  0.00    +0.049 A 
ATOM     31  C   UNL     1       2.491   6.390  -1.157  0.00  0.00    +0.121 A 
ATOM     32  C   UNL     1       2.844   7.556  -0.494  0.00  0.00    +0.049 A 
ATOM     33  C   UNL     1      -0.488   7.550  -3.172  0.00  0.00    +0.044 C 
ENDBRANCH  25  31
ENDBRANCH  24  25
ENDBRANCH  23  24
ENDBRANCH  21  23
ENDBRANCH  19  21
ENDBRANCH   1  19
TORSDOF 9
