REMARK  Name = ZINC40344363
REMARK  9 active torsions:
REMARK  status: ('A' for Active; 'I' for Inactive)
REMARK    1  A    between atoms: C_1  and  O_2
REMARK    2  A    between atoms: O_2  and  C_3
REMARK    3  A    between atoms: C_6  and  C_9
REMARK    4  A    between atoms: N_17  and  C_30
REMARK    5  A    between atoms: C_18  and  C_20
REMARK    6  A    between atoms: C_23  and  O_28
REMARK    7  A    between atoms: C_25  and  O_26
REMARK    8  A    between atoms: O_26  and  C_27
REMARK    9  A    between atoms: O_28  and  C_29
REMARK                            x       y       z     vdW  Elec       q    Type
REMARK                         _______ _______ _______ _____ _____    ______ ____
ROOT
ATOM      1  C   UNL     1       2.738  -2.207  -3.687  0.00  0.00    +0.099 A 
ATOM      2  C   UNL     1       3.365  -3.421  -3.988  0.00  0.00    +0.035 A 
ATOM      3  C   UNL     1       3.530  -3.430  -5.359  0.00  0.00    +0.126 A 
ATOM      4  N   UNL     1       3.008  -2.252  -5.812  0.00  0.00    -0.272 N 
ATOM      5  H   UNL     1       2.981  -1.975  -6.741  0.00  0.00    +0.189 HD
ATOM      6  N   UNL     1       2.552  -1.567  -4.824  0.00  0.00    -0.173 NA
ATOM      7  C   UNL     1       4.186  -4.685  -5.742  0.00  0.00    +0.266 C 
ATOM      8  O   UNL     1       4.473  -4.999  -6.882  0.00  0.00    -0.268 OA
ATOM      9  N   UNL     1       4.427  -5.439  -4.654  0.00  0.00    -0.282 N 
ATOM     10  C   UNL     1       3.937  -4.714  -3.475  0.00  0.00    +0.145 C 
ENDROOT
BRANCH   1  14
ATOM     11  C   UNL     1       1.619  -0.841   0.184  0.00  0.00    +0.120 A 
ATOM     12  C   UNL     1       2.240   0.027  -0.705  0.00  0.00    +0.046 A 
ATOM     13  C   UNL     1       2.604  -0.413  -1.960  0.00  0.00    +0.013 A 
ATOM     14  C   UNL     1       2.348  -1.730  -2.336  0.00  0.00    +0.003 A 
ATOM     15  C   UNL     1       1.726  -2.599  -1.442  0.00  0.00    +0.013 A 
ATOM     16  C   UNL     1       1.369  -2.155  -0.186  0.00  0.00    +0.046 A 
BRANCH  11  18
ATOM     17  C   UNL     1       1.550   0.960   1.735  0.00  0.00    +0.277 C 
ATOM     18  O   UNL     1       1.262  -0.404   1.420  0.00  0.00    -0.495 OA
ENDBRANCH  11  18
ENDBRANCH   1  14
BRANCH  10  19
ATOM     19  C   UNL     1       2.865  -5.516  -2.783  0.00  0.00    +0.019 A 
ATOM     20  C   UNL     1       1.985  -6.280  -3.526  0.00  0.00    +0.013 A 
ATOM     21  C   UNL     1       1.001  -7.016  -2.895  0.00  0.00    +0.046 A 
ATOM     22  C   UNL     1       0.894  -6.991  -1.511  0.00  0.00    +0.124 A 
ATOM     23  C   UNL     1       1.776  -6.226  -0.763  0.00  0.00    +0.091 A 
ATOM     24  C   UNL     1       2.766  -5.492  -1.399  0.00  0.00    +0.129 A 
BRANCH  24  25
ATOM     25  O   UNL     1       3.635  -4.746  -0.668  0.00  0.00    -0.495 OA
ATOM     26  C   UNL     1       3.547  -4.856   0.754  0.00  0.00    +0.277 C 
ENDBRANCH  24  25
BRANCH  22  27
ATOM     27  O   UNL     1      -0.074  -7.715  -0.890  0.00  0.00    -0.495 OA
ATOM     28  C   UNL     1      -0.947  -8.479  -1.724  0.00  0.00    +0.277 C 
ENDBRANCH  22  27
ENDBRANCH  10  19
BRANCH   9  29
ATOM     29  C   UNL     1       5.068  -6.756  -4.648  0.00  0.00    +0.077 C 
ATOM     30  C   UNL     1       6.463  -6.668  -5.299  0.00  0.00    +0.022 C 
ATOM     31  C   UNL     1       6.604  -7.999  -6.078  0.00  0.00    +0.002 C 
ATOM     32  C   UNL     1       5.175  -8.224  -6.632  0.00  0.00    +0.002 C 
ATOM     33  C   UNL     1       4.249  -7.745  -5.495  0.00  0.00    +0.022 C 
ENDBRANCH   9  29
TORSDOF 6
