REMARK  Name = ZINC29964524
REMARK  12 active torsions:
REMARK  status: ('A' for Active; 'I' for Inactive)
REMARK    1  A    between atoms: C_1  and  C_2
REMARK    2  A    between atoms: C_2  and  C_3
REMARK    3  A    between atoms: C_2  and  C_4
REMARK    4  A    between atoms: C_4  and  C_6
REMARK    5  A    between atoms: C_4  and  N_13
REMARK    6  A    between atoms: N_13  and  S_14
REMARK    7  A    between atoms: S_14  and  C_17
REMARK    8  A    between atoms: C_20  and  S_26
REMARK    9  A    between atoms: C_22  and  N_23
REMARK   10  A    between atoms: S_26  and  N_29
REMARK   11  A    between atoms: N_29  and  C_30
REMARK   12  A    between atoms: N_29  and  C_31
REMARK                            x       y       z     vdW  Elec       q    Type
REMARK                         _______ _______ _______ _____ _____    ______ ____
ROOT
ATOM      1  S   UNL     1      -0.453   1.022   0.944  0.00  0.00    +0.061 S 
ATOM      2  O   UNL     1      -0.266  -0.387   0.934  0.00  0.00    -0.153 OA
ATOM      3  O   UNL     1       0.474   1.909   1.555  0.00  0.00    -0.153 OA
ENDROOT
BRANCH   1   4
ATOM      4  C   UNL     1      -2.012   1.317   1.709  0.00  0.00    +0.135 A 
ATOM      5  C   UNL     1      -2.114   2.234   2.739  0.00  0.00    +0.033 A 
ATOM      6  C   UNL     1      -3.338   2.466   3.339  0.00  0.00    +0.030 A 
ATOM      7  C   UNL     1      -4.459   1.781   2.909  0.00  0.00    +0.108 A 
ATOM      8  C   UNL     1      -4.357   0.864   1.879  0.00  0.00    +0.063 A 
ATOM      9  C   UNL     1      -3.134   0.636   1.276  0.00  0.00    +0.154 A 
BRANCH   9  10
ATOM     10  N   UNL     1      -3.026  -0.341   0.169  0.00  0.00    +0.058 N 
ATOM     11  O   UNL     1      -3.987  -1.024  -0.136  0.00  0.00    -0.126 OA
ATOM     12  O   UNL     1      -1.976  -0.461  -0.436  0.00  0.00    -0.126 OA
ENDBRANCH   9  10
BRANCH   7  13
ATOM     13  S   UNL     1      -6.019   2.077   3.673  0.00  0.00    +0.060 S 
ATOM     14  O   UNL     1      -6.805   0.913   3.456  0.00  0.00    -0.153 OA
ATOM     15  O   UNL     1      -5.745   2.579   4.974  0.00  0.00    -0.153 OA
BRANCH  13  16
ATOM     16  N   UNL     1      -6.750   3.305   2.836  0.00  0.00    -0.183 NA
ATOM     17  C   UNL     1      -7.613   3.000   1.693  0.00  0.00    +0.131 C 
ATOM     18  C   UNL     1      -6.533   4.697   3.240  0.00  0.00    +0.131 C 
ENDBRANCH  13  16
ENDBRANCH   7  13
ENDBRANCH   1   4
BRANCH   1  19
ATOM     19  N   UNL     1      -0.586   1.492  -0.638  0.00  0.00    -0.182 NA
ATOM     20  H   UNL     1      -0.663   0.725  -1.422  0.00  0.00    +0.149 HD
BRANCH  19  21
ATOM     21  C   UNL     1      -0.819   2.901  -0.966  0.00  0.00    +0.109 C 
BRANCH  21  22
ATOM     22  C   UNL     1      -2.127   3.036  -1.701  0.00  0.00    -0.028 A 
ATOM     23  C   UNL     1      -2.484   2.099  -2.653  0.00  0.00    +0.008 A 
ATOM     24  C   UNL     1      -3.686   2.219  -3.325  0.00  0.00    +0.038 A 
ATOM     25  C   UNL     1      -4.528   3.284  -3.052  0.00  0.00    +0.123 A 
ATOM     26  C   UNL     1      -4.167   4.225  -2.102  0.00  0.00    +0.038 A 
ATOM     27  C   UNL     1      -2.967   4.100  -1.428  0.00  0.00    +0.008 A 
ATOM     28  F   UNL     1      -5.700   3.406  -3.712  0.00  0.00    -0.205 F 
ENDBRANCH  21  22
BRANCH  21  30
ATOM     29  C   UNL     1       0.065   4.879  -2.211  0.00  0.00    +0.009 C 
ATOM     30  C   UNL     1       0.319   3.414  -1.851  0.00  0.00    +0.006 C 
ATOM     31  C   UNL     1       1.645   3.297  -1.095  0.00  0.00    +0.009 C 
ENDBRANCH  21  30
ENDBRANCH  19  21
ENDBRANCH   1  19
TORSDOF 8
