REMARK  Name = ZINC41076195
REMARK  8 active torsions:
REMARK  status: ('A' for Active; 'I' for Inactive)
REMARK    1  A    between atoms: C_1  and  C_2
REMARK    2  A    between atoms: C_2  and  C_3
REMARK    3  A    between atoms: C_4  and  N_21
REMARK    4  A    between atoms: C_5  and  C_17
REMARK    5  A    between atoms: C_7  and  C_8
REMARK    6  A    between atoms: C_11  and  N_14
REMARK    7  A    between atoms: C_17  and  O_19
REMARK    8  A    between atoms: O_19  and  C_20
REMARK                            x       y       z     vdW  Elec       q    Type
REMARK                         _______ _______ _______ _____ _____    ______ ____
ROOT
ATOM      1  C   UNL     1      -1.405  -0.544   0.011  0.00  0.00    -0.011 A 
ATOM      2  C   UNL     1      -2.018  -0.880   1.194  0.00  0.00    +0.050 A 
ATOM      3  C   UNL     1      -3.337  -1.335   1.150  0.00  0.00    +0.118 A 
ATOM      4  S   UNL     1      -3.696  -1.279  -0.598  0.00  0.00    -0.080 S 
ATOM      5  C   UNL     1      -2.119  -0.666  -1.167  0.00  0.00    +0.025 A 
ENDROOT
BRANCH   5   6
ATOM      6  C   UNL     1      -1.686  -0.365  -2.548  0.00  0.00    -0.011 A 
ATOM      7  C   UNL     1      -0.473  -0.863  -3.026  0.00  0.00    +0.011 A 
ATOM      8  C   UNL     1      -0.075  -0.579  -4.316  0.00  0.00    +0.033 A 
ATOM      9  C   UNL     1      -0.876   0.198  -5.135  0.00  0.00    +0.126 A 
ATOM     10  C   UNL     1      -2.079   0.695  -4.667  0.00  0.00    +0.033 A 
ATOM     11  C   UNL     1      -2.491   0.414  -3.381  0.00  0.00    +0.011 A 
BRANCH   9  12
ATOM     12  N   UNL     1      -0.442   0.499  -6.518  0.00  0.00    +0.056 N 
ATOM     13  O   UNL     1       0.609   0.066  -6.930  0.00  0.00    -0.126 OA
ATOM     14  O   UNL     1      -1.139   1.177  -7.236  0.00  0.00    -0.126 OA
ENDBRANCH   9  12
ENDBRANCH   5   6
BRANCH   2  15
ATOM     15  N   UNL     1      -1.340  -0.770   2.405  0.00  0.00    -0.357 N 
ATOM     16  H   UNL     1      -0.423  -0.453   2.421  0.00  0.00    +0.142 HD
ATOM     17  H   UNL     1      -1.785  -1.010   3.233  0.00  0.00    +0.142 HD
ENDBRANCH   2  15
BRANCH   1  19
ATOM     18  C   UNL     1       0.024   1.482   0.030  0.00  0.00    +0.009 C 
ATOM     19  C   UNL     1       0.018  -0.048  -0.003  0.00  0.00    +0.035 C 
ENDBRANCH   1  19
BRANCH   3  20
ATOM     20  C   UNL     1      -4.173  -1.736   2.215  0.00  0.00    +0.347 C 
ATOM     21  O   UNL     1      -3.757  -1.710   3.359  0.00  0.00    -0.244 OA
BRANCH  20  22
ATOM     22  O   UNL     1      -5.434  -2.149   1.965  0.00  0.00    -0.464 OA
ATOM     23  C   UNL     1      -6.224  -2.541   3.090  0.00  0.00    +0.280 C 
ENDBRANCH  20  22
ENDBRANCH   3  20
TORSDOF 6
