REMARK  Name = ZINC14540813
REMARK  9 active torsions:
REMARK  status: ('A' for Active; 'I' for Inactive)
REMARK    1  A    between atoms: C_1  and  C_2
REMARK    2  A    between atoms: C_2  and  O_3
REMARK    3  A    between atoms: O_3  and  C_4
REMARK    4  A    between atoms: C_9  and  N_72
REMARK    5  A    between atoms: C_13  and  O_27
REMARK    6  A    between atoms: N_16  and  C_20
REMARK    7  A    between atoms: C_20  and  C_21
REMARK    8  A    between atoms: O_27  and  C_28
REMARK    9  A    between atoms: C_28  and  C_29
REMARK                            x       y       z     vdW  Elec       q    Type
REMARK                         _______ _______ _______ _____ _____    ______ ____
ROOT
ATOM      1  C   UNL     1      -0.808   4.248  -1.216  0.00  0.00    -0.044 C 
ATOM      2  C   UNL     1      -1.522   2.910  -1.182  0.00  0.00    +0.120 C 
ATOM      3  C   UNL     1      -1.220   2.167   0.115  0.00  0.00    +0.137 C 
ATOM      4  N   UNL     1       0.037   1.419  -0.051  0.00  0.00    -0.300 N 
ATOM      5  C   UNL     1       1.196   2.078  -0.140  0.00  0.00    +0.199 C 
ATOM      6  O   UNL     1       2.231   1.464  -0.291  0.00  0.00    -0.278 OA
ATOM      7  C   UNL     1       1.223   3.589  -0.051  0.00  0.00    +0.019 C 
ATOM      8  N   UNL     1       0.660   4.125  -1.315  0.00  0.00    +0.389 N 
ATOM      9  H   UNL     1       0.886   3.477  -2.078  0.00  0.00    -0.081 HD
ENDROOT
BRANCH   8  15
ATOM     10  C   UNL     1       0.616   9.354  -2.681  0.00  0.00    +0.403 C 
ATOM     11  O   UNL     1       0.395   9.616  -3.846  0.00  0.00    -0.226 OA
ATOM     12  N   UNL     1       1.165   8.168  -2.349  0.00  0.00    -0.268 N 
ATOM     13  C   UNL     1       1.501   7.183  -3.385  0.00  0.00    +0.109 C 
ATOM     14  C   UNL     1       0.838   5.848  -3.030  0.00  0.00    +0.004 C 
ATOM     15  C   UNL     1       1.252   5.438  -1.614  0.00  0.00    -0.065 C 
ATOM     16  C   UNL     1       0.775   6.495  -0.616  0.00  0.00    +0.004 C 
ATOM     17  C   UNL     1       1.437   7.837  -0.943  0.00  0.00    +0.109 C 
BRANCH  10  18
ATOM     18  O   UNL     1       0.313  10.248  -1.721  0.00  0.00    -0.451 OA
BRANCH  18  20
ATOM     19  C   UNL     1      -0.549  12.384  -0.930  0.00  0.00    +0.048 C 
ATOM     20  C   UNL     1      -0.276  11.503  -2.151  0.00  0.00    +0.230 C 
ENDBRANCH  18  20
ENDBRANCH  10  18
ENDBRANCH   8  15
BRANCH   4  21
ATOM     21  C   UNL     1       0.017  -0.044  -0.126  0.00  0.00    +0.111 C 
BRANCH  21  22
ATOM     22  C   UNL     1       0.162  -0.628   1.281  0.00  0.00    +0.011 C 
ATOM     23  C   UNL     1       1.542  -0.275   1.843  0.00  0.00    +0.033 C 
ATOM     24  C   UNL     1       1.708  -0.931   3.216  0.00  0.00    +0.160 C 
ATOM     25  O   UNL     1       1.535  -2.344   3.093  0.00  0.00    -0.380 OA
ATOM     26  C   UNL     1       0.245  -2.734   2.618  0.00  0.00    +0.160 C 
ATOM     27  C   UNL     1       0.020  -2.152   1.220  0.00  0.00    +0.033 C 
ENDBRANCH  21  22
ENDBRANCH   4  21
BRANCH   2  28
ATOM     28  O   UNL     1      -2.931   3.126  -1.283  0.00  0.00    -0.371 OA
BRANCH  28  29
ATOM     29  C   UNL     1      -3.638   2.060  -1.920  0.00  0.00    +0.215 C 
BRANCH  29  30
ATOM     30  C   UNL     1      -5.107   2.392  -1.972  0.00  0.00    +0.067 A 
ATOM     31  C   UNL     1      -5.556   3.587  -1.443  0.00  0.00    +0.025 A 
ATOM     32  C   UNL     1      -6.910   3.883  -1.496  0.00  0.00    +0.003 A 
ATOM     33  C   UNL     1      -7.764   2.962  -2.083  0.00  0.00    +0.020 A 
ATOM     34  C   UNL     1      -7.242   1.788  -2.591  0.00  0.00    +0.111 A 
ATOM     35  N   UNL     1      -5.948   1.542  -2.528  0.00  0.00    -0.258 NA
ENDBRANCH  29  30
ENDBRANCH  28  29
ENDBRANCH   2  28
TORSDOF 8
