REMARK  Name = ZINC05337578
REMARK  5 active torsions:
REMARK  status: ('A' for Active; 'I' for Inactive)
REMARK    1  A    between atoms: C_1  and  C_2
REMARK    2  A    between atoms: C_5  and  N_8
REMARK    3  A    between atoms: N_8  and  C_9
REMARK    4  A    between atoms: C_9  and  C_20
REMARK    5  A    between atoms: C_15  and  N_17
REMARK                            x       y       z     vdW  Elec       q    Type
REMARK                         _______ _______ _______ _____ _____    ______ ____
ROOT
ATOM      1  C   UNL     1      -0.728   1.577   1.220  0.00  0.00    +0.077 C 
ATOM      2  C   UNL     1      -0.024   1.114   2.515  0.00  0.00    +0.193 C 
ATOM      3  S   UNL     1      -0.146   2.634   3.554  0.00  0.00    -0.027 S 
ATOM      4  O   UNL     1      -1.431   2.688   4.160  0.00  0.00    -0.174 OA
ATOM      5  O   UNL     1       1.018   2.749   4.360  0.00  0.00    -0.174 OA
ATOM      6  C   UNL     1      -0.066   3.866   2.182  0.00  0.00    +0.200 C 
ATOM      7  C   UNL     1      -0.751   3.087   1.037  0.00  0.00    +0.215 C 
ATOM      8  C   UNL     1      -0.009   0.951   0.023  0.00  0.00    +0.035 C 
ENDROOT
BRANCH   7   9
ATOM      9  N   UNL     1      -0.077   3.416  -0.222  0.00  0.00    +0.029 N 
ATOM     10  O   UNL     1      -0.683   3.999  -1.103  0.00  0.00    -0.131 OA
ATOM     11  O   UNL     1       1.089   3.106  -0.387  0.00  0.00    -0.131 OA
ENDBRANCH   7   9
BRANCH   1  12
ATOM     12  N   UNL     1      -2.110   1.090   1.239  0.00  0.00    -0.335 N 
ATOM     13  H   UNL     1      -2.846   1.720   1.202  0.00  0.00    +0.147 HD
BRANCH  12  18
ATOM     14  C   UNL     1      -3.152  -4.476   1.530  0.00  0.00    +0.044 C 
ATOM     15  C   UNL     1      -2.875  -2.997   1.453  0.00  0.00    -0.050 A 
ATOM     16  C   UNL     1      -3.917  -2.110   1.252  0.00  0.00    +0.005 A 
ATOM     17  C   UNL     1      -3.666  -0.753   1.181  0.00  0.00    +0.023 A 
ATOM     18  C   UNL     1      -2.366  -0.281   1.311  0.00  0.00    +0.028 A 
ATOM     19  C   UNL     1      -1.322  -1.175   1.508  0.00  0.00    +0.023 A 
ATOM     20  C   UNL     1      -1.580  -2.530   1.583  0.00  0.00    +0.005 A 
ENDBRANCH  12  18
ENDBRANCH   1  12
TORSDOF 3
