REMARK  Name = ZINC14752436
REMARK  10 active torsions:
REMARK  status: ('A' for Active; 'I' for Inactive)
REMARK    1  A    between atoms: C_1  and  O_2
REMARK    2  A    between atoms: O_2  and  C_3
REMARK    3  A    between atoms: C_3  and  C_4
REMARK    4  A    between atoms: C_4  and  C_5
REMARK    5  A    between atoms: C_5  and  N_6
REMARK    6  A    between atoms: N_9  and  C_28
REMARK    7  A    between atoms: C_17  and  N_73
REMARK    8  A    between atoms: C_28  and  C_29
REMARK    9  A    between atoms: C_32  and  O_35
REMARK   10  A    between atoms: O_35  and  C_36
REMARK                            x       y       z     vdW  Elec       q    Type
REMARK                         _______ _______ _______ _____ _____    ______ ____
ROOT
ATOM      1  N   UNL     1       7.423   5.128   2.298  0.00  0.00    -0.271 N 
ATOM      2  C   UNL     1       8.579   5.728   2.643  0.00  0.00    +0.312 C 
ATOM      3  O   UNL     1       8.995   5.787   3.784  0.00  0.00    -0.252 OA
ATOM      4  N   UNL     1       9.217   6.251   1.589  0.00  0.00    -0.220 N 
ATOM      5  C   UNL     1       8.537   6.044   0.443  0.00  0.00    +0.247 C 
ATOM      6  O   UNL     1       8.853   6.396  -0.673  0.00  0.00    -0.273 OA
ATOM      7  C   UNL     1       7.296   5.280   0.844  0.00  0.00    +0.112 C 
ATOM      8  C   UNL     1       6.043   6.078   0.497  0.00  0.00    +0.017 C 
ATOM      9  C   UNL     1       4.803   5.269   0.889  0.00  0.00    -0.076 C 
ATOM     10  C   UNL     1       5.986   3.177   0.566  0.00  0.00    -0.076 C 
ATOM     11  C   UNL     1       7.265   3.916   0.163  0.00  0.00    +0.017 C 
ATOM     12  N   UNL     1       4.817   3.985   0.155  0.00  0.00    +0.382 N 
ATOM     13  H   UNL     1       4.884   4.178  -0.851  0.00  0.00    -0.081 HD
ENDROOT
BRANCH  12  14
ATOM     14  C   UNL     1       3.570   3.239   0.419  0.00  0.00    -0.064 C 
ATOM     15  C   UNL     1       2.389   4.014  -0.177  0.00  0.00    -0.010 C 
ATOM     16  C   UNL     1       1.153   3.117  -0.133  0.00  0.00    +0.034 C 
ATOM     17  C   UNL     1       0.958   2.550   1.249  0.00  0.00    -0.044 A 
ATOM     18  C   UNL     1      -0.290   2.027   1.564  0.00  0.00    +0.004 A 
ATOM     19  C   UNL     1      -0.529   1.487   2.810  0.00  0.00    +0.000 A 
ATOM     20  C   UNL     1       0.483   1.456   3.751  0.00  0.00    +0.000 A 
ATOM     21  C   UNL     1       1.723   1.976   3.441  0.00  0.00    +0.004 A 
ATOM     22  C   UNL     1       1.964   2.528   2.189  0.00  0.00    -0.046 A 
ATOM     23  C   UNL     1       3.337   3.086   1.921  0.00  0.00    +0.020 C 
ENDBRANCH  12  14
BRANCH   1  24
ATOM     24  C   UNL     1       6.480   4.456   3.196  0.00  0.00    +0.112 C 
BRANCH  24  25
ATOM     25  C   UNL     1       5.846   5.487   4.132  0.00  0.00    +0.047 C 
BRANCH  25  26
ATOM     26  C   UNL     1       4.956   4.771   5.150  0.00  0.00    +0.161 C 
BRANCH  26  28
ATOM     27  C   UNL     1       3.508   5.165   7.019  0.00  0.00    +0.193 C 
ATOM     28  O   UNL     1       4.363   5.733   6.025  0.00  0.00    -0.383 OA
ENDBRANCH  26  28
ENDBRANCH  25  26
ENDBRANCH  24  25
ENDBRANCH   1  24
BRANCH   4  29
ATOM     29  C   UNL     1      10.496   6.962   1.671  0.00  0.00    +0.153 C 
BRANCH  29  30
ATOM     30  C   UNL     1      10.241   8.431   1.888  0.00  0.00    -0.029 A 
ATOM     31  C   UNL     1      10.110   9.277   0.802  0.00  0.00    +0.009 A 
ATOM     32  C   UNL     1       9.871  10.623   0.999  0.00  0.00    +0.046 A 
ATOM     33  C   UNL     1       9.774  11.128   2.287  0.00  0.00    +0.120 A 
ATOM     34  C   UNL     1       9.912  10.278   3.375  0.00  0.00    +0.046 A 
ATOM     35  C   UNL     1      10.145   8.932   3.173  0.00  0.00    +0.009 A 
BRANCH  33  36
ATOM     36  O   UNL     1       9.546  12.454   2.483  0.00  0.00    -0.495 OA
ATOM     37  C   UNL     1       9.415  13.269   1.317  0.00  0.00    +0.277 C 
ENDBRANCH  33  36
ENDBRANCH  29  30
ENDBRANCH   4  29
TORSDOF 8
