REMARK  Name = ZINC08618126
REMARK  11 active torsions:
REMARK  status: ('A' for Active; 'I' for Inactive)
REMARK    1  A    between atoms: C_1  and  C_2
REMARK    2  A    between atoms: C_6  and  C_8
REMARK    3  A    between atoms: C_8  and  C_9
REMARK    4  A    between atoms: C_8  and  C_10
REMARK    5  A    between atoms: C_8  and  C_11
REMARK    6  A    between atoms: C_13  and  C_14
REMARK    7  A    between atoms: C_14  and  O_16
REMARK    8  A    between atoms: O_16  and  N_17
REMARK    9  A    between atoms: C_18  and  C_19
REMARK   10  A    between atoms: C_21  and  C_29
REMARK   11  A    between atoms: C_23  and  C_25
REMARK                            x       y       z     vdW  Elec       q    Type
REMARK                         _______ _______ _______ _____ _____    ______ ____
ROOT
ATOM      1  N   UNL     1       0.056  -0.420   4.865  0.00  0.00    -0.059 NA
ATOM      2  C   UNL     1       0.077  -1.138   5.950  0.00  0.00    +0.163 C 
ATOM      3  N   UNL     1       0.095  -2.519   5.867  0.00  0.00    -0.340 N 
ATOM      4  H   UNL     1       0.092  -2.952   4.999  0.00  0.00    +0.144 HD
ATOM      5  H   UNL     1       0.110  -3.054   6.676  0.00  0.00    +0.144 HD
ENDROOT
BRANCH   2   6
ATOM      6  C   UNL     1       0.081  -0.477   7.275  0.00  0.00    +0.019 A 
ATOM      7  C   UNL     1       0.057   0.915   7.363  0.00  0.00    +0.023 A 
ATOM      8  C   UNL     1       0.061   1.525   8.600  0.00  0.00    +0.056 A 
ATOM      9  C   UNL     1       0.088   0.760   9.752  0.00  0.00    +0.024 A 
ATOM     10  C   UNL     1       0.112  -0.621   9.672  0.00  0.00    +0.056 A 
ATOM     11  C   UNL     1       0.103  -1.243   8.440  0.00  0.00    +0.023 A 
BRANCH  10  12
ATOM     12  C   UNL     1       0.142  -1.448  10.931  0.00  0.00    +0.417 C 
ATOM     13  F   UNL     1      -1.167  -1.727  11.338  0.00  0.00    -0.166 F 
ATOM     14  F   UNL     1       0.821  -2.646  10.687  0.00  0.00    -0.166 F 
ATOM     15  F   UNL     1       0.802  -0.736  11.940  0.00  0.00    -0.166 F 
ENDBRANCH  10  12
BRANCH   8  16
ATOM     16  C   UNL     1       0.035   3.029   8.697  0.00  0.00    +0.417 C 
ATOM     17  F   UNL     1       0.010   3.579   7.411  0.00  0.00    -0.166 F 
ATOM     18  F   UNL     1      -1.107   3.432   9.399  0.00  0.00    -0.166 F 
ATOM     19  F   UNL     1       1.177   3.472   9.372  0.00  0.00    -0.166 F 
ENDBRANCH   8  16
ENDBRANCH   2   6
BRANCH   1  20
ATOM     20  O   UNL     1       0.052  -1.053   3.598  0.00  0.00    -0.310 OA
BRANCH  20  21
ATOM     21  C   UNL     1       0.030  -0.196   2.557  0.00  0.00    +0.373 C 
ATOM     22  O   UNL     1       0.016   1.004   2.758  0.00  0.00    -0.242 OA
BRANCH  21  31
ATOM     23  C   UNL     1      -0.018   1.503   0.010  0.00  0.00    +0.046 C 
ATOM     24  C   UNL     1       0.002  -0.004   0.002  0.00  0.00    -0.015 A 
ATOM     25  C   UNL     1       0.005  -0.697  -1.194  0.00  0.00    +0.030 A 
ATOM     26  C   UNL     1       0.025  -2.102  -1.134  0.00  0.00    +0.028 A 
ATOM     27  C   UNL     1       0.029  -2.791  -2.344  0.00  0.00    +0.027 A 
ATOM     28  C   UNL     1       0.014  -2.105  -3.506  0.00  0.00    -0.003 A 
ATOM     29  S   UNL     1      -0.008  -0.408  -2.960  0.00  0.00    -0.092 S 
ATOM     30  S   UNL     1       0.039  -2.402   0.630  0.00  0.00    -0.081 S 
ATOM     31  C   UNL     1       0.023  -0.709   1.188  0.00  0.00    +0.103 A 
BRANCH  28  32
ATOM     32  C   UNL     1       0.015  -2.641  -4.915  0.00  0.00    -0.006 C 
ATOM     33  C   UNL     1      -1.223  -3.514  -5.129  0.00  0.00    +0.016 C 
ATOM     34  C   UNL     1      -0.006  -1.474  -5.904  0.00  0.00    +0.016 C 
ATOM     35  C   UNL     1       1.276  -3.478  -5.141  0.00  0.00    +0.016 C 
ENDBRANCH  28  32
ENDBRANCH  21  31
ENDBRANCH  20  21
ENDBRANCH   1  20
TORSDOF 7
