REMARK  Name = ZINC12291647
REMARK  8 active torsions:
REMARK  status: ('A' for Active; 'I' for Inactive)
REMARK    1  A    between atoms: C_1  and  C_2
REMARK    2  A    between atoms: C_2  and  O_3
REMARK    3  A    between atoms: O_3  and  C_4
REMARK    4  A    between atoms: C_7  and  C_10
REMARK    5  A    between atoms: C_12  and  C_24
REMARK    6  A    between atoms: C_14  and  C_19
REMARK    7  A    between atoms: C_14  and  O_23
REMARK    8  A    between atoms: C_24  and  C_26
REMARK                            x       y       z     vdW  Elec       q    Type
REMARK                         _______ _______ _______ _____ _____    ______ ____
ROOT
ATOM      1  C   UNL     1       1.143  -6.051   1.770  0.00  0.00    +0.120 C 
ATOM      2  C   UNL     1      -0.118  -6.605   2.440  0.00  0.00    +0.144 C 
ATOM      3  C   UNL     1      -0.019  -8.133   2.481  0.00  0.00    +0.243 C 
ATOM      4  N   UNL     1       0.197  -8.637   1.124  0.00  0.00    -0.264 N 
ATOM      5  C   UNL     1       0.833  -7.902   0.200  0.00  0.00    +0.302 C 
ATOM      6  O   UNL     1       0.996  -8.372  -0.910  0.00  0.00    -0.253 OA
ATOM      7  N   UNL     1       1.298  -6.668   0.451  0.00  0.00    -0.292 N 
ATOM      8  H   UNL     1      -0.126  -9.521   0.888  0.00  0.00    +0.153 HD
ATOM      9  H   UNL     1       1.744  -6.175  -0.255  0.00  0.00    +0.151 HD
ENDROOT
BRANCH   1  13
ATOM     10  C   UNL     1       0.788  -1.815   1.332  0.00  0.00    +0.121 A 
ATOM     11  C   UNL     1       1.356  -2.350   2.479  0.00  0.00    +0.046 A 
ATOM     12  C   UNL     1       1.465  -3.720   2.620  0.00  0.00    +0.009 A 
ATOM     13  C   UNL     1       1.018  -4.558   1.615  0.00  0.00    -0.026 A 
ATOM     14  C   UNL     1       0.457  -4.027   0.468  0.00  0.00    +0.009 A 
ATOM     15  C   UNL     1       0.341  -2.658   0.324  0.00  0.00    +0.046 A 
BRANCH  10  16
ATOM     16  O   UNL     1       0.675  -0.468   1.192  0.00  0.00    -0.492 OA
BRANCH  16  18
ATOM     17  C   UNL     1       0.946   1.816   1.934  0.00  0.00    +0.048 C 
ATOM     18  C   UNL     1       1.156   0.338   2.270  0.00  0.00    +0.225 C 
ENDBRANCH  16  18
ENDBRANCH  10  16
ENDBRANCH   1  13
BRANCH   3  19
ATOM     19  C   UNL     1       1.155  -8.545   3.373  0.00  0.00    +0.436 C 
ATOM     20  F   UNL     1       0.951  -8.057   4.668  0.00  0.00    -0.166 F 
ATOM     21  F   UNL     1       1.244  -9.941   3.409  0.00  0.00    -0.166 F 
ATOM     22  F   UNL     1       2.341  -8.015   2.856  0.00  0.00    -0.166 F 
ENDBRANCH   3  19
BRANCH   3  23
ATOM     23  O   UNL     1      -1.232  -8.677   3.005  0.00  0.00    -0.364 OA
ATOM     24  H   UNL     1      -1.239  -9.643   3.060  0.00  0.00    +0.212 HD
ENDBRANCH   3  23
BRANCH   2  25
ATOM     25  C   UNL     1      -1.333  -6.198   1.646  0.00  0.00    +0.173 C 
ATOM     26  O   UNL     1      -1.273  -6.131   0.437  0.00  0.00    -0.292 OA
BRANCH  25  27
ATOM     27  C   UNL     1      -2.592  -5.882   2.338  0.00  0.00    +0.018 A 
ATOM     28  C   UNL     1      -2.667  -5.964   3.733  0.00  0.00    +0.013 A 
ATOM     29  C   UNL     1      -3.848  -5.660   4.375  0.00  0.00    +0.020 A 
ATOM     30  C   UNL     1      -4.963  -5.287   3.642  0.00  0.00    +0.041 A 
ATOM     31  C   UNL     1      -4.898  -5.210   2.260  0.00  0.00    +0.020 A 
ATOM     32  C   UNL     1      -3.722  -5.504   1.605  0.00  0.00    +0.013 A 
ATOM     33 CL   UNL     1      -6.449  -4.914   4.459  0.00  0.00    -0.084 Cl
ENDBRANCH  25  27
ENDBRANCH   2  25
TORSDOF 7
