REMARK  Name = ZINC33928335
REMARK  6 active torsions:
REMARK  status: ('A' for Active; 'I' for Inactive)
REMARK    1  A    between atoms: C_1  and  C_2
REMARK    2  A    between atoms: N_8  and  C_9
REMARK    3  A    between atoms: C_9  and  C_10
REMARK    4  A    between atoms: C_11  and  C_21
REMARK    5  A    between atoms: N_23  and  N_24
REMARK    6  A    between atoms: C_25  and  C_26
REMARK                            x       y       z     vdW  Elec       q    Type
REMARK                         _______ _______ _______ _____ _____    ______ ____
ROOT
ATOM      1  C   UNL     1       1.560  -0.998   2.902  0.00  0.00    +0.063 A 
ATOM      2  C   UNL     1       1.359  -2.135   3.631  0.00  0.00    +0.170 A 
ATOM      3  N   UNL     1       2.514  -2.465   4.234  0.00  0.00    -0.124 NA
ATOM      4  N   UNL     1       3.422  -1.605   3.927  0.00  0.00    -0.058 NA
ATOM      5  N   UNL     1       2.855  -0.650   3.071  0.00  0.00    -0.194 N 
ATOM      6  C   UNL     1       3.504   0.452   2.503  0.00  0.00    +0.240 A 
ATOM      7  C   UNL     1       4.912   0.810   2.694  0.00  0.00    +0.206 A 
ATOM      8  N   UNL     1       5.156   1.895   2.011  0.00  0.00    -0.032 NA
ATOM      9  O   UNL     1       3.955   2.280   1.365  0.00  0.00    -0.239 OA
ATOM     10  N   UNL     1       2.961   1.332   1.710  0.00  0.00    -0.027 NA
ATOM     11  N   UNL     1       5.831   0.114   3.471  0.00  0.00    -0.337 N 
ATOM     12  H   UNL     1       5.557  -0.686   3.946  0.00  0.00    +0.144 HD
ATOM     13  H   UNL     1       6.747   0.428   3.538  0.00  0.00    +0.144 HD
ENDROOT
BRANCH   2  14
ATOM     14  C   UNL     1       0.089  -2.877   3.739  0.00  0.00    +0.285 C 
ATOM     15  O   UNL     1      -0.898  -2.483   3.146  0.00  0.00    -0.267 OA
ATOM     16  N   UNL     1       0.021  -3.991   4.494  0.00  0.00    -0.202 N 
ATOM     17  H   UNL     1       0.807  -4.305   4.967  0.00  0.00    +0.178 HD
BRANCH  16  18
ATOM     18  N   UNL     1      -1.186  -4.696   4.596  0.00  0.00    -0.187 NA
ATOM     19  C   UNL     1      -1.285  -5.699   5.414  0.00  0.00    +0.138 C 
BRANCH  19  20
ATOM     20  C   UNL     1      -0.353  -5.818   6.550  0.00  0.00    -0.004 A 
ATOM     21  C   UNL     1       0.444  -4.732   6.920  0.00  0.00    +0.012 A 
ATOM     22  C   UNL     1       1.314  -4.849   7.984  0.00  0.00    +0.040 A 
ATOM     23  C   UNL     1       1.399  -6.041   8.685  0.00  0.00    +0.137 A 
ATOM     24  C   UNL     1       0.611  -7.123   8.323  0.00  0.00    +0.054 A 
ATOM     25  C   UNL     1      -0.267  -7.016   7.264  0.00  0.00    +0.027 A 
ATOM     26 BR   UNL     1       0.735  -8.745   9.286  0.00  0.00    -0.047 Br
ATOM     27  F   UNL     1       2.254  -6.150   9.726  0.00  0.00    -0.204 F 
ENDBRANCH  19  20
ENDBRANCH  16  18
ENDBRANCH   2  14
BRANCH   1  28
ATOM     28  C   UNL     1       0.537  -0.274   2.066  0.00  0.00    -0.019 C 
BRANCH  28  35
ATOM     29  C   UNL     1       0.049   1.449  -0.097  0.00  0.00    -0.013 C 
ATOM     30  C   UNL     1      -0.356  -0.025  -0.145  0.00  0.00    -0.071 C 
ATOM     31  C   UNL     1      -0.279  -0.528  -1.589  0.00  0.00    -0.016 C 
ATOM     32  C   UNL     1      -0.685  -2.004  -1.631  0.00  0.00    -0.003 C 
ATOM     33  C   UNL     1       0.223  -2.801  -0.691  0.00  0.00    -0.019 C 
ATOM     34  C   UNL     1       0.128  -2.214   0.719  0.00  0.00    -0.078 C 
ATOM     35  N   UNL     1       0.554  -0.810   0.698  0.00  0.00    +0.385 N 
ATOM     36  H   UNL     1       1.491  -0.749   0.327  0.00  0.00    -0.081 HD
ENDBRANCH  28  35
ENDBRANCH   1  28
TORSDOF 5
