REMARK  Name = ZINC03246235
REMARK  7 active torsions:
REMARK  status: ('A' for Active; 'I' for Inactive)
REMARK    1  A    between atoms: C_1  and  C_2
REMARK    2  A    between atoms: C_5  and  C_31
REMARK    3  A    between atoms: C_9  and  N_10
REMARK    4  A    between atoms: C_9  and  N_54
REMARK    5  A    between atoms: C_14  and  S_20
REMARK    6  A    between atoms: S_20  and  N_23
REMARK    7  A    between atoms: N_23  and  C_24
REMARK                            x       y       z     vdW  Elec       q    Type
REMARK                         _______ _______ _______ _____ _____    ______ ____
ROOT
ATOM      1  N   UNL     1      -1.323   1.235  -3.188  0.00  0.00    -0.319 N 
ATOM      2  C   UNL     1      -2.330   0.450  -3.748  0.00  0.00    +0.086 A 
ATOM      3  C   UNL     1      -2.865  -0.786  -3.420  0.00  0.00    +0.031 A 
ATOM      4  C   UNL     1      -3.889  -1.315  -4.181  0.00  0.00    +0.031 A 
ATOM      5  C   UNL     1      -4.385  -0.613  -5.266  0.00  0.00    +0.112 A 
ATOM      6  C   UNL     1      -3.860   0.622  -5.595  0.00  0.00    +0.077 A 
ATOM      7  C   UNL     1      -2.833   1.161  -4.837  0.00  0.00    +0.156 A 
ATOM      8  O   UNL     1      -2.135   2.321  -4.916  0.00  0.00    -0.431 OA
ATOM      9  C   UNL     1      -1.231   2.360  -3.924  0.00  0.00    +0.248 A 
ATOM     10  S   UNL     1      -0.131   3.641  -3.639  0.00  0.00    +0.009 S 
ENDROOT
BRANCH   5  11
ATOM     11  S   UNL     1      -5.691  -1.296  -6.231  0.00  0.00    +0.073 S 
ATOM     12  O   UNL     1      -6.377  -2.215  -5.393  0.00  0.00    -0.150 OA
ATOM     13  O   UNL     1      -6.345  -0.203  -6.861  0.00  0.00    -0.150 OA
BRANCH  11  14
ATOM     14  N   UNL     1      -4.991  -2.188  -7.439  0.00  0.00    -0.215 N 
ATOM     15  H   UNL     1      -5.152  -1.957  -8.367  0.00  0.00    +0.174 HD
BRANCH  14  16
ATOM     16  C   UNL     1      -4.170  -3.272  -7.121  0.00  0.00    +0.066 A 
ATOM     17  C   UNL     1      -4.461  -4.066  -6.019  0.00  0.00    +0.026 A 
ATOM     18  C   UNL     1      -3.650  -5.141  -5.710  0.00  0.00    +0.002 A 
ATOM     19  C   UNL     1      -2.542  -5.420  -6.489  0.00  0.00    +0.002 A 
ATOM     20  C   UNL     1      -2.246  -4.630  -7.584  0.00  0.00    +0.022 A 
ATOM     21  C   UNL     1      -3.056  -3.556  -7.902  0.00  0.00    +0.063 A 
ATOM     22 CL   UNL     1      -2.683  -2.562  -9.276  0.00  0.00    -0.082 Cl
ENDBRANCH  14  16
ENDBRANCH  11  14
ENDBRANCH   5  11
BRANCH   1  23
ATOM     23  C   UNL     1      -0.510   0.897  -2.017  0.00  0.00    +0.051 C 
BRANCH  23  31
ATOM     24  C   UNL     1      -2.049   4.877   0.428  0.00  0.00    +0.005 C 
ATOM     25  C   UNL     1      -2.025   3.348   0.407  0.00  0.00    -0.030 C 
ATOM     26  C   UNL     1      -1.383   2.828   1.696  0.00  0.00    +0.003 C 
ATOM     27  C   UNL     1      -1.308   1.300   1.640  0.00  0.00    -0.030 C 
ATOM     28  C   UNL     1      -0.512   0.877   0.404  0.00  0.00    -0.073 C 
ATOM     29  C   UNL     1      -1.209   2.866  -0.794  0.00  0.00    -0.073 C 
ATOM     30  C   UNL     1      -2.723   0.722   1.559  0.00  0.00    +0.005 C 
ATOM     31  N   UNL     1      -1.196   1.387  -0.804  0.00  0.00    +0.392 N 
ATOM     32  H   UNL     1      -2.164   1.046  -0.807  0.00  0.00    -0.079 HD
ENDBRANCH  23  31
ENDBRANCH   1  23
TORSDOF 5
