REMARK  Name = ZINC39973058
REMARK  6 active torsions:
REMARK  status: ('A' for Active; 'I' for Inactive)
REMARK    1  A    between atoms: C_7  and  C_19
REMARK    2  A    between atoms: N_9  and  C_10
REMARK    3  A    between atoms: C_10  and  C_11
REMARK    4  A    between atoms: C_14  and  C_16
REMARK    5  A    between atoms: C_20  and  C_21
REMARK    6  A    between atoms: C_20  and  C_23
REMARK                            x       y       z     vdW  Elec       q    Type
REMARK                         _______ _______ _______ _____ _____    ______ ____
ROOT
ATOM      1  C   UNL     1       1.120   1.109   1.419  0.00  0.00    +0.001 A 
ATOM      2  C   UNL     1       2.404   1.459   1.815  0.00  0.00    +0.002 A 
ATOM      3  C   UNL     1       3.415   0.524   1.822  0.00  0.00    +0.026 A 
ATOM      4  C   UNL     1       3.153  -0.785   1.431  0.00  0.00    +0.050 A 
ATOM      5  C   UNL     1       1.854  -1.138   1.032  0.00  0.00    +0.007 A 
ATOM      6  C   UNL     1       0.841  -0.182   1.028  0.00  0.00    +0.010 A 
ATOM      7  C   UNL     1       1.911  -2.571   0.686  0.00  0.00    +0.001 A 
ATOM      8  C   UNL     1       3.200  -2.968   0.896  0.00  0.00    +0.095 A 
ATOM      9  N   UNL     1       3.938  -1.916   1.336  0.00  0.00    -0.339 N 
ENDROOT
BRANCH   7  10
ATOM     10  C   UNL     1       0.802  -3.403   0.212  0.00  0.00    +0.028 C 
ATOM     11  C   UNL     1       1.029  -4.375  -0.701  0.00  0.00    +0.072 C 
BRANCH  11  12
ATOM     12  C   UNL     1       2.375  -4.483  -1.369  0.00  0.00    +0.216 C 
ATOM     13  N   UNL     1       2.208  -4.634  -2.820  0.00  0.00    -0.359 N 
ATOM     14  C   UNL     1       2.736  -5.774  -3.158  0.00  0.00    +0.060 A 
ATOM     15  C   UNL     1       2.876  -6.468  -4.446  0.00  0.00    +0.027 A 
ATOM     16  C   UNL     1       3.485  -7.670  -4.491  0.00  0.00    +0.002 A 
ATOM     17  C   UNL     1       4.001  -8.302  -3.346  0.00  0.00    +0.002 A 
ATOM     18  C   UNL     1       3.926  -7.753  -2.117  0.00  0.00    +0.027 A 
ATOM     19  C   UNL     1       3.284  -6.443  -1.946  0.00  0.00    +0.060 A 
ATOM     20  N   UNL     1       3.072  -5.690  -0.906  0.00  0.00    -0.359 N 
ATOM     21  H   UNL     1       1.781  -3.999  -3.417  0.00  0.00    +0.162 HD
ATOM     22  H   UNL     1       3.329  -5.889   0.008  0.00  0.00    +0.162 HD
ENDBRANCH  11  12
BRANCH  11  23
ATOM     23  C   UNL     1      -0.012  -5.302  -1.034  0.00  0.00    +0.099 C 
ATOM     24  N   UNL     1      -0.837  -6.037  -1.298  0.00  0.00    -0.191 NA
ENDBRANCH  11  23
ENDBRANCH   7  10
BRANCH   9  25
ATOM     25  C   UNL     1       5.365  -1.974   1.663  0.00  0.00    +0.196 C 
BRANCH  25  26
ATOM     26  C   UNL     1       5.532  -2.209   3.142  0.00  0.00    +0.126 A 
ATOM     27  C   UNL     1       5.620  -3.418   3.740  0.00  0.00    +0.047 A 
ATOM     28  C   UNL     1       5.767  -3.191   5.116  0.00  0.00    +0.057 A 
ATOM     29  C   UNL     1       5.762  -1.824   5.290  0.00  0.00    +0.216 A 
ATOM     30  O   UNL     1       5.623  -1.253   4.075  0.00  0.00    -0.451 OA
BRANCH  29  31
ATOM     31  C   UNL     1       5.889  -1.118   6.563  0.00  0.00    +0.421 C 
ATOM     32  O   UNL     1       6.015  -1.750   7.605  0.00  0.00    -0.237 OA
ATOM     33  O   UNL     1       5.870   0.107   6.589  0.00  0.00    -0.237 OA
ENDBRANCH  29  31
ENDBRANCH  25  26
ENDBRANCH   9  25
TORSDOF 6
