REMARK  Name = ZINC38180274
REMARK  10 active torsions:
REMARK  status: ('A' for Active; 'I' for Inactive)
REMARK    1  A    between atoms: C_1  and  C_2
REMARK    2  A    between atoms: N_9  and  N_10
REMARK    3  A    between atoms: C_11  and  C_13
REMARK    4  A    between atoms: C_13  and  N_14
REMARK    5  A    between atoms: C_15  and  C_17
REMARK    6  A    between atoms: N_26  and  C_27
REMARK    7  A    between atoms: C_27  and  C_28
REMARK    8  A    between atoms: C_28  and  C_29
REMARK    9  A    between atoms: C_29  and  C_30
REMARK   10  A    between atoms: C_29  and  C_31
REMARK                            x       y       z     vdW  Elec       q    Type
REMARK                         _______ _______ _______ _____ _____    ______ ____
ROOT
ATOM      1  C   UNL     1      -0.018   1.503   0.010  0.00  0.00    +0.044 C 
ATOM      2  C   UNL     1       0.002  -0.004   0.002  0.00  0.00    -0.050 A 
ATOM      3  C   UNL     1       0.006  -0.689  -1.201  0.00  0.00    +0.005 A 
ATOM      4  C   UNL     1       0.024  -2.069  -1.225  0.00  0.00    +0.024 A 
ATOM      5  C   UNL     1       0.039  -2.787  -0.034  0.00  0.00    +0.046 A 
ATOM      6  C   UNL     1       0.035  -2.090   1.181  0.00  0.00    +0.029 A 
ATOM      7  C   UNL     1       0.023  -0.700   1.194  0.00  0.00    +0.015 A 
ATOM      8  C   UNL     1       0.054  -3.115   2.251  0.00  0.00    +0.153 C 
ATOM      9  N   UNL     1       0.058  -2.916   3.547  0.00  0.00    -0.174 NA
ATOM     10  C   UNL     1       0.069  -4.409   1.539  0.00  0.00    +0.271 C 
ATOM     11  O   UNL     1       0.086  -5.511   2.056  0.00  0.00    -0.268 OA
ATOM     12  N   UNL     1       0.059  -4.154   0.220  0.00  0.00    -0.266 N 
ENDROOT
BRANCH   9  13
ATOM     13  N   UNL     1       0.077  -4.009   4.423  0.00  0.00    -0.205 N 
ATOM     14  C   UNL     1       0.080  -3.804   5.755  0.00  0.00    +0.249 C 
ATOM     15  O   UNL     1       0.067  -2.675   6.195  0.00  0.00    -0.272 OA
ATOM     16  H   UNL     1       0.087  -4.913   4.071  0.00  0.00    +0.177 HD
BRANCH  14  17
ATOM     17  C   UNL     1       0.101  -4.980   6.698  0.00  0.00    +0.202 C 
BRANCH  17  18
ATOM     18  N   UNL     1       0.101  -4.497   8.081  0.00  0.00    -0.303 N 
ATOM     19  C   UNL     1       0.117  -5.377   9.102  0.00  0.00    +0.246 C 
ATOM     20  O   UNL     1       0.132  -6.571   8.875  0.00  0.00    -0.270 OA
ATOM     21  H   UNL     1       0.088  -3.544   8.262  0.00  0.00    +0.150 HD
BRANCH  19  22
ATOM     22  C   UNL     1       0.117  -4.889  10.497  0.00  0.00    +0.051 A 
ATOM     23  C   UNL     1       0.094  -3.519  10.761  0.00  0.00    +0.014 A 
ATOM     24  C   UNL     1       0.094  -3.071  12.065  0.00  0.00    +0.001 A 
ATOM     25  C   UNL     1       0.117  -3.976  13.112  0.00  0.00    +0.001 A 
ATOM     26  C   UNL     1       0.140  -5.335  12.859  0.00  0.00    +0.016 A 
ATOM     27  C   UNL     1       0.135  -5.798  11.557  0.00  0.00    +0.030 A 
ATOM     28 BR   UNL     1       0.158  -7.657  11.213  0.00  0.00    -0.050 Br
ENDBRANCH  19  22
ENDBRANCH  17  18
ENDBRANCH  14  17
ENDBRANCH   9  13
BRANCH  12  29
ATOM     29  C   UNL     1       0.068  -5.186  -0.820  0.00  0.00    +0.114 C 
BRANCH  29  30
ATOM     30  C   UNL     1       1.514  -5.526  -1.188  0.00  0.00    +0.022 C 
BRANCH  30  31
ATOM     31  C   UNL     1       1.523  -6.604  -2.274  0.00  0.00    -0.016 C 
ATOM     32  C   UNL     1       0.900  -6.044  -3.554  0.00  0.00    +0.007 C 
ATOM     33  C   UNL     1       2.965  -7.033  -2.554  0.00  0.00    +0.007 C 
ENDBRANCH  30  31
ENDBRANCH  29  30
ENDBRANCH  12  29
TORSDOF 7
