REMARK  Name = ZINC25011354
REMARK  10 active torsions:
REMARK  status: ('A' for Active; 'I' for Inactive)
REMARK    1  A    between atoms: C_1  and  C_2
REMARK    2  A    between atoms: C_3  and  C_34
REMARK    3  A    between atoms: C_11  and  C_13
REMARK    4  A    between atoms: C_13  and  S_14
REMARK    5  A    between atoms: S_14  and  C_15
REMARK    6  A    between atoms: C_15  and  C_17
REMARK    7  A    between atoms: C_15  and  C_18
REMARK    8  A    between atoms: C_23  and  C_26
REMARK    9  A    between atoms: C_26  and  N_27
REMARK   10  A    between atoms: C_30  and  C_33
REMARK                            x       y       z     vdW  Elec       q    Type
REMARK                         _______ _______ _______ _____ _____    ______ ____
ROOT
ATOM      1  C   UNL     1       0.275  -7.601   5.074  0.00  0.00    +0.231 C 
ATOM      2  O   UNL     1      -0.009  -7.973   3.955  0.00  0.00    -0.274 OA
ATOM      3  N   UNL     1       0.716  -8.489   5.987  0.00  0.00    -0.264 N 
ATOM      4  C   UNL     1       0.846  -9.830   5.646  0.00  0.00    +0.165 A 
ATOM      5  N   UNL     1       1.251 -10.829   6.399  0.00  0.00    -0.231 NA
ATOM      6  C   UNL     1       1.320 -12.059   5.923  0.00  0.00    +0.034 A 
ATOM      7  C   UNL     1       0.955 -12.240   4.630  0.00  0.00    +0.070 A 
ATOM      8  S   UNL     1       0.515 -10.571   4.172  0.00  0.00    -0.060 S 
ATOM      9  H   UNL     1       0.944  -8.191   6.882  0.00  0.00    +0.157 HD
ENDROOT
BRANCH   1  10
ATOM     10  C   UNL     1       0.135  -6.147   5.443  0.00  0.00    +0.130 C 
ATOM     11  C   UNL     1      -1.169  -5.941   6.217  0.00  0.00    +0.029 C 
BRANCH  10  12
ATOM     12  S   UNL     1       0.108  -5.139   3.935  0.00  0.00    -0.141 S 
BRANCH  12  13
ATOM     13  C   UNL     1       0.090  -3.432   4.547  0.00  0.00    +0.144 C 
BRANCH  13  24
ATOM     14  C   UNL     1      -0.018   1.503   0.010  0.00  0.00    +0.045 C 
ATOM     15  C   UNL     1       0.002  -0.004   0.002  0.00  0.00    -0.026 A 
ATOM     16  C   UNL     1       0.006  -0.677  -1.160  0.00  0.00    -0.008 A 
ATOM     17  S   UNL     1       0.032  -2.385  -0.648  0.00  0.00    -0.073 S 
ATOM     18  C   UNL     1       0.037  -2.144   1.110  0.00  0.00    +0.116 A 
ATOM     19  C   UNL     1       0.024  -0.745   1.250  0.00  0.00    +0.075 A 
ATOM     20  C   UNL     1       0.029  -0.257   2.597  0.00  0.00    +0.260 A 
ATOM     21  O   UNL     1       0.014   0.942   2.821  0.00  0.00    -0.267 OA
ATOM     22  N   UNL     1       0.051  -1.142   3.611  0.00  0.00    -0.310 N 
ATOM     23  H   UNL     1       0.054  -0.817   4.525  0.00  0.00    +0.170 HD
ATOM     24  C   UNL     1       0.067  -2.480   3.380  0.00  0.00    +0.121 A 
ATOM     25  N   UNL     1       0.053  -2.956   2.163  0.00  0.00    -0.226 NA
ATOM     26  C   UNL     1      -0.009  -0.122  -2.561  0.00  0.00    +0.052 C 
ENDBRANCH  13  24
ENDBRANCH  12  13
ENDBRANCH  10  12
ENDBRANCH   1  10
BRANCH   6  27
ATOM     27  C   UNL     1       1.783 -13.209   6.779  0.00  0.00    -0.022 C 
BRANCH  27  28
ATOM     28  N   UNL     1       3.250 -13.280   6.750  0.00  0.00    +0.383 N 
ATOM     29  C   UNL     1       3.809 -12.074   7.372  0.00  0.00    -0.078 C 
ATOM     30  C   UNL     1       5.336 -12.105   7.273  0.00  0.00    -0.016 C 
ATOM     31  C   UNL     1       5.864 -13.346   7.998  0.00  0.00    -0.018 C 
ATOM     32  C   UNL     1       5.217 -14.594   7.390  0.00  0.00    -0.016 C 
ATOM     33  C   UNL     1       3.695 -14.471   7.485  0.00  0.00    -0.078 C 
ATOM     34  C   UNL     1       7.383 -13.426   7.836  0.00  0.00    +0.007 C 
ATOM     35  H   UNL     1       3.565 -13.340   5.794  0.00  0.00    -0.081 HD
ENDBRANCH  27  28
ENDBRANCH   6  27
TORSDOF 6
