REMARK  Name = ZINC35093787
REMARK  13 active torsions:
REMARK  status: ('A' for Active; 'I' for Inactive)
REMARK    1  A    between atoms: C_1  and  C_2
REMARK    2  A    between atoms: C_2  and  C_3
REMARK    3  A    between atoms: C_6  and  N_9
REMARK    4  A    between atoms: C_19  and  C_20
REMARK    5  A    between atoms: C_20  and  C_22
REMARK    6  A    between atoms: C_20  and  N_24
REMARK    7  A    between atoms: C_22  and  C_23
REMARK    8  A    between atoms: N_24  and  C_25
REMARK    9  A    between atoms: C_25  and  C_26
REMARK   10  A    between atoms: C_26  and  N_27
REMARK   11  A    between atoms: N_27  and  C_28
REMARK   12  A    between atoms: N_27  and  C_29
REMARK   13  A    between atoms: C_30  and  C_32
REMARK                            x       y       z     vdW  Elec       q    Type
REMARK                         _______ _______ _______ _____ _____    ______ ____
ROOT
ATOM      1  N   UNL     1      -8.289  -1.016  -1.605  0.00  0.00    -0.263 N 
ATOM      2  C   UNL     1      -9.377  -1.142  -0.810  0.00  0.00    +0.266 A 
ATOM      3  O   UNL     1     -10.245  -0.289  -0.785  0.00  0.00    -0.267 OA
ATOM      4  C   UNL     1      -9.470  -2.350   0.022  0.00  0.00    +0.065 A 
ATOM      5  C   UNL     1     -10.550  -2.576   0.874  0.00  0.00    +0.015 A 
ATOM      6  C   UNL     1     -10.587  -3.726   1.632  0.00  0.00    +0.001 A 
ATOM      7  C   UNL     1      -9.560  -4.658   1.553  0.00  0.00    +0.002 A 
ATOM      8  C   UNL     1      -8.485  -4.453   0.718  0.00  0.00    +0.028 A 
ATOM      9  C   UNL     1      -8.424  -3.296  -0.061  0.00  0.00    +0.078 A 
ATOM     10  N   UNL     1      -7.384  -3.055  -0.897  0.00  0.00    -0.231 NA
ATOM     11  C   UNL     1      -7.330  -1.981  -1.625  0.00  0.00    +0.138 A 
ENDROOT
BRANCH   1  15
ATOM     12  C   UNL     1      -7.879   2.354  -4.023  0.00  0.00    -0.047 A 
ATOM     13  C   UNL     1      -8.847   1.410  -4.313  0.00  0.00    +0.005 A 
ATOM     14  C   UNL     1      -8.985   0.292  -3.514  0.00  0.00    +0.026 A 
ATOM     15  C   UNL     1      -8.151   0.117  -2.418  0.00  0.00    +0.051 A 
ATOM     16  C   UNL     1      -7.180   1.067  -2.129  0.00  0.00    +0.026 A 
ATOM     17  C   UNL     1      -7.043   2.179  -2.935  0.00  0.00    +0.005 A 
BRANCH  12  19
ATOM     18  C   UNL     1      -6.744   3.272  -6.027  0.00  0.00    +0.009 C 
ATOM     19  C   UNL     1      -7.731   3.572  -4.897  0.00  0.00    +0.032 C 
ENDBRANCH  12  19
ENDBRANCH   1  15
BRANCH  11  20
ATOM     20  C   UNL     1      -6.144  -1.792  -2.534  0.00  0.00    +0.142 C 
BRANCH  20  21
ATOM     21  N   UNL     1      -6.537  -2.074  -3.917  0.00  0.00    -0.293 N 
ATOM     22  C   UNL     1      -6.338  -1.148  -4.876  0.00  0.00    +0.219 C 
ATOM     23  O   UNL     1      -5.751  -0.120  -4.614  0.00  0.00    -0.275 OA
BRANCH  22  24
ATOM     24  C   UNL     1      -6.846  -1.392  -6.274  0.00  0.00    +0.075 C 
ATOM     25  C   UNL     1      -5.888  -2.339  -7.027  0.00  0.00    +0.013 C 
ATOM     26  C   UNL     1      -5.879  -1.796  -8.477  0.00  0.00    +0.001 C 
ATOM     27  C   UNL     1      -5.924  -0.262  -8.268  0.00  0.00    +0.001 C 
ATOM     28  C   UNL     1      -6.868  -0.071  -7.064  0.00  0.00    +0.013 C 
ENDBRANCH  22  24
BRANCH  21  29
ATOM     29  C   UNL     1      -7.147  -3.362  -4.256  0.00  0.00    +0.090 C 
BRANCH  29  30
ATOM     30  C   UNL     1      -8.669  -3.247  -4.158  0.00  0.00    -0.060 C 
BRANCH  30  31
ATOM     31  N   UNL     1      -9.276  -4.562  -4.404  0.00  0.00    +0.377 N 
ATOM     32  C   UNL     1     -10.728  -4.479  -4.192  0.00  0.00    -0.097 C 
ATOM     33  C   UNL     1      -9.006  -4.976  -5.787  0.00  0.00    -0.097 C 
ATOM     34  H   UNL     1      -8.882  -5.239  -3.767  0.00  0.00    -0.083 HD
ENDBRANCH  30  31
ENDBRANCH  29  30
ENDBRANCH  21  29
ENDBRANCH  20  21
BRANCH  20  35
ATOM     35  C   UNL     1      -5.024  -2.748  -2.117  0.00  0.00    +0.027 C 
ATOM     36  C   UNL     1      -3.765  -2.445  -2.932  0.00  0.00    +0.006 C 
ENDBRANCH  20  35
ENDBRANCH  11  20
TORSDOF 9
