REMARK  Name = ZINC36583687
REMARK  19 active torsions:
REMARK  status: ('A' for Active; 'I' for Inactive)
REMARK    1  A    between atoms: C_1  and  C_2
REMARK    2  A    between atoms: C_2  and  C_3
REMARK    3  A    between atoms: C_2  and  C_4
REMARK    4  A    between atoms: C_2  and  C_5
REMARK    5  A    between atoms: C_5  and  C_6
REMARK    6  A    between atoms: C_6  and  C_7
REMARK    7  A    between atoms: C_6  and  C_8
REMARK    8  A    between atoms: C_6  and  N_9
REMARK    9  A    between atoms: C_10  and  C_12
REMARK   10  A    between atoms: C_12  and  C_14
REMARK   11  A    between atoms: C_12  and  N_21
REMARK   12  A    between atoms: C_17  and  O_20
REMARK   13  A    between atoms: N_21  and  C_36
REMARK   14  A    between atoms: C_22  and  C_24
REMARK   15  A    between atoms: C_26  and  N_33
REMARK   16  A    between atoms: C_28  and  N_30
REMARK   17  A    between atoms: C_36  and  C_37
REMARK   18  A    between atoms: C_36  and  C_38
REMARK   19  A    between atoms: C_36  and  C_39
REMARK                            x       y       z     vdW  Elec       q    Type
REMARK                         _______ _______ _______ _____ _____    ______ ____
ROOT
ATOM      1  C   UNL     1       6.093   1.367  -2.838  0.00  0.00    +0.193 C 
ENDROOT
BRANCH   1   2
ATOM      2  C   UNL     1       5.397   2.572  -3.417  0.00  0.00    -0.018 A 
ATOM      3  C   UNL     1       6.136   3.569  -4.026  0.00  0.00    +0.009 A 
ATOM      4  C   UNL     1       5.501   4.675  -4.558  0.00  0.00    +0.046 A 
ATOM      5  C   UNL     1       4.120   4.784  -4.481  0.00  0.00    +0.117 A 
ATOM      6  C   UNL     1       3.381   3.781  -3.869  0.00  0.00    +0.046 A 
ATOM      7  C   UNL     1       4.021   2.675  -3.344  0.00  0.00    +0.009 A 
BRANCH   5   8
ATOM      8  O   UNL     1       3.493   5.870  -5.002  0.00  0.00    -0.507 OA
ATOM      9  H   UNL     1       3.235   5.769  -5.929  0.00  0.00    +0.292 HD
ENDBRANCH   5   8
ENDBRANCH   1   2
BRANCH   1  11
ATOM     10  N   UNL     1       5.467   1.820  -0.488  0.00  0.00    -0.308 N 
ATOM     11  C   UNL     1       6.445   1.635  -1.397  0.00  0.00    +0.239 C 
ATOM     12  O   UNL     1       7.608   1.684  -1.056  0.00  0.00    -0.273 OA
ATOM     13  H   UNL     1       4.537   1.781  -0.761  0.00  0.00    +0.149 HD
BRANCH  10  14
ATOM     14  C   UNL     1       5.809   2.080   0.913  0.00  0.00    +0.030 C 
ATOM     15  C   UNL     1       6.842   3.207   0.985  0.00  0.00    +0.031 C 
ATOM     16  C   UNL     1       6.393   0.813   1.539  0.00  0.00    +0.031 C 
BRANCH  14  17
ATOM     17  C   UNL     1       4.550   2.494   1.677  0.00  0.00    +0.031 C 
BRANCH  17  19
ATOM     18  C   UNL     1       3.050   2.828  -0.293  0.00  0.00    +0.010 C 
ATOM     19  C   UNL     1       3.773   3.528   0.859  0.00  0.00    -0.036 C 
ATOM     20  C   UNL     1       4.745   4.566   0.295  0.00  0.00    +0.010 C 
ATOM     21  C   UNL     1       2.749   4.223   1.757  0.00  0.00    +0.010 C 
ENDBRANCH  17  19
ENDBRANCH  14  17
ENDBRANCH  10  14
ENDBRANCH   1  11
BRANCH   1  22
ATOM     22  N   UNL     1       7.317   1.098  -3.597  0.00  0.00    -0.277 N 
ATOM     23  C   UNL     1       8.402   1.877  -3.424  0.00  0.00    +0.248 C 
ATOM     24  O   UNL     1       8.432   2.685  -2.517  0.00  0.00    -0.270 OA
BRANCH  23  25
ATOM     25  C   UNL     1       9.557   1.749  -4.339  0.00  0.00    +0.041 A 
ATOM     26  C   UNL     1       9.654   0.653  -5.197  0.00  0.00    +0.046 A 
ATOM     27  C   UNL     1      10.734   0.540  -6.048  0.00  0.00    +0.129 A 
ATOM     28  C   UNL     1      11.720   1.510  -6.051  0.00  0.00    +0.065 A 
ATOM     29  C   UNL     1      11.631   2.599  -5.203  0.00  0.00    +0.129 A 
ATOM     30  C   UNL     1      10.553   2.727  -4.351  0.00  0.00    +0.046 A 
BRANCH  29  31
ATOM     31  N   UNL     1      12.691   3.632  -5.213  0.00  0.00    +0.057 N 
ATOM     32  O   UNL     1      13.633   3.524  -5.963  0.00  0.00    -0.126 OA
ATOM     33  O   UNL     1      12.614   4.585  -4.473  0.00  0.00    -0.126 OA
ENDBRANCH  29  31
BRANCH  27  34
ATOM     34  N   UNL     1      10.838  -0.622  -6.959  0.00  0.00    +0.057 N 
ATOM     35  O   UNL     1      10.026  -1.516  -6.894  0.00  0.00    -0.126 OA
ATOM     36  O   UNL     1      11.734  -0.678  -7.768  0.00  0.00    -0.126 OA
ENDBRANCH  27  34
ENDBRANCH  23  25
BRANCH  22  37
ATOM     37  C   UNL     1       7.360  -0.019  -4.545  0.00  0.00    +0.030 C 
ATOM     38  C   UNL     1       6.007  -0.734  -4.552  0.00  0.00    +0.031 C 
ATOM     39  C   UNL     1       7.662   0.514  -5.947  0.00  0.00    +0.031 C 
ATOM     40  C   UNL     1       8.454  -1.002  -4.125  0.00  0.00    +0.031 C 
ENDBRANCH  22  37
ENDBRANCH   1  22
TORSDOF 11
