REMARK  Name = ZINC38688675
REMARK  10 active torsions:
REMARK  status: ('A' for Active; 'I' for Inactive)
REMARK    1  A    between atoms: C_1  and  C_2
REMARK    2  A    between atoms: C_5  and  C_7
REMARK    3  A    between atoms: C_12  and  O_21
REMARK    4  A    between atoms: C_16  and  N_20
REMARK    5  A    between atoms: C_17  and  C_18
REMARK    6  A    between atoms: O_21  and  C_22
REMARK    7  A    between atoms: C_22  and  C_24
REMARK    8  A    between atoms: C_25  and  C_35
REMARK    9  A    between atoms: C_28  and  C_34
REMARK   10  A    between atoms: C_29  and  C_33
REMARK                            x       y       z     vdW  Elec       q    Type
REMARK                         _______ _______ _______ _____ _____    ______ ____
ROOT
ATOM      1  C   UNL     1       1.727  -3.284  -0.051  0.00  0.00    +0.134 C 
ATOM      2  C   UNL     1       2.582  -3.230   1.188  0.00  0.00    +0.011 A 
ATOM      3  C   UNL     1       2.021  -2.823   2.385  0.00  0.00    +0.012 A 
ATOM      4  C   UNL     1       2.790  -2.767   3.531  0.00  0.00    +0.047 A 
ATOM      5  C   UNL     1       4.131  -3.120   3.484  0.00  0.00    +0.136 A 
ATOM      6  C   UNL     1       4.696  -3.530   2.287  0.00  0.00    +0.093 A 
ATOM      7  C   UNL     1       3.921  -3.585   1.135  0.00  0.00    +0.138 A 
ATOM      8  O   UNL     1       4.489  -3.987  -0.029  0.00  0.00    -0.441 OA
ATOM      9  C   UNL     1       3.901  -3.689  -1.199  0.00  0.00    +0.199 C 
ATOM     10  C   UNL     1       2.595  -3.346  -1.276  0.00  0.00    +0.101 C 
ENDROOT
BRANCH   1  15
ATOM     11  C   UNL     1       0.328   1.556  -0.283  0.00  0.00    +0.086 C 
ATOM     12  C   UNL     1       0.253   0.052  -0.214  0.00  0.00    +0.102 A 
ATOM     13  C   UNL     1      -0.876  -0.679  -0.187  0.00  0.00    +0.044 A 
ATOM     14  C   UNL     1      -0.483  -2.036  -0.122  0.00  0.00    +0.046 A 
ATOM     15  C   UNL     1       0.862  -2.052  -0.113  0.00  0.00    +0.118 A 
ATOM     16  O   UNL     1       1.302  -0.785  -0.175  0.00  0.00    -0.464 OA
ENDBRANCH   1  15
BRANCH   9  17
ATOM     17  N   UNL     1       4.648  -3.732  -2.350  0.00  0.00    -0.328 N 
ATOM     18  H   UNL     1       5.586  -3.975  -2.310  0.00  0.00    +0.145 HD
ATOM     19  H   UNL     1       4.238  -3.520  -3.203  0.00  0.00    +0.145 HD
ENDBRANCH   9  17
BRANCH  10  20
ATOM     20  C   UNL     1       2.029  -3.037  -2.554  0.00  0.00    +0.101 C 
ATOM     21  N   UNL     1       1.579  -2.791  -3.567  0.00  0.00    -0.191 NA
ENDBRANCH  10  20
BRANCH   5  22
ATOM     22  O   UNL     1       4.890  -3.065   4.610  0.00  0.00    -0.420 OA
BRANCH  22  23
ATOM     23  C   UNL     1       5.847  -2.118   4.683  0.00  0.00    +0.380 C 
ATOM     24  O   UNL     1       5.942  -1.281   3.806  0.00  0.00    -0.241 OA
BRANCH  23  25
ATOM     25  C   UNL     1       6.774  -2.096   5.821  0.00  0.00    +0.216 A 
ATOM     26  C   UNL     1       7.770  -1.190   6.002  0.00  0.00    +0.010 A 
ATOM     27  C   UNL     1       8.426  -1.555   7.257  0.00  0.00    +0.024 A 
ATOM     28  C   UNL     1       9.498  -1.030   7.983  0.00  0.00    +0.015 A 
ATOM     29  C   UNL     1       9.876  -1.623   9.155  0.00  0.00    -0.047 A 
ATOM     30  C   UNL     1       9.202  -2.740   9.628  0.00  0.00    -0.044 A 
ATOM     31  C   UNL     1       8.142  -3.273   8.926  0.00  0.00    +0.050 A 
ATOM     32  C   UNL     1       7.739  -2.688   7.731  0.00  0.00    +0.137 A 
ATOM     33  O   UNL     1       6.761  -2.971   6.849  0.00  0.00    -0.448 OA
ATOM     34  C   UNL     1       9.635  -3.379  10.922  0.00  0.00    +0.044 C 
ATOM     35  C   UNL     1      11.033  -1.058   9.940  0.00  0.00    +0.044 C 
ATOM     36  C   UNL     1       8.126  -0.042   5.094  0.00  0.00    +0.048 C 
ENDBRANCH  23  25
ENDBRANCH  22  23
ENDBRANCH   5  22
TORSDOF 6
