REMARK  Name = ZINC14966638
REMARK  6 active torsions:
REMARK  status: ('A' for Active; 'I' for Inactive)
REMARK    1  A    between atoms: C_1  and  C_2
REMARK    2  A    between atoms: C_2  and  C_4
REMARK    3  A    between atoms: C_2  and  C_16
REMARK    4  A    between atoms: N_18  and  C_19
REMARK    5  A    between atoms: C_19  and  C_20
REMARK    6  A    between atoms: C_27  and  C_30
REMARK                            x       y       z     vdW  Elec       q    Type
REMARK                         _______ _______ _______ _____ _____    ______ ____
ROOT
ATOM      1  C   UNL     1      -3.189  10.621   0.348  0.00  0.00    +0.195 C 
ATOM      2  C   UNL     1      -2.937  12.148   0.347  0.00  0.00    +0.085 C 
ATOM      3  C   UNL     1      -4.074  12.652  -0.521  0.00  0.00    -0.000 A 
ATOM      4  C   UNL     1      -4.608  13.910  -0.705  0.00  0.00    +0.027 A 
ATOM      5  C   UNL     1      -5.681  14.093  -1.561  0.00  0.00    +0.042 A 
ATOM      6  C   UNL     1      -6.218  13.012  -2.233  0.00  0.00    +0.032 A 
ATOM      7  C   UNL     1      -5.681  11.741  -2.056  0.00  0.00    +0.025 A 
ATOM      8  C   UNL     1      -4.591  11.554  -1.192  0.00  0.00    +0.132 A 
ATOM      9  O   UNL     1      -3.911  10.418  -0.879  0.00  0.00    -0.486 OA
ATOM     10 CL   UNL     1      -6.351  15.678  -1.789  0.00  0.00    -0.084 Cl
ENDROOT
BRANCH   7  11
ATOM     11  C   UNL     1      -6.261  10.584  -2.780  0.00  0.00    -0.014 A 
ATOM     12  C   UNL     1      -5.425   9.716  -3.493  0.00  0.00    +0.010 A 
ATOM     13  C   UNL     1      -5.942   8.647  -4.165  0.00  0.00    +0.027 A 
ATOM     14  C   UNL     1      -7.313   8.405  -4.148  0.00  0.00    +0.046 A 
ATOM     15  C   UNL     1      -8.163   9.270  -3.434  0.00  0.00    +0.000 A 
ATOM     16  C   UNL     1      -7.630  10.359  -2.745  0.00  0.00    +0.018 A 
ATOM     17  C   UNL     1      -9.520   8.746  -3.615  0.00  0.00    +0.027 A 
ATOM     18  C   UNL     1      -9.418   7.652  -4.386  0.00  0.00    +0.083 A 
ATOM     19  N   UNL     1      -8.107   7.433  -4.714  0.00  0.00    -0.361 N 
ATOM     20  H   UNL     1      -7.786   6.701  -5.264  0.00  0.00    +0.165 HD
ENDBRANCH   7  11
BRANCH   1  21
ATOM     21  C   UNL     1      -1.866   9.853   0.332  0.00  0.00    +0.149 C 
BRANCH  21  24
ATOM     22  C   UNL     1      -1.112   7.541   0.173  0.00  0.00    +0.222 C 
ATOM     23  O   UNL     1       0.031   7.940   0.244  0.00  0.00    -0.275 OA
ATOM     24  N   UNL     1      -2.135   8.419   0.208  0.00  0.00    -0.311 N 
ATOM     25  H   UNL     1      -3.050   8.100   0.151  0.00  0.00    +0.149 HD
BRANCH  22  27
ATOM     26  C   UNL     1      -2.149   5.800  -1.256  0.00  0.00    +0.024 C 
ATOM     27  C   UNL     1      -1.390   6.066   0.045  0.00  0.00    +0.123 C 
BRANCH  27  28
ATOM     28  C   UNL     1      -0.086   5.309   0.030  0.00  0.00    +0.081 A 
ATOM     29  C   UNL     1      -0.090   3.846   0.023  0.00  0.00    +0.011 A 
ATOM     30  C   UNL     1      -1.278   3.112   0.031  0.00  0.00    +0.010 A 
ATOM     31  C   UNL     1      -1.229   1.746   0.017  0.00  0.00    +0.001 A 
ATOM     32  C   UNL     1      -0.013   1.076   0.008  0.00  0.00    +0.001 A 
ATOM     33  C   UNL     1       1.175   1.774   0.000  0.00  0.00    +0.014 A 
ATOM     34  C   UNL     1       1.150   3.168   0.008  0.00  0.00    +0.050 A 
ATOM     35  C   UNL     1       2.381   3.969  -0.000  0.00  0.00    +0.272 A 
ATOM     36  O   UNL     1       3.472   3.429  -0.014  0.00  0.00    -0.266 OA
ATOM     37  N   UNL     1       2.279   5.314   0.007  0.00  0.00    -0.242 N 
ATOM     38  H   UNL     1       3.088   5.849   0.001  0.00  0.00    +0.192 HD
ATOM     39  N   UNL     1       1.041   5.957   0.022  0.00  0.00    -0.175 NA
ENDBRANCH  27  28
ENDBRANCH  22  27
ENDBRANCH  21  24
ENDBRANCH   1  21
TORSDOF 5
