REMARK  Name = ZINC66931869
REMARK  9 active torsions:
REMARK  status: ('A' for Active; 'I' for Inactive)
REMARK    1  A    between atoms: C_1  and  C_2
REMARK    2  A    between atoms: C_3  and  C_13
REMARK    3  A    between atoms: C_5  and  C_7
REMARK    4  A    between atoms: N_15  and  C_16
REMARK    5  A    between atoms: C_21  and  S_22
REMARK    6  A    between atoms: S_22  and  C_23
REMARK    7  A    between atoms: C_23  and  C_25
REMARK    8  A    between atoms: C_23  and  C_26
REMARK    9  A    between atoms: C_26  and  C_27
REMARK                            x       y       z     vdW  Elec       q    Type
REMARK                         _______ _______ _______ _____ _____    ______ ____
ROOT
ATOM      1  C   UNL     1      -0.742  -0.417  -2.606  0.00  0.00    +0.257 C 
ATOM      2  O   UNL     1      -1.412   0.569  -2.849  0.00  0.00    -0.269 OA
ATOM      3  N   UNL     1      -0.173  -1.110  -3.612  0.00  0.00    -0.280 N 
ATOM      4  H   UNL     1       0.409  -1.861  -3.416  0.00  0.00    +0.155 HD
ENDROOT
BRANCH   1   7
ATOM      5  C   UNL     1      -1.905   0.937  -0.042  0.00  0.00    +0.067 C 
ATOM      6  C   UNL     1      -1.041  -0.298  -0.042  0.00  0.00    +0.058 A 
ATOM      7  C   UNL     1      -0.554  -0.852  -1.219  0.00  0.00    +0.097 A 
ATOM      8  S   UNL     1       0.364  -2.241  -0.573  0.00  0.00    -0.059 S 
ATOM      9  C   UNL     1       0.050  -1.988   1.061  0.00  0.00    +0.148 A 
ATOM     10  N   UNL     1      -0.705  -0.902   1.067  0.00  0.00    -0.240 NA
BRANCH   9  11
ATOM     11  C   UNL     1       0.512  -2.788   2.215  0.00  0.00    +0.206 A 
ATOM     12  N   UNL     1       1.285  -3.882   2.149  0.00  0.00    -0.213 NA
ATOM     13  H   UNL     1       0.858  -3.640   5.197  0.00  0.00    +0.190 HD
ATOM     14  C   UNL     1       1.505  -4.341   3.352  0.00  0.00    +0.216 A 
ATOM     15  N   UNL     1       0.872  -3.543   4.232  0.00  0.00    -0.265 N 
ATOM     16  N   UNL     1       0.239  -2.540   3.479  0.00  0.00    -0.150 NA
ENDBRANCH   9  11
ENDBRANCH   1   7
BRANCH   3  17
ATOM     17  C   UNL     1      -0.422  -0.746  -4.942  0.00  0.00    +0.047 A 
ATOM     18  C   UNL     1      -0.632   0.585  -5.271  0.00  0.00    +0.024 A 
ATOM     19  C   UNL     1      -0.877   0.942  -6.583  0.00  0.00    +0.002 A 
ATOM     20  C   UNL     1      -0.914  -0.025  -7.572  0.00  0.00    +0.001 A 
ATOM     21  C   UNL     1      -0.706  -1.353  -7.254  0.00  0.00    +0.016 A 
ATOM     22  C   UNL     1      -0.453  -1.720  -5.940  0.00  0.00    +0.029 A 
BRANCH  22  23
ATOM     23  S   UNL     1      -0.180  -3.413  -5.532  0.00  0.00    -0.119 S 
BRANCH  23  24
ATOM     24  C   UNL     1      -0.164  -4.254  -7.139  0.00  0.00    +0.062 C 
ATOM     25  C   UNL     1       1.081  -3.835  -7.922  0.00  0.00    +0.020 C 
BRANCH  24  26
ATOM     26  C   UNL     1      -0.144  -5.769  -6.921  0.00  0.00    +0.132 C 
BRANCH  26  27
ATOM     27  C   UNL     1      -1.397  -6.189  -6.274  0.00  0.00    +0.064 C 
ATOM     28  N   UNL     1      -2.365  -6.513  -5.775  0.00  0.00    -0.197 NA
ENDBRANCH  26  27
ENDBRANCH  24  26
ENDBRANCH  23  24
ENDBRANCH  22  23
ENDBRANCH   3  17
TORSDOF 7
