REMARK  Name = ZINC04789058
REMARK  8 active torsions:
REMARK  status: ('A' for Active; 'I' for Inactive)
REMARK    1  A    between atoms: C_1  and  C_2
REMARK    2  A    between atoms: C_2  and  C_3
REMARK    3  A    between atoms: C_2  and  C_4
REMARK    4  A    between atoms: C_4  and  N_5
REMARK    5  A    between atoms: C_7  and  C_20
REMARK    6  A    between atoms: N_15  and  C_19
REMARK    7  A    between atoms: N_22  and  C_23
REMARK    8  A    between atoms: C_23  and  C_24
REMARK                            x       y       z     vdW  Elec       q    Type
REMARK                         _______ _______ _______ _____ _____    ______ ____
ROOT
ATOM      1  N   UNL     1      -5.393   3.734   0.079  0.00  0.00    -0.313 N 
ATOM      2  C   UNL     1      -4.686   4.889   0.082  0.00  0.00    +0.103 A 
ATOM      3  C   UNL     1      -3.320   4.873   0.042  0.00  0.00    +0.063 A 
ATOM      4  C   UNL     1      -2.632   3.577   0.004  0.00  0.00    +0.026 A 
ATOM      5  C   UNL     1      -1.227   3.165  -0.051  0.00  0.00    +0.009 A 
ATOM      6  C   UNL     1      -0.016   3.860  -0.077  0.00  0.00    +0.010 A 
ATOM      7  C   UNL     1       1.163   3.172  -0.131  0.00  0.00    +0.001 A 
ATOM      8  C   UNL     1       1.167   1.784  -0.160  0.00  0.00    +0.002 A 
ATOM      9  C   UNL     1      -0.015   1.078  -0.135  0.00  0.00    +0.026 A 
ATOM     10  C   UNL     1      -1.229   1.758  -0.085  0.00  0.00    +0.050 A 
ATOM     11  N   UNL     1      -2.538   1.329  -0.055  0.00  0.00    -0.339 N 
ATOM     12  C   UNL     1      -3.394   2.413  -0.007  0.00  0.00    +0.116 A 
ATOM     13  C   UNL     1      -4.802   2.528   0.037  0.00  0.00    +0.276 A 
ATOM     14  O   UNL     1      -5.489   1.520   0.036  0.00  0.00    -0.265 OA
ATOM     15  C   UNL     1      -2.961  -0.073  -0.072  0.00  0.00    +0.149 C 
ENDROOT
BRANCH   3  16
ATOM     16  C   UNL     1      -2.553   6.130   0.046  0.00  0.00    +0.246 C 
ATOM     17  O   UNL     1      -1.340   6.103   0.134  0.00  0.00    -0.270 OA
ATOM     18  N   UNL     1      -3.196   7.311  -0.047  0.00  0.00    -0.307 N 
ATOM     19  H   UNL     1      -4.165   7.338  -0.043  0.00  0.00    +0.149 HD
BRANCH  18  20
ATOM     20  C   UNL     1      -2.430   8.556  -0.154  0.00  0.00    +0.141 C 
BRANCH  20  21
ATOM     21  C   UNL     1      -3.378   9.723  -0.245  0.00  0.00    -0.012 A 
ATOM     22  C   UNL     1      -3.565  10.548   0.849  0.00  0.00    +0.009 A 
ATOM     23  C   UNL     1      -4.434  11.619   0.767  0.00  0.00    +0.039 A 
ATOM     24  C   UNL     1      -5.118  11.868  -0.410  0.00  0.00    +0.125 A 
ATOM     25  C   UNL     1      -4.932  11.042  -1.506  0.00  0.00    +0.058 A 
ATOM     26  C   UNL     1      -4.058   9.973  -1.424  0.00  0.00    +0.048 A 
ATOM     27 CL   UNL     1      -3.817   8.941  -2.799  0.00  0.00    -0.083 Cl
ATOM     28  F   UNL     1      -5.967  12.915  -0.491  0.00  0.00    -0.205 F 
ENDBRANCH  20  21
ENDBRANCH  18  20
ENDBRANCH   3  16
BRANCH   1  29
ATOM     29  C   UNL     1      -6.856   3.802   0.123  0.00  0.00    +0.128 C 
BRANCH  29  31
ATOM     30  C   UNL     1      -8.840   3.992   1.630  0.00  0.00    +0.009 C 
ATOM     31  C   UNL     1      -7.323   3.796   1.580  0.00  0.00    +0.003 C 
ATOM     32  C   UNL     1      -6.960   2.457   2.226  0.00  0.00    +0.009 C 
ENDBRANCH  29  31
ENDBRANCH   1  29
TORSDOF 5
