REMARK  Name = ZINC35668235
REMARK  7 active torsions:
REMARK  status: ('A' for Active; 'I' for Inactive)
REMARK    1  A    between atoms: C_1  and  C_2
REMARK    2  A    between atoms: C_5  and  C_8
REMARK    3  A    between atoms: C_12  and  C_23
REMARK    4  A    between atoms: C_14  and  C_17
REMARK    5  A    between atoms: N_19  and  C_20
REMARK    6  A    between atoms: C_20  and  C_21
REMARK    7  A    between atoms: C_20  and  C_22
REMARK                            x       y       z     vdW  Elec       q    Type
REMARK                         _______ _______ _______ _____ _____    ______ ____
ROOT
ATOM      1  C   UNL     1       0.059  -4.251  -0.021  0.00  0.00    +0.247 C 
ATOM      2  O   UNL     1      -0.043  -4.855  -1.072  0.00  0.00    -0.270 OA
ATOM      3  N   UNL     1       0.176  -4.930   1.137  0.00  0.00    -0.296 N 
ATOM      4  C   UNL     1       0.318  -6.392   1.266  0.00  0.00    +0.117 C 
ATOM      5  C   UNL     1      -0.201  -6.717   2.689  0.00  0.00    +0.050 C 
ATOM      6  C   UNL     1       0.310  -5.493   3.494  0.00  0.00    +0.101 C 
ATOM      7  C   UNL     1       0.188  -4.335   2.482  0.00  0.00    +0.121 C 
ENDROOT
BRANCH   1  12
ATOM      8  C   UNL     1       0.045   1.503   0.004  0.00  0.00    +0.044 C 
ATOM      9  C   UNL     1       0.049  -0.004  -0.003  0.00  0.00    -0.050 A 
ATOM     10  C   UNL     1       0.083  -0.687  -1.205  0.00  0.00    +0.004 A 
ATOM     11  C   UNL     1       0.086  -2.067  -1.218  0.00  0.00    +0.013 A 
ATOM     12  C   UNL     1       0.056  -2.773  -0.015  0.00  0.00    +0.037 A 
ATOM     13  C   UNL     1       0.022  -2.077   1.195  0.00  0.00    +0.013 A 
ATOM     14  C   UNL     1       0.024  -0.698   1.194  0.00  0.00    +0.004 A 
ENDBRANCH   1  12
BRANCH   5  15
ATOM     15  C   UNL     1       0.406  -7.996   3.206  0.00  0.00    -0.042 A 
ATOM     16  C   UNL     1       1.778  -8.114   3.320  0.00  0.00    +0.004 A 
ATOM     17  C   UNL     1       2.334  -9.287   3.794  0.00  0.00    +0.000 A 
ATOM     18  C   UNL     1       1.518 -10.342   4.154  0.00  0.00    +0.000 A 
ATOM     19  C   UNL     1       0.145 -10.225   4.042  0.00  0.00    +0.000 A 
ATOM     20  C   UNL     1      -0.411  -9.050   3.571  0.00  0.00    +0.004 A 
ENDBRANCH   5  15
BRANCH   6  21
ATOM     21  C   UNL     1      -0.558  -5.249   4.701  0.00  0.00    +0.218 C 
ATOM     22  O   UNL     1      -1.507  -5.972   4.922  0.00  0.00    -0.275 OA
ATOM     23  N   UNL     1      -0.282  -4.227   5.535  0.00  0.00    -0.313 N 
ATOM     24  H   UNL     1       0.477  -3.649   5.358  0.00  0.00    +0.149 HD
BRANCH  23  25
ATOM     25  C   UNL     1      -1.126  -3.990   6.709  0.00  0.00    +0.067 C 
ATOM     26  C   UNL     1      -0.318  -3.252   7.778  0.00  0.00    +0.027 C 
ATOM     27  C   UNL     1      -2.333  -3.141   6.305  0.00  0.00    +0.027 C 
ENDBRANCH  23  25
ENDBRANCH   6  21
TORSDOF 4
