REMARK  Name = ZINC16025770
REMARK  11 active torsions:
REMARK  status: ('A' for Active; 'I' for Inactive)
REMARK    1  A    between atoms: C_1  and  C_2
REMARK    2  A    between atoms: C_2  and  C_4
REMARK    3  A    between atoms: C_2  and  N_10
REMARK    4  A    between atoms: C_11  and  C_13
REMARK    5  A    between atoms: C_13  and  C_15
REMARK    6  A    between atoms: C_13  and  N_18
REMARK    7  A    between atoms: C_15  and  C_16
REMARK    8  A    between atoms: C_15  and  C_17
REMARK    9  A    between atoms: C_19  and  C_21
REMARK   10  A    between atoms: C_23  and  C_36
REMARK   11  A    between atoms: C_23  and  C_37
REMARK                            x       y       z     vdW  Elec       q    Type
REMARK                         _______ _______ _______ _____ _____    ______ ____
ROOT
ATOM      1  N   UNL     1      -0.180  -1.419   4.623  0.00  0.00    -0.302 N 
ATOM      2  C   UNL     1       0.205  -1.544   5.908  0.00  0.00    +0.236 C 
ATOM      3  O   UNL     1       1.383  -1.502   6.195  0.00  0.00    -0.274 OA
ATOM      4  H   UNL     1      -1.123  -1.453   4.394  0.00  0.00    +0.150 HD
ENDROOT
BRANCH   2   5
ATOM      5  C   UNL     1      -0.827  -1.735   6.990  0.00  0.00    +0.179 C 
ATOM      6  C   UNL     1      -1.308  -3.205   6.961  0.00  0.00    +0.040 C 
ATOM      7  S   UNL     1      -1.101  -3.697   8.727  0.00  0.00    -0.125 S 
ATOM      8  C   UNL     1      -0.941  -1.994   9.414  0.00  0.00    +0.167 C 
ATOM      9  N   UNL     1      -0.241  -1.340   8.271  0.00  0.00    -0.269 N 
ATOM     10  C   UNL     1       0.741  -0.594   8.822  0.00  0.00    +0.249 C 
ATOM     11  O   UNL     1       1.276   0.360   8.291  0.00  0.00    -0.270 OA
ATOM     12  C   UNL     1       1.066  -1.113  10.165  0.00  0.00    +0.043 A 
ATOM     13  C   UNL     1       0.029  -1.985  10.561  0.00  0.00    -0.005 A 
ATOM     14  C   UNL     1       0.068  -2.623  11.779  0.00  0.00    +0.007 A 
ATOM     15  C   UNL     1       1.118  -2.390  12.650  0.00  0.00    +0.000 A 
ATOM     16  C   UNL     1       2.130  -1.513  12.302  0.00  0.00    +0.001 A 
ATOM     17  C   UNL     1       2.123  -0.870  11.041  0.00  0.00    +0.013 A 
ATOM     18  C   UNL     1      -0.422  -4.054   6.047  0.00  0.00    +0.025 C 
ATOM     19  C   UNL     1      -2.775  -3.293   6.535  0.00  0.00    +0.025 C 
ENDBRANCH   2   5
BRANCH   1  20
ATOM     20  C   UNL     1       0.823  -1.233   3.572  0.00  0.00    +0.161 C 
BRANCH  20  22
ATOM     21  N   UNL     1       0.957   0.204   1.563  0.00  0.00    -0.307 N 
ATOM     22  C   UNL     1       0.194  -0.531   2.396  0.00  0.00    +0.234 C 
ATOM     23  O   UNL     1      -0.999  -0.627   2.199  0.00  0.00    -0.274 OA
ATOM     24  H   UNL     1       1.898   0.338   1.759  0.00  0.00    +0.149 HD
BRANCH  21  26
ATOM     25  C   UNL     1      -0.276   2.141   0.721  0.00  0.00    +0.033 C 
ATOM     26  C   UNL     1       0.366   0.799   0.362  0.00  0.00    +0.100 C 
BRANCH  26  27
ATOM     27  C   UNL     1       1.442   1.017  -0.672  0.00  0.00    -0.027 A 
ATOM     28  C   UNL     1       2.691   1.466  -0.285  0.00  0.00    +0.005 A 
ATOM     29  C   UNL     1       3.677   1.666  -1.233  0.00  0.00    +0.000 A 
ATOM     30  C   UNL     1       3.414   1.417  -2.567  0.00  0.00    +0.000 A 
ATOM     31  C   UNL     1       2.166   0.967  -2.953  0.00  0.00    +0.000 A 
ATOM     32  C   UNL     1       1.181   0.762  -2.005  0.00  0.00    +0.005 A 
ENDBRANCH  26  27
ENDBRANCH  21  26
ENDBRANCH  20  22
BRANCH  20  33
ATOM     33  C   UNL     1       1.354  -2.598   3.127  0.00  0.00    +0.012 C 
ATOM     34  C   UNL     1       0.229  -3.389   2.457  0.00  0.00    +0.009 C 
ATOM     35  C   UNL     1       2.499  -2.399   2.132  0.00  0.00    +0.009 C 
ENDBRANCH  20  33
ENDBRANCH   1  20
TORSDOF 6
