REMARK  Name = ZINC35809394
REMARK  14 active torsions:
REMARK  status: ('A' for Active; 'I' for Inactive)
REMARK    1  A    between atoms: C_1  and  C_2
REMARK    2  A    between atoms: C_2  and  C_3
REMARK    3  A    between atoms: C_3  and  C_4
REMARK    4  A    between atoms: C_4  and  C_5
REMARK    5  A    between atoms: C_5  and  N_6
REMARK    6  A    between atoms: N_6  and  C_7
REMARK    7  A    between atoms: C_7  and  C_8
REMARK    8  A    between atoms: N_10  and  C_11
REMARK    9  A    between atoms: N_10  and  C_19
REMARK   10  A    between atoms: C_11  and  C_12
REMARK   11  A    between atoms: C_12  and  C_13
REMARK   12  A    between atoms: C_19  and  C_20
REMARK   13  A    between atoms: C_23  and  C_25
REMARK   14  A    between atoms: C_26  and  C_28
REMARK                            x       y       z     vdW  Elec       q    Type
REMARK                         _______ _______ _______ _____ _____    ______ ____
ROOT
ATOM      1  C   UNL     1      -0.351  -4.782  -3.694  0.00  0.00    +0.233 C 
ATOM      2  O   UNL     1       0.468  -4.514  -4.548  0.00  0.00    -0.274 OA
ATOM      3  N   UNL     1      -1.527  -5.343  -4.040  0.00  0.00    -0.293 N 
ENDROOT
BRANCH   1   4
ATOM      4  C   UNL     1      -0.054  -4.487  -2.247  0.00  0.00    +0.203 C 
BRANCH   4   5
ATOM      5  N   UNL     1       1.276  -3.884  -2.134  0.00  0.00    -0.289 N 
ATOM      6  C   UNL     1       2.338  -4.649  -1.815  0.00  0.00    +0.247 C 
ATOM      7  O   UNL     1       3.428  -4.137  -1.646  0.00  0.00    -0.270 OA
BRANCH   6   8
ATOM      8  C   UNL     1       2.179  -6.111  -1.669  0.00  0.00    +0.037 A 
ATOM      9  C   UNL     1       1.506  -6.843  -2.649  0.00  0.00    +0.016 A 
ATOM     10  C   UNL     1       1.360  -8.207  -2.508  0.00  0.00    +0.039 A 
ATOM     11  C   UNL     1       1.879  -8.851  -1.395  0.00  0.00    +0.123 A 
ATOM     12  C   UNL     1       2.547  -8.128  -0.418  0.00  0.00    +0.039 A 
ATOM     13  C   UNL     1       2.704  -6.765  -0.552  0.00  0.00    +0.016 A 
ATOM     14  F   UNL     1       1.732 -10.187  -1.261  0.00  0.00    -0.205 F 
ENDBRANCH   6   8
BRANCH   5  15
ATOM     15  C   UNL     1       1.452  -2.449  -2.369  0.00  0.00    +0.108 C 
BRANCH  15  16
ATOM     16  C   UNL     1       1.158  -1.681  -1.079  0.00  0.00    +0.019 C 
BRANCH  16  17
ATOM     17  C   UNL     1       1.342  -0.182  -1.324  0.00  0.00    +0.001 C 
BRANCH  17  19
ATOM     18  C   UNL     1       1.232   2.085  -0.279  0.00  0.00    +0.004 C 
ATOM     19  C   UNL     1       1.048   0.586  -0.033  0.00  0.00    -0.003 C 
ENDBRANCH  17  19
ENDBRANCH  16  17
ENDBRANCH  15  16
ENDBRANCH   5  15
ENDBRANCH   4   5
ENDBRANCH   1   4
BRANCH   3  20
ATOM     20  C   UNL     1      -1.816  -5.630  -5.448  0.00  0.00    +0.113 C 
BRANCH  20  21
ATOM     21  C   UNL     1      -1.334  -7.041  -5.790  0.00  0.00    +0.054 C 
BRANCH  21  22
ATOM     22  C   UNL     1      -1.631  -7.335  -7.238  0.00  0.00    -0.046 A 
ATOM     23  C   UNL     1      -2.839  -7.906  -7.593  0.00  0.00    +0.004 A 
ATOM     24  C   UNL     1      -3.112  -8.176  -8.921  0.00  0.00    +0.000 A 
ATOM     25  C   UNL     1      -2.176  -7.876  -9.894  0.00  0.00    +0.000 A 
ATOM     26  C   UNL     1      -0.969  -7.305  -9.538  0.00  0.00    +0.000 A 
ATOM     27  C   UNL     1      -0.698  -7.031  -8.211  0.00  0.00    +0.004 A 
ENDBRANCH  21  22
ENDBRANCH  20  21
ENDBRANCH   3  20
BRANCH   3  28
ATOM     28  C   UNL     1      -2.516  -5.666  -3.009  0.00  0.00    +0.182 C 
BRANCH  28  29
ATOM     29  C   UNL     1      -3.429  -4.485  -2.801  0.00  0.00    +0.122 A 
ATOM     30  C   UNL     1      -4.582  -4.257  -3.455  0.00  0.00    +0.046 A 
ATOM     31  C   UNL     1      -5.107  -3.046  -2.949  0.00  0.00    +0.045 A 
ATOM     32  C   UNL     1      -4.244  -2.606  -2.016  0.00  0.00    +0.102 A 
ATOM     33  O   UNL     1      -3.232  -3.485  -1.926  0.00  0.00    -0.463 OA
ATOM     34  C   UNL     1      -4.389  -1.345  -1.205  0.00  0.00    +0.086 C 
ENDBRANCH  28  29
ENDBRANCH   3  28
TORSDOF 12
