REMARK  Name = ZINC25460927
REMARK  8 active torsions:
REMARK  status: ('A' for Active; 'I' for Inactive)
REMARK    1  A    between atoms: C_1  and  C_2
REMARK    2  A    between atoms: C_2  and  C_3
REMARK    3  A    between atoms: C_2  and  C_4
REMARK    4  A    between atoms: C_2  and  N_22
REMARK    5  A    between atoms: C_4  and  N_5
REMARK    6  A    between atoms: C_6  and  C_8
REMARK    7  A    between atoms: C_11  and  N_17
REMARK    8  A    between atoms: C_12  and  N_14
REMARK                            x       y       z     vdW  Elec       q    Type
REMARK                         _______ _______ _______ _____ _____    ______ ____
ROOT
ATOM      1  N   UNL     1      -1.928  -1.502   0.115  0.00  0.00    -0.313 N 
ATOM      2  C   UNL     1      -3.235  -1.826   0.182  0.00  0.00    +0.244 C 
ATOM      3  O   UNL     1      -4.077  -0.950   0.213  0.00  0.00    -0.270 OA
ATOM      4  H   UNL     1      -1.256  -2.201   0.090  0.00  0.00    +0.149 HD
ENDROOT
BRANCH   2   5
ATOM      5  C   UNL     1      -3.642  -3.243   0.219  0.00  0.00    +0.039 A 
ATOM      6  C   UNL     1      -2.674  -4.252   0.189  0.00  0.00    +0.015 A 
ATOM      7  C   UNL     1      -3.057  -5.572   0.224  0.00  0.00    +0.026 A 
ATOM      8  C   UNL     1      -4.407  -5.906   0.289  0.00  0.00    +0.060 A 
ATOM      9  C   UNL     1      -5.374  -4.904   0.318  0.00  0.00    +0.148 A 
ATOM     10  C   UNL     1      -4.997  -3.581   0.290  0.00  0.00    +0.047 A 
BRANCH   8  11
ATOM     11  N   UNL     1      -4.792  -7.242   0.323  0.00  0.00    -0.328 N 
ATOM     12  C   UNL     1      -5.075  -8.082  -0.849  0.00  0.00    +0.105 C 
ATOM     13  C   UNL     1      -5.486  -9.475  -0.326  0.00  0.00    +0.020 C 
ATOM     14  C   UNL     1      -5.957  -9.177   1.122  0.00  0.00    +0.020 C 
ATOM     15  C   UNL     1      -4.976  -8.051   1.542  0.00  0.00    +0.105 C 
ENDBRANCH   8  11
BRANCH   9  16
ATOM     16  N   UNL     1      -6.808  -5.263   0.386  0.00  0.00    +0.058 N 
ATOM     17  O   UNL     1      -7.648  -4.394   0.411  0.00  0.00    -0.126 OA
ATOM     18  O   UNL     1      -7.140  -6.425   0.415  0.00  0.00    -0.126 OA
ENDBRANCH   9  16
ENDBRANCH   2   5
BRANCH   1  19
ATOM     19  C   UNL     1      -1.523  -0.094   0.078  0.00  0.00    +0.092 C 
BRANCH  19  21
ATOM     20  C   UNL     1       0.425   1.466  -0.036  0.00  0.00    -0.008 C 
ATOM     21  C   UNL     1       0.002  -0.004   0.002  0.00  0.00    -0.055 C 
ATOM     22  C   UNL     1       0.615  -0.679   1.231  0.00  0.00    -0.008 C 
BRANCH  21  23
ATOM     23  N   UNL     1       0.473  -0.681  -1.214  0.00  0.00    +0.387 N 
ATOM     24  C   UNL     1       1.927  -0.503  -1.345  0.00  0.00    -0.073 C 
ATOM     25  C   UNL     1       2.439  -1.456  -2.426  0.00  0.00    +0.017 C 
ATOM     26  C   UNL     1       1.615  -1.297  -3.678  0.00  0.00    -0.048 A 
ATOM     27  C   UNL     1       2.113  -1.800  -4.870  0.00  0.00    +0.004 A 
ATOM     28  C   UNL     1       1.385  -1.676  -6.036  0.00  0.00    +0.000 A 
ATOM     29  C   UNL     1       0.153  -1.047  -6.014  0.00  0.00    +0.000 A 
ATOM     30  C   UNL     1      -0.342  -0.545  -4.828  0.00  0.00    +0.002 A 
ATOM     31  C   UNL     1       0.389  -0.667  -3.656  0.00  0.00    -0.061 A 
ATOM     32  C   UNL     1      -0.186  -0.097  -2.386  0.00  0.00    -0.042 C 
ATOM     33  H   UNL     1       0.255  -1.664  -1.159  0.00  0.00    -0.080 HD
ENDBRANCH  21  23
ENDBRANCH  19  21
ENDBRANCH   1  19
TORSDOF 6
