REMARK  Name = ZINC05576810
REMARK  10 active torsions:
REMARK  status: ('A' for Active; 'I' for Inactive)
REMARK    1  A    between atoms: C_1  and  C_2
REMARK    2  A    between atoms: C_4  and  C_29
REMARK    3  A    between atoms: C_18  and  C_20
REMARK    4  A    between atoms: C_18  and  C_21
REMARK    5  A    between atoms: N_22  and  C_23
REMARK    6  A    between atoms: C_23  and  C_24
REMARK    7  A    between atoms: C_24  and  C_25
REMARK    8  A    between atoms: C_25  and  N_26
REMARK    9  A    between atoms: N_26  and  C_27
REMARK   10  A    between atoms: N_26  and  C_28
REMARK                            x       y       z     vdW  Elec       q    Type
REMARK                         _______ _______ _______ _____ _____    ______ ____
ROOT
ATOM      1  C   UNL     1       1.098   1.418   0.025  0.00  0.00    +0.067 C 
ATOM      2  C   UNL     1       0.845  -0.068   0.013  0.00  0.00    +0.061 A 
ATOM      3  C   UNL     1       0.734  -0.871  -1.129  0.00  0.00    +0.048 A 
ATOM      4  C   UNL     1       0.508  -2.142  -0.725  0.00  0.00    +0.045 A 
ATOM      5  N   UNL     1       0.477  -2.142   0.634  0.00  0.00    -0.202 N 
ATOM      6  N   UNL     1       0.697  -0.828   1.067  0.00  0.00    -0.169 NA
ATOM      7  C   UNL     1       0.269  -3.253   1.452  0.00  0.00    +0.254 A 
ATOM      8  N   UNL     1       0.260  -3.098   2.769  0.00  0.00    -0.195 NA
ATOM      9  C   UNL     1       0.069  -4.113   3.595  0.00  0.00    +0.133 A 
ATOM     10  C   UNL     1      -0.134  -5.416   3.060  0.00  0.00    +0.051 A 
ATOM     11  C   UNL     1      -0.361  -6.673   3.769  0.00  0.00    -0.020 A 
ATOM     12  C   UNL     1      -0.526  -7.783   3.017  0.00  0.00    +0.021 A 
ATOM     13  S   UNL     1      -0.393  -7.228   1.341  0.00  0.00    -0.071 S 
ATOM     14  C   UNL     1      -0.113  -5.504   1.653  0.00  0.00    +0.116 A 
ATOM     15  N   UNL     1       0.080  -4.440   0.898  0.00  0.00    -0.203 NA
ATOM     16  C   UNL     1      -0.767  -9.170   3.526  0.00  0.00    +0.203 C 
ATOM     17  O   UNL     1      -0.478  -9.182   4.933  0.00  0.00    -0.368 OA
ATOM     18  C   UNL     1      -1.093  -8.108   5.649  0.00  0.00    +0.068 C 
ATOM     19  C   UNL     1      -0.418  -6.780   5.292  0.00  0.00    +0.071 C 
ATOM     20  C   UNL     1      -0.956  -8.357   7.153  0.00  0.00    +0.041 C 
ATOM     21  C   UNL     1      -2.577  -8.037   5.283  0.00  0.00    +0.041 C 
ATOM     22  N   UNL     1       0.067  -3.910   4.963  0.00  0.00    -0.328 N 
ATOM     23  C   UNL     1       0.323  -3.340  -1.619  0.00  0.00    +0.066 C 
ATOM     24  H   UNL     1       0.007  -4.668   5.566  0.00  0.00    +0.147 HD
ENDROOT
BRANCH  22  25
ATOM     25  C   UNL     1       0.155  -2.551   5.502  0.00  0.00    +0.101 C 
BRANCH  25  26
ATOM     26  C   UNL     1       0.133  -2.606   7.031  0.00  0.00    +0.000 C 
BRANCH  26  27
ATOM     27  C   UNL     1       0.224  -1.186   7.594  0.00  0.00    -0.078 C 
BRANCH  27  28
ATOM     28  N   UNL     1       0.203  -1.239   9.062  0.00  0.00    +0.376 N 
ATOM     29  C   UNL     1       1.408  -1.927   9.544  0.00  0.00    -0.097 C 
ATOM     30  C   UNL     1       0.171   0.127   9.601  0.00  0.00    -0.097 C 
ATOM     31  H   UNL     1      -0.616  -1.742   9.369  0.00  0.00    -0.083 HD
ENDBRANCH  27  28
ENDBRANCH  26  27
ENDBRANCH  25  26
ENDBRANCH  22  25
TORSDOF 4
