REMARK  Name = ZINC14748495
REMARK  13 active torsions:
REMARK  status: ('A' for Active; 'I' for Inactive)
REMARK    1  A    between atoms: C_1  and  C_2
REMARK    2  A    between atoms: C_2  and  N_3
REMARK    3  A    between atoms: N_3  and  C_4
REMARK    4  A    between atoms: C_4  and  C_5
REMARK    5  A    between atoms: C_6  and  C_8
REMARK    6  A    between atoms: C_8  and  O_9
REMARK    7  A    between atoms: O_9  and  C_10
REMARK    8  A    between atoms: N_13  and  C_28
REMARK    9  A    between atoms: N_17  and  C_19
REMARK   10  A    between atoms: C_19  and  C_20
REMARK   11  A    between atoms: C_23  and  O_26
REMARK   12  A    between atoms: O_26  and  C_27
REMARK   13  A    between atoms: C_28  and  C_29
REMARK                            x       y       z     vdW  Elec       q    Type
REMARK                         _______ _______ _______ _____ _____    ______ ____
ROOT
ATOM      1  C   UNL     1       4.552  -2.359   3.162  0.00  0.00    +0.150 C 
ATOM      2  C   UNL     1       5.832  -2.966   2.619  0.00  0.00    +0.118 C 
ATOM      3  N   UNL     1       6.754  -3.422   3.652  0.00  0.00    -0.284 NA
ATOM      4  C   UNL     1       7.322  -2.312   4.427  0.00  0.00    +0.181 C 
ATOM      5  C   UNL     1       6.369  -1.970   5.553  0.00  0.00    +0.230 C 
ATOM      6  O   UNL     1       6.664  -2.242   6.697  0.00  0.00    -0.274 OA
ATOM      7  N   UNL     1       5.205  -1.369   5.290  0.00  0.00    -0.294 N 
ATOM      8  C   UNL     1       4.844  -1.049   3.898  0.00  0.00    +0.141 C 
ENDROOT
BRANCH   1   9
ATOM      9  O   UNL     1       3.658  -2.101   2.078  0.00  0.00    -0.365 OA
BRANCH   9  10
ATOM     10  C   UNL     1       2.276  -2.198   2.428  0.00  0.00    +0.256 C 
BRANCH  10  12
ATOM     11  N   UNL     1       0.085  -1.942   1.310  0.00  0.00    -0.300 N 
ATOM     12  C   UNL     1       1.429  -1.908   1.216  0.00  0.00    +0.241 C 
ATOM     13  O   UNL     1       1.956  -1.643   0.157  0.00  0.00    -0.273 OA
BRANCH  11  15
ATOM     14  C   UNL     1      -1.038  -0.161   0.066  0.00  0.00    +0.024 C 
ATOM     15  C   UNL     1      -0.739  -1.660   0.132  0.00  0.00    +0.104 C 
ENDBRANCH  11  15
BRANCH  11  16
ATOM     16  C   UNL     1      -0.552  -2.262   2.590  0.00  0.00    +0.104 C 
ATOM     17  C   UNL     1      -0.762  -3.774   2.691  0.00  0.00    +0.024 C 
ENDBRANCH  11  16
ENDBRANCH  10  12
ENDBRANCH   9  10
ENDBRANCH   1   9
BRANCH   7  18
ATOM     18  C   UNL     1       4.290  -1.031   6.383  0.00  0.00    +0.143 C 
BRANCH  18  19
ATOM     19  C   UNL     1       4.601   0.355   6.887  0.00  0.00    -0.030 A 
ATOM     20  C   UNL     1       5.521   0.528   7.905  0.00  0.00    +0.009 A 
ATOM     21  C   UNL     1       5.808   1.797   8.369  0.00  0.00    +0.046 A 
ATOM     22  C   UNL     1       5.173   2.898   7.814  0.00  0.00    +0.120 A 
ATOM     23  C   UNL     1       4.250   2.722   6.793  0.00  0.00    +0.046 A 
ATOM     24  C   UNL     1       3.971   1.451   6.328  0.00  0.00    +0.009 A 
BRANCH  22  25
ATOM     25  O   UNL     1       5.453   4.148   8.269  0.00  0.00    -0.495 OA
ATOM     26  C   UNL     1       4.761   5.234   7.650  0.00  0.00    +0.277 C 
ENDBRANCH  22  25
ENDBRANCH  18  19
ENDBRANCH   7  18
BRANCH   3  27
ATOM     27  C   UNL     1       7.816  -4.260   3.077  0.00  0.00    +0.157 C 
BRANCH  27  28
ATOM     28  C   UNL     1       8.514  -5.013   4.180  0.00  0.00    +0.099 A 
ATOM     29  N   UNL     1       8.136  -6.180   4.675  0.00  0.00    -0.349 N 
ATOM     30  H   UNL     1       7.364  -6.694   4.391  0.00  0.00    +0.166 HD
ATOM     31  C   UNL     1       9.008  -6.532   5.642  0.00  0.00    +0.101 A 
ATOM     32  C   UNL     1       9.930  -5.552   5.728  0.00  0.00    +0.101 A 
ATOM     33  N   UNL     1       9.610  -4.618   4.808  0.00  0.00    -0.349 N 
ATOM     34  H   UNL     1      10.098  -3.797   4.638  0.00  0.00    +0.166 HD
ENDBRANCH  27  28
ENDBRANCH   3  27
TORSDOF 10
