REMARK  Name = ZINC39597912
REMARK  9 active torsions:
REMARK  status: ('A' for Active; 'I' for Inactive)
REMARK    1  A    between atoms: C_1  and  C_2
REMARK    2  A    between atoms: C_2  and  C_3
REMARK    3  A    between atoms: C_3  and  C_5
REMARK    4  A    between atoms: C_3  and  C_6
REMARK    5  A    between atoms: C_6  and  C_7
REMARK    6  A    between atoms: C_11  and  C_20
REMARK    7  A    between atoms: N_22  and  C_23
REMARK    8  A    between atoms: C_23  and  C_24
REMARK    9  A    between atoms: C_24  and  C_25
REMARK                            x       y       z     vdW  Elec       q    Type
REMARK                         _______ _______ _______ _____ _____    ______ ____
ROOT
ATOM      1  C   UNL     1      -2.531  -2.590  -0.335  0.00  0.00    +0.216 C 
ATOM      2  O   UNL     1      -3.393  -1.737  -0.335  0.00  0.00    -0.276 OA
ATOM      3  N   UNL     1      -2.871  -3.891  -0.426  0.00  0.00    -0.300 N 
ATOM      4  C   UNL     1      -1.969  -5.067  -0.434  0.00  0.00    +0.121 C 
ATOM      5  C   UNL     1      -2.705  -6.129   0.413  0.00  0.00    +0.100 C 
ATOM      6  C   UNL     1      -4.189  -5.732   0.338  0.00  0.00    -0.004 C 
ATOM      7  C   UNL     1      -4.232  -4.469  -0.534  0.00  0.00    +0.115 C 
ATOM      8  C   UNL     1      -4.724  -5.422   1.732  0.00  0.00    -0.010 C 
ATOM      9  C   UNL     1      -6.215  -5.085   1.638  0.00  0.00    -0.082 C 
ATOM     10  N   UNL     1      -6.939  -6.222   1.056  0.00  0.00    +0.379 N 
ATOM     11  C   UNL     1      -6.482  -6.455  -0.319  0.00  0.00    -0.082 C 
ATOM     12  C   UNL     1      -5.003  -6.849  -0.308  0.00  0.00    -0.010 C 
ATOM     13  H   UNL     1      -6.768  -7.047   1.611  0.00  0.00    -0.086 HD
ATOM     14  H   UNL     1      -7.928  -6.022   1.051  0.00  0.00    -0.086 HD
ENDROOT
BRANCH   5  15
ATOM     15  C   UNL     1      -2.220  -6.090   1.839  0.00  0.00    +0.218 C 
ATOM     16  O   UNL     1      -1.828  -5.047   2.318  0.00  0.00    -0.275 OA
ATOM     17  N   UNL     1      -2.223  -7.214   2.583  0.00  0.00    -0.315 N 
ATOM     18  H   UNL     1      -2.537  -8.048   2.200  0.00  0.00    +0.149 HD
BRANCH  17  19
ATOM     19  C   UNL     1      -1.752  -7.176   3.970  0.00  0.00    +0.109 C 
BRANCH  19  20
ATOM     20  C   UNL     1      -1.859  -8.573   4.583  0.00  0.00    +0.056 C 
BRANCH  20  21
ATOM     21  C   UNL     1      -1.375  -8.534   6.010  0.00  0.00    -0.021 A 
ATOM     22  C   UNL     1      -2.164  -8.168   7.189  0.00  0.00    +0.003 A 
ATOM     23  C   UNL     1      -3.489  -7.774   7.385  0.00  0.00    +0.010 A 
ATOM     24  C   UNL     1      -3.933  -7.495   8.646  0.00  0.00    +0.001 A 
ATOM     25  C   UNL     1      -3.079  -7.600   9.735  0.00  0.00    +0.002 A 
ATOM     26  C   UNL     1      -1.768  -7.988   9.564  0.00  0.00    +0.026 A 
ATOM     27  C   UNL     1      -1.294  -8.277   8.289  0.00  0.00    +0.047 A 
ATOM     28  N   UNL     1      -0.071  -8.680   7.800  0.00  0.00    -0.360 N 
ATOM     29  C   UNL     1      -0.140  -8.833   6.442  0.00  0.00    +0.087 A 
ATOM     30  H   UNL     1       0.721  -8.835   8.339  0.00  0.00    +0.165 HD
ENDBRANCH  20  21
ENDBRANCH  19  20
ENDBRANCH  17  19
ENDBRANCH   5  15
BRANCH   1  31
ATOM     31  C   UNL     1      -1.080  -2.196  -0.231  0.00  0.00    +0.099 C 
BRANCH  31  32
ATOM     32  C   UNL     1      -0.971  -0.673  -0.140  0.00  0.00    -0.006 C 
ATOM     33  C   UNL     1      -1.614  -0.192   1.162  0.00  0.00    +0.008 C 
BRANCH  32  35
ATOM     34  C   UNL     1       0.611   1.261  -0.196  0.00  0.00    +0.004 C 
ATOM     35  C   UNL     1       0.504  -0.265  -0.161  0.00  0.00    +0.000 C 
ENDBRANCH  32  35
ENDBRANCH  31  32
ENDBRANCH   1  31
TORSDOF 7
