REMARK  Name = ZINC05000827
REMARK  8 active torsions:
REMARK  status: ('A' for Active; 'I' for Inactive)
REMARK    1  A    between atoms: C_1  and  C_2
REMARK    2  A    between atoms: C_2  and  C_3
REMARK    3  A    between atoms: C_2  and  C_4
REMARK    4  A    between atoms: N_6  and  C_7
REMARK    5  A    between atoms: C_11  and  N_13
REMARK    6  A    between atoms: C_14  and  C_16
REMARK    7  A    between atoms: C_16  and  C_17
REMARK    8  A    between atoms: C_17  and  N_18
REMARK                            x       y       z     vdW  Elec       q    Type
REMARK                         _______ _______ _______ _____ _____    ______ ____
ROOT
ATOM      1  N   UNL     1      -0.449   1.427   3.721  0.00  0.00    -0.285 N 
ATOM      2  C   UNL     1      -0.433   0.712   2.579  0.00  0.00    +0.219 C 
ATOM      3  O   UNL     1       0.161  -0.344   2.533  0.00  0.00    -0.275 OA
ATOM      4  H   UNL     1      -0.866   2.302   3.740  0.00  0.00    +0.155 HD
ENDROOT
BRANCH   1   9
ATOM      5  C   UNL     1       0.157   0.652   7.269  0.00  0.00    +0.035 A 
ATOM      6  C   UNL     1       1.302  -0.130   7.172  0.00  0.00    +0.023 A 
ATOM      7  C   UNL     1       1.860  -0.390   5.935  0.00  0.00    +0.004 A 
ATOM      8  C   UNL     1       1.281   0.125   4.791  0.00  0.00    +0.023 A 
ATOM      9  C   UNL     1       0.137   0.906   4.881  0.00  0.00    +0.035 A 
ATOM     10  C   UNL     1      -0.423   1.175   6.122  0.00  0.00    +0.046 A 
BRANCH   5  13
ATOM     11  C   UNL     1      -1.745   1.009   8.652  0.00  0.00    +0.220 C 
ATOM     12  O   UNL     1      -2.455   0.949   7.671  0.00  0.00    -0.275 OA
ATOM     13  N   UNL     1      -0.407   0.915   8.522  0.00  0.00    -0.285 N 
ATOM     14  H   UNL     1       0.165   1.031   9.296  0.00  0.00    +0.155 HD
BRANCH  11  16
ATOM     15  C   UNL     1      -1.834   2.482  10.645  0.00  0.00    +0.017 C 
ATOM     16  C   UNL     1      -2.358   1.189  10.017  0.00  0.00    +0.069 C 
ATOM     17  C   UNL     1      -3.881   1.266   9.885  0.00  0.00    +0.017 C 
ENDBRANCH  11  16
ENDBRANCH   5  13
ENDBRANCH   1   9
BRANCH   2  18
ATOM     18  C   UNL     1      -1.153   1.226   1.359  0.00  0.00    +0.118 C 
BRANCH  18  19
ATOM     19  C   UNL     1      -0.979   0.232   0.208  0.00  0.00    +0.135 C 
BRANCH  19  20
ATOM     20  N   UNL     1      -1.679   0.731  -0.978  0.00  0.00    -0.301 N 
ATOM     21  C   UNL     1      -1.008   1.541  -1.879  0.00  0.00    +0.059 A 
ATOM     22  C   UNL     1       0.326   1.978  -1.815  0.00  0.00    +0.027 A 
ATOM     23  C   UNL     1       0.852   2.785  -2.794  0.00  0.00    +0.002 A 
ATOM     24  C   UNL     1       0.089   3.194  -3.875  0.00  0.00    +0.001 A 
ATOM     25  C   UNL     1      -1.228   2.779  -3.965  0.00  0.00    +0.017 A 
ATOM     26  C   UNL     1      -1.754   1.973  -2.986  0.00  0.00    +0.041 A 
ATOM     27  S   UNL     1      -3.345   1.231  -2.715  0.00  0.00    -0.027 S 
ATOM     28  C   UNL     1      -2.967   0.393  -1.184  0.00  0.00    +0.292 A 
ATOM     29  O   UNL     1      -3.690  -0.306  -0.498  0.00  0.00    -0.259 OA
ENDBRANCH  19  20
ENDBRANCH  18  19
ENDBRANCH   2  18
TORSDOF 6
