REMARK  Name = ZINC39664704
REMARK  9 active torsions:
REMARK  status: ('A' for Active; 'I' for Inactive)
REMARK    1  A    between atoms: C_1  and  C_2
REMARK    2  A    between atoms: C_2  and  C_8
REMARK    3  A    between atoms: C_12  and  C_21
REMARK    4  A    between atoms: N_23  and  C_24
REMARK    5  A    between atoms: C_24  and  C_26
REMARK    6  A    between atoms: C_24  and  C_30
REMARK    7  A    between atoms: C_26  and  N_27
REMARK    8  A    between atoms: N_27  and  C_28
REMARK    9  A    between atoms: N_27  and  C_29
REMARK                            x       y       z     vdW  Elec       q    Type
REMARK                         _______ _______ _______ _____ _____    ______ ____
ROOT
ATOM      1  C   UNL     1      -3.216   0.388  -0.632  0.00  0.00    +0.222 C 
ATOM      2  O   UNL     1      -3.797  -0.187   0.264  0.00  0.00    -0.275 OA
ATOM      3  N   UNL     1      -3.767   0.451  -1.861  0.00  0.00    -0.300 N 
ATOM      4  C   UNL     1      -3.169   1.009  -3.097  0.00  0.00    +0.121 C 
ATOM      5  C   UNL     1      -3.607   0.037  -4.216  0.00  0.00    +0.100 C 
ATOM      6  C   UNL     1      -4.880  -0.636  -3.675  0.00  0.00    -0.004 C 
ATOM      7  C   UNL     1      -5.105  -0.029  -2.283  0.00  0.00    +0.115 C 
ATOM      8  C   UNL     1      -4.672  -2.143  -3.560  0.00  0.00    -0.010 C 
ATOM      9  C   UNL     1      -5.970  -2.796  -3.076  0.00  0.00    -0.082 C 
ATOM     10  N   UNL     1      -7.052  -2.502  -4.023  0.00  0.00    +0.379 N 
ATOM     11  C   UNL     1      -7.307  -1.057  -4.058  0.00  0.00    -0.082 C 
ATOM     12  C   UNL     1      -6.066  -0.330  -4.584  0.00  0.00    -0.010 C 
ATOM     13  H   UNL     1      -6.786  -2.817  -4.944  0.00  0.00    -0.086 HD
ATOM     14  H   UNL     1      -7.890  -2.983  -3.734  0.00  0.00    -0.086 HD
ENDROOT
BRANCH   1  16
ATOM     15  C   UNL     1      -0.786   0.254  -1.108  0.00  0.00    +0.021 C 
ATOM     16  C   UNL     1      -1.879   1.032  -0.372  0.00  0.00    +0.044 C 
ATOM     17  C   UNL     1      -1.590   1.019   1.130  0.00  0.00    +0.016 C 
ATOM     18  C   UNL     1      -2.683   1.796   1.866  0.00  0.00    +0.001 C 
ATOM     19  C   UNL     1      -2.707   3.242   1.364  0.00  0.00    +0.000 C 
ATOM     20  C   UNL     1      -2.995   3.255  -0.138  0.00  0.00    +0.001 C 
ATOM     21  C   UNL     1      -1.903   2.477  -0.874  0.00  0.00    +0.016 C 
ENDBRANCH   1  16
BRANCH   5  22
ATOM     22  C   UNL     1      -2.533  -0.991  -4.467  0.00  0.00    +0.219 C 
ATOM     23  O   UNL     1      -1.747  -1.274  -3.588  0.00  0.00    -0.275 OA
ATOM     24  N   UNL     1      -2.447  -1.595  -5.669  0.00  0.00    -0.310 N 
ATOM     25  H   UNL     1      -3.053  -1.343  -6.383  0.00  0.00    +0.149 HD
BRANCH  24  26
ATOM     26  C   UNL     1      -1.438  -2.632  -5.896  0.00  0.00    +0.087 C 
BRANCH  26  27
ATOM     27  C   UNL     1      -0.970  -2.572  -7.328  0.00  0.00    -0.029 A 
ATOM     28  C   UNL     1      -1.879  -2.333  -8.342  0.00  0.00    +0.005 A 
ATOM     29  C   UNL     1      -1.450  -2.278  -9.655  0.00  0.00    +0.000 A 
ATOM     30  C   UNL     1      -0.113  -2.463  -9.954  0.00  0.00    +0.000 A 
ATOM     31  C   UNL     1       0.796  -2.702  -8.940  0.00  0.00    +0.000 A 
ATOM     32  C   UNL     1       0.367  -2.752  -7.626  0.00  0.00    +0.005 A 
ENDBRANCH  26  27
BRANCH  26  33
ATOM     33  C   UNL     1      -2.048  -4.007  -5.616  0.00  0.00    -0.052 C 
BRANCH  33  34
ATOM     34  N   UNL     1      -2.389  -4.110  -4.191  0.00  0.00    +0.377 N 
ATOM     35  C   UNL     1      -3.104  -5.370  -3.948  0.00  0.00    -0.097 C 
ATOM     36  C   UNL     1      -1.158  -4.082  -3.389  0.00  0.00    -0.097 C 
ATOM     37  H   UNL     1      -2.978  -3.333  -3.929  0.00  0.00    -0.083 HD
ENDBRANCH  33  34
ENDBRANCH  26  33
ENDBRANCH  24  26
ENDBRANCH   5  22
TORSDOF 6
