REMARK  Name = ZINC33168179
REMARK  8 active torsions:
REMARK  status: ('A' for Active; 'I' for Inactive)
REMARK    1  A    between atoms: C_1  and  N_2
REMARK    2  A    between atoms: C_10  and  O_32
REMARK    3  A    between atoms: C_12  and  C_15
REMARK    4  A    between atoms: C_18  and  O_21
REMARK    5  A    between atoms: O_21  and  C_22
REMARK    6  A    between atoms: C_22  and  C_24
REMARK    7  A    between atoms: C_27  and  O_30
REMARK    8  A    between atoms: O_30  and  C_31
REMARK                            x       y       z     vdW  Elec       q    Type
REMARK                         _______ _______ _______ _____ _____    ______ ____
ROOT
ATOM      1  C   UNL     1      12.701  -6.594  -5.876  0.00  0.00    -0.096 C 
ATOM      2  N   UNL     1      11.555  -6.357  -6.763  0.00  0.00    +0.381 N 
ATOM      3  C   UNL     1      11.342  -4.919  -6.977  0.00  0.00    -0.074 C 
ATOM      4  C   UNL     1      10.412  -4.696  -8.172  0.00  0.00    +0.018 C 
ATOM      5  C   UNL     1       9.161  -5.544  -7.966  0.00  0.00    -0.027 A 
ATOM      6  C   UNL     1       9.177  -6.567  -7.079  0.00  0.00    -0.021 A 
ATOM      7  S   UNL     1       7.551  -7.266  -7.163  0.00  0.00    -0.080 S 
ATOM      8  C   UNL     1       6.876  -6.230  -8.345  0.00  0.00    +0.080 A 
ATOM      9  C   UNL     1       7.908  -5.337  -8.665  0.00  0.00    +0.067 A 
ATOM     10  C   UNL     1       7.614  -4.298  -9.686  0.00  0.00    +0.220 C 
ATOM     11  N   UNL     1       6.373  -4.146 -10.060  0.00  0.00    -0.223 NA
ATOM     12  C   UNL     1       5.239  -4.857  -9.483  0.00  0.00    +0.224 C 
ATOM     13  N   UNL     1       5.640  -6.168  -8.939  0.00  0.00    -0.313 N 
ATOM     14  C   UNL     1      10.334  -6.991  -6.230  0.00  0.00    -0.036 C 
ATOM     15  H   UNL     1       4.961  -7.029  -9.021  0.00  0.00    +0.149 HD
ATOM     16  H   UNL     1      11.786  -6.815  -7.736  0.00  0.00    -0.082 HD
ENDROOT
BRANCH  12  17
ATOM     17  C   UNL     1       4.649  -4.024  -8.375  0.00  0.00    -0.005 A 
ATOM     18  C   UNL     1       4.745  -2.646  -8.421  0.00  0.00    +0.011 A 
ATOM     19  C   UNL     1       4.205  -1.879  -7.407  0.00  0.00    +0.047 A 
ATOM     20  C   UNL     1       3.566  -2.495  -6.340  0.00  0.00    +0.132 A 
ATOM     21  C   UNL     1       3.475  -3.878  -6.293  0.00  0.00    +0.047 A 
ATOM     22  C   UNL     1       4.012  -4.639  -7.313  0.00  0.00    +0.011 A 
BRANCH  20  23
ATOM     23  O   UNL     1       3.034  -1.743  -5.340  0.00  0.00    -0.422 OA
BRANCH  23  24
ATOM     24  C   UNL     1       1.861  -1.129  -5.593  0.00  0.00    +0.344 C 
ATOM     25  O   UNL     1       1.372  -1.188  -6.704  0.00  0.00    -0.245 OA
BRANCH  24  26
ATOM     26  C   UNL     1       1.171  -0.387  -4.522  0.00  0.00    +0.060 A 
ATOM     27  C   UNL     1      -0.046   0.250  -4.783  0.00  0.00    +0.018 A 
ATOM     28  C   UNL     1      -0.686   0.943  -3.780  0.00  0.00    +0.046 A 
ATOM     29  C   UNL     1      -0.125   1.009  -2.510  0.00  0.00    +0.120 A 
ATOM     30  C   UNL     1       1.087   0.381  -2.248  0.00  0.00    +0.046 A 
ATOM     31  C   UNL     1       1.732  -0.318  -3.244  0.00  0.00    +0.018 A 
BRANCH  29  32
ATOM     32  O   UNL     1      -0.759   1.694  -1.525  0.00  0.00    -0.495 OA
ATOM     33  C   UNL     1      -0.127   1.722  -0.244  0.00  0.00    +0.277 C 
ENDBRANCH  29  32
ENDBRANCH  24  26
ENDBRANCH  23  24
ENDBRANCH  20  23
ENDBRANCH  12  17
BRANCH  10  34
ATOM     34  O   UNL     1       8.600  -3.534 -10.210  0.00  0.00    -0.492 OA
ATOM     35  H   UNL     1       8.362  -2.770 -10.964  0.00  0.00    +0.294 HD
ENDBRANCH  10  34
TORSDOF 6
