REMARK  Name = ZINC60060693
REMARK  13 active torsions:
REMARK  status: ('A' for Active; 'I' for Inactive)
REMARK    1  A    between atoms: C_1  and  C_2
REMARK    2  A    between atoms: C_3  and  C_15
REMARK    3  A    between atoms: C_4  and  C_14
REMARK    4  A    between atoms: N_5  and  C_7
REMARK    5  A    between atoms: C_20  and  C_23
REMARK    6  A    between atoms: N_25  and  C_26
REMARK    7  A    between atoms: C_26  and  C_27
REMARK    8  A    between atoms: C_27  and  C_28
REMARK    9  A    between atoms: C_27  and  C_29
REMARK   10  A    between atoms: C_27  and  C_30
REMARK   11  A    between atoms: C_30  and  N_31
REMARK   12  A    between atoms: N_31  and  C_32
REMARK   13  A    between atoms: N_31  and  C_33
REMARK                            x       y       z     vdW  Elec       q    Type
REMARK                         _______ _______ _______ _____ _____    ______ ____
ROOT
ATOM      1  C   UNL     1       2.711   2.071  -3.486  0.00  0.00    +0.250 C 
ATOM      2  O   UNL     1       3.541   2.749  -4.062  0.00  0.00    -0.270 OA
ATOM      3  N   UNL     1       1.516   1.835  -4.063  0.00  0.00    -0.297 N 
ATOM      4  C   UNL     1       0.502   1.023  -3.377  0.00  0.00    +0.109 C 
ATOM      5  C   UNL     1      -0.805   1.819  -3.313  0.00  0.00    +0.032 C 
ATOM      6  C   UNL     1      -1.201   2.258  -4.724  0.00  0.00    +0.078 C 
ATOM      7  C   UNL     1      -0.112   3.165  -5.302  0.00  0.00    +0.032 C 
ATOM      8  C   UNL     1       1.201   2.389  -5.387  0.00  0.00    +0.109 C 
ENDROOT
BRANCH   1  11
ATOM      9  C   UNL     1       2.135   3.477  -0.700  0.00  0.00    +0.068 C 
ATOM     10  C   UNL     1       2.762   2.122  -0.910  0.00  0.00    +0.073 A 
ATOM     11  C   UNL     1       3.013   1.508  -2.158  0.00  0.00    +0.080 A 
ATOM     12  C   UNL     1       3.593   0.282  -1.900  0.00  0.00    +0.054 A 
ATOM     13  N   UNL     1       3.690   0.157  -0.564  0.00  0.00    -0.236 N 
ATOM     14  N   UNL     1       3.172   1.314   0.028  0.00  0.00    -0.171 NA
ATOM     15  C   UNL     1       4.036  -0.729  -2.926  0.00  0.00    +0.066 C 
BRANCH  13  16
ATOM     16  C   UNL     1       4.224  -0.945   0.119  0.00  0.00    +0.066 A 
ATOM     17  C   UNL     1       5.381  -1.557  -0.346  0.00  0.00    +0.030 A 
ATOM     18  C   UNL     1       5.906  -2.642   0.329  0.00  0.00    +0.040 A 
ATOM     19  C   UNL     1       5.279  -3.120   1.467  0.00  0.00    +0.124 A 
ATOM     20  C   UNL     1       4.125  -2.511   1.932  0.00  0.00    +0.040 A 
ATOM     21  C   UNL     1       3.601  -1.422   1.264  0.00  0.00    +0.030 A 
ATOM     22  F   UNL     1       5.794  -4.182   2.125  0.00  0.00    -0.205 F 
ENDBRANCH  13  16
ENDBRANCH   1  11
BRANCH   6  23
ATOM     23  C   UNL     1      -2.505   3.012  -4.669  0.00  0.00    +0.216 C 
ATOM     24  O   UNL     1      -3.062   3.182  -3.605  0.00  0.00    -0.276 OA
ATOM     25  N   UNL     1      -3.051   3.498  -5.801  0.00  0.00    -0.315 N 
ATOM     26  H   UNL     1      -2.605   3.363  -6.651  0.00  0.00    +0.149 HD
BRANCH  25  27
ATOM     27  C   UNL     1      -4.318   4.232  -5.747  0.00  0.00    +0.108 C 
BRANCH  27  28
ATOM     28  C   UNL     1      -4.713   4.671  -7.158  0.00  0.00    -0.034 C 
ATOM     29  C   UNL     1      -3.624   5.578  -7.734  0.00  0.00    +0.010 C 
ATOM     30  C   UNL     1      -4.875   3.438  -8.049  0.00  0.00    +0.010 C 
BRANCH  28  31
ATOM     31  C   UNL     1      -6.037   5.437  -7.101  0.00  0.00    -0.072 C 
BRANCH  31  32
ATOM     32  N   UNL     1      -6.481   5.749  -8.466  0.00  0.00    +0.376 N 
ATOM     33  C   UNL     1      -7.239   4.613  -9.006  0.00  0.00    -0.097 C 
ATOM     34  C   UNL     1      -7.338   6.942  -8.442  0.00  0.00    -0.097 C 
ATOM     35  H   UNL     1      -5.676   5.924  -9.050  0.00  0.00    -0.083 HD
ENDBRANCH  31  32
ENDBRANCH  28  31
ENDBRANCH  27  28
ENDBRANCH  25  27
ENDBRANCH   6  23
TORSDOF 7
