REMARK  Name = ZINC67396238
REMARK  7 active torsions:
REMARK  status: ('A' for Active; 'I' for Inactive)
REMARK    1  A    between atoms: C_1  and  C_2
REMARK    2  A    between atoms: C_13  and  C_15
REMARK    3  A    between atoms: N_17  and  C_18
REMARK    4  A    between atoms: C_18  and  C_20
REMARK    5  A    between atoms: C_18  and  C_21
REMARK    6  A    between atoms: C_21  and  C_22
REMARK    7  A    between atoms: C_25  and  O_28
REMARK                            x       y       z     vdW  Elec       q    Type
REMARK                         _______ _______ _______ _____ _____    ______ ____
ROOT
ATOM      1  C   UNL     1       2.512  -0.208   2.877  0.00  0.00    +0.300 C 
ATOM      2  O   UNL     1       2.550  -1.402   3.092  0.00  0.00    -0.265 OA
ATOM      3  N   UNL     1       3.268   0.633   3.610  0.00  0.00    -0.305 N 
ATOM      4  H   UNL     1       3.238   1.587   3.439  0.00  0.00    +0.149 HD
ENDROOT
BRANCH   1  16
ATOM      5  C   UNL     1      -0.286   0.981  -0.004  0.00  0.00    +0.028 C 
ATOM      6  C   UNL     1       1.110   0.699  -0.562  0.00  0.00    +0.079 C 
ATOM      7  C   UNL     1       1.026  -0.379  -1.652  0.00  0.00    +0.027 C 
ATOM      8  C   UNL     1       2.420  -0.593  -2.242  0.00  0.00    +0.039 C 
ATOM      9  C   UNL     1       3.425  -0.834  -1.147  0.00  0.00    -0.026 A 
ATOM     10  C   UNL     1       4.619  -1.463  -1.459  0.00  0.00    +0.005 A 
ATOM     11  C   UNL     1       5.562  -1.696  -0.476  0.00  0.00    +0.000 A 
ATOM     12  C   UNL     1       5.320  -1.300   0.827  0.00  0.00    +0.002 A 
ATOM     13  C   UNL     1       4.133  -0.673   1.147  0.00  0.00    +0.024 A 
ATOM     14  C   UNL     1       3.181  -0.440   0.160  0.00  0.00    +0.040 A 
ATOM     15  N   UNL     1       1.980   0.191   0.507  0.00  0.00    -0.261 N 
ATOM     16  C   UNL     1       1.627   0.330   1.800  0.00  0.00    +0.306 C 
ATOM     17  O   UNL     1       0.591   0.891   2.090  0.00  0.00    -0.265 OA
ENDBRANCH   1  16
BRANCH   3  18
ATOM     18  C   UNL     1       4.136   0.105   4.667  0.00  0.00    +0.075 C 
ATOM     19  C   UNL     1       5.471  -0.332   4.059  0.00  0.00    +0.028 C 
BRANCH  18  20
ATOM     20  C   UNL     1       4.384   1.193   5.714  0.00  0.00    +0.057 C 
BRANCH  20  21
ATOM     21  C   UNL     1       3.086   1.536   6.398  0.00  0.00    -0.045 A 
ATOM     22  C   UNL     1       2.276   2.532   5.883  0.00  0.00    +0.007 A 
ATOM     23  C   UNL     1       1.086   2.849   6.509  0.00  0.00    +0.045 A 
ATOM     24  C   UNL     1       0.703   2.167   7.655  0.00  0.00    +0.117 A 
ATOM     25  C   UNL     1       1.517   1.168   8.169  0.00  0.00    +0.045 A 
ATOM     26  C   UNL     1       2.704   0.851   7.537  0.00  0.00    +0.007 A 
BRANCH  24  27
ATOM     27  O   UNL     1      -0.467   2.477   8.273  0.00  0.00    -0.507 OA
ATOM     28  H   UNL     1      -1.226   1.969   7.955  0.00  0.00    +0.292 HD
ENDBRANCH  24  27
ENDBRANCH  20  21
ENDBRANCH  18  20
ENDBRANCH   3  18
TORSDOF 5
