REMARK  Name = ZINC04358837
REMARK  6 active torsions:
REMARK  status: ('A' for Active; 'I' for Inactive)
REMARK    1  A    between atoms: C_1  and  C_2
REMARK    2  A    between atoms: C_4  and  C_23
REMARK    3  A    between atoms: C_6  and  N_8
REMARK    4  A    between atoms: C_14  and  S_15
REMARK    5  A    between atoms: S_15  and  C_16
REMARK    6  A    between atoms: C_16  and  C_17
REMARK                            x       y       z     vdW  Elec       q    Type
REMARK                         _______ _______ _______ _____ _____    ______ ____
ROOT
ATOM      1  N   UNL     1      -4.116   2.447   2.352  0.00  0.00    -0.255 N 
ATOM      2  C   UNL     1      -4.775   2.786   3.483  0.00  0.00    +0.273 A 
ATOM      3  O   UNL     1      -4.177   2.904   4.541  0.00  0.00    -0.266 OA
ATOM      4  C   UNL     1      -6.158   3.001   3.414  0.00  0.00    +0.094 A 
ATOM      5  C   UNL     1      -6.840   2.884   2.220  0.00  0.00    +0.064 A 
ATOM      6  N   UNL     1      -6.116   2.527   1.137  0.00  0.00    -0.227 NA
ATOM      7  C   UNL     1      -4.823   2.324   1.191  0.00  0.00    +0.177 A 
ATOM      8  C   UNL     1      -8.320   3.173   2.259  0.00  0.00    +0.068 C 
ATOM      9  C   UNL     1      -8.889   3.054   3.692  0.00  0.00    +0.081 C 
ATOM     10  S   UNL     1      -7.362   3.421   4.653  0.00  0.00    -0.118 S 
ENDROOT
BRANCH   1  16
ATOM     11  C   UNL     1      -0.317  -0.624   2.913  0.00  0.00    +0.044 C 
ATOM     12  C   UNL     1      -0.864   0.753   2.639  0.00  0.00    -0.048 A 
ATOM     13  C   UNL     1       0.002   1.806   2.406  0.00  0.00    +0.006 A 
ATOM     14  C   UNL     1      -0.496   3.071   2.153  0.00  0.00    -0.048 A 
ATOM     15  C   UNL     1      -1.860   3.287   2.135  0.00  0.00    +0.029 A 
ATOM     16  C   UNL     1      -2.732   2.232   2.370  0.00  0.00    +0.052 A 
ATOM     17  C   UNL     1      -2.229   0.961   2.616  0.00  0.00    +0.029 A 
ATOM     18  C   UNL     1       0.450   4.216   1.899  0.00  0.00    +0.044 C 
ENDBRANCH   1  16
BRANCH   7  19
ATOM     19  S   UNL     1      -3.970   1.872  -0.282  0.00  0.00    -0.078 S 
BRANCH  19  20
ATOM     20  C   UNL     1      -5.350   1.860  -1.454  0.00  0.00    +0.172 C 
BRANCH  20  21
ATOM     21  C   UNL     1      -4.843   1.488  -2.823  0.00  0.00    +0.221 C 
ATOM     22  O   UNL     1      -3.665   1.254  -2.991  0.00  0.00    -0.275 OA
ATOM     23  N   UNL     1      -5.699   1.416  -3.862  0.00  0.00    -0.329 N 
ATOM     24  H   UNL     1      -6.641   1.604  -3.728  0.00  0.00    +0.145 HD
ATOM     25  H   UNL     1      -5.373   1.177  -4.743  0.00  0.00    +0.145 HD
ENDBRANCH  20  21
ENDBRANCH  19  20
ENDBRANCH   7  19
TORSDOF 4
