REMARK  Name = ZINC08448496
REMARK  9 active torsions:
REMARK  status: ('A' for Active; 'I' for Inactive)
REMARK    1  A    between atoms: C_1  and  N_56
REMARK    2  A    between atoms: C_4  and  C_5
REMARK    3  A    between atoms: C_8  and  S_11
REMARK    4  A    between atoms: S_11  and  C_12
REMARK    5  A    between atoms: C_16  and  C_24
REMARK    6  A    between atoms: C_18  and  C_22
REMARK    7  A    between atoms: C_19  and  N_21
REMARK    8  A    between atoms: C_27  and  S_30
REMARK    9  A    between atoms: S_30  and  C_31
REMARK                            x       y       z     vdW  Elec       q    Type
REMARK                         _______ _______ _______ _____ _____    ______ ____
ROOT
ATOM      1  C   UNL     1       2.507   1.579  -5.043  0.00  0.00    -0.095 C 
ATOM      2  C   UNL     1       4.489   2.129  -3.757  0.00  0.00    -0.039 C 
ATOM      3  C   UNL     1       4.903   2.773  -2.450  0.00  0.00    -0.021 C 
ATOM      4  C   UNL     1       5.881   3.696  -2.407  0.00  0.00    +0.013 C 
ATOM      5  C   UNL     1       4.192   2.352  -1.226  0.00  0.00    +0.130 C 
ATOM      6  C   UNL     1       3.093   1.602  -1.325  0.00  0.00    -0.031 C 
ATOM      7  C   UNL     1       2.565   1.155  -2.664  0.00  0.00    -0.043 C 
ATOM      8  C   UNL     1       2.349   1.172  -0.084  0.00  0.00    +0.092 C 
ATOM      9  C   UNL     1       3.228   1.305   1.127  0.00  0.00    +0.098 C 
ATOM     10  C   UNL     1       4.342   2.079   1.092  0.00  0.00    +0.199 C 
ATOM     11  O   UNL     1       4.684   2.745  -0.025  0.00  0.00    -0.441 OA
ATOM     12  N   UNL     1       3.010   2.060  -3.736  0.00  0.00    +0.383 N 
ATOM     13  H   UNL     1       2.635   2.999  -3.558  0.00  0.00    -0.081 HD
ENDROOT
BRANCH   4  14
ATOM     14  C   UNL     1       6.684   3.975  -3.608  0.00  0.00    -0.025 A 
ATOM     15  C   UNL     1       6.962   2.950  -4.519  0.00  0.00    +0.009 A 
ATOM     16  C   UNL     1       7.708   3.216  -5.645  0.00  0.00    +0.015 A 
ATOM     17  C   UNL     1       8.196   4.500  -5.872  0.00  0.00    +0.008 A 
ATOM     18  C   UNL     1       7.927   5.520  -4.965  0.00  0.00    +0.015 A 
ATOM     19  C   UNL     1       7.176   5.264  -3.840  0.00  0.00    +0.009 A 
BRANCH  17  20
ATOM     20  S   UNL     1       9.157   4.833  -7.310  0.00  0.00    -0.129 S 
ATOM     21  C   UNL     1       9.238   3.235  -8.165  0.00  0.00    +0.090 C 
ENDBRANCH  17  20
ENDBRANCH   4  14
BRANCH   8  22
ATOM     22  C   UNL     1       1.127   2.037   0.090  0.00  0.00    -0.035 A 
ATOM     23  C   UNL     1      -0.130   1.460   0.103  0.00  0.00    +0.005 A 
ATOM     24  C   UNL     1      -1.252   2.250   0.256  0.00  0.00    +0.015 A 
ATOM     25  C   UNL     1      -1.117   3.624   0.409  0.00  0.00    +0.008 A 
ATOM     26  C   UNL     1       0.148   4.200   0.396  0.00  0.00    +0.015 A 
ATOM     27  C   UNL     1       1.265   3.405   0.237  0.00  0.00    +0.005 A 
BRANCH  25  28
ATOM     28  S   UNL     1      -2.546   4.636   0.611  0.00  0.00    -0.129 S 
ATOM     29  C   UNL     1      -3.926   3.460   0.563  0.00  0.00    +0.090 C 
ENDBRANCH  25  28
ENDBRANCH   8  22
BRANCH  10  30
ATOM     30  N   UNL     1       5.129   2.185   2.211  0.00  0.00    -0.328 N 
ATOM     31  H   UNL     1       5.927   2.737   2.193  0.00  0.00    +0.145 HD
ATOM     32  H   UNL     1       4.888   1.707   3.020  0.00  0.00    +0.145 HD
ENDBRANCH  10  30
BRANCH   9  33
ATOM     33  C   UNL     1       2.888   0.608   2.331  0.00  0.00    +0.101 C 
ATOM     34  N   UNL     1       2.618   0.056   3.286  0.00  0.00    -0.191 NA
ENDBRANCH   9  33
TORSDOF 6
