REMARK  Name = ZINC39534240
REMARK  10 active torsions:
REMARK  status: ('A' for Active; 'I' for Inactive)
REMARK    1  A    between atoms: C_4  and  O_7
REMARK    2  A    between atoms: O_7  and  S_8
REMARK    3  A    between atoms: S_8  and  C_11
REMARK    4  A    between atoms: C_14  and  C_17
REMARK    5  A    between atoms: C_17  and  C_19
REMARK    6  A    between atoms: C_17  and  N_22
REMARK    7  A    between atoms: C_19  and  N_20
REMARK    8  A    between atoms: N_20  and  O_21
REMARK    9  A    between atoms: C_26  and  C_29
REMARK   10  A    between atoms: C_34  and  O_35
REMARK                            x       y       z     vdW  Elec       q    Type
REMARK                         _______ _______ _______ _____ _____    ______ ____
ROOT
ATOM      1  C   UNL     1       0.912  -5.513   3.603  0.00  0.00    +0.103 C 
ENDROOT
BRANCH   1   2
ATOM      2  N   UNL     1       0.819  -6.660   2.691  0.00  0.00    -0.297 NA
ATOM      3  C   UNL     1       0.426  -6.230   1.341  0.00  0.00    +0.066 C 
ATOM      4  C   UNL     1       0.398  -7.444   0.410  0.00  0.00    -0.066 C 
ATOM      5  N   UNL     1      -0.556  -8.435   0.925  0.00  0.00    +0.385 N 
ATOM      6  C   UNL     1      -0.137  -8.873   2.263  0.00  0.00    -0.023 C 
ATOM      7  C   UNL     1      -0.114  -7.671   3.209  0.00  0.00    +0.074 C 
ATOM      8  H   UNL     1      -1.474  -8.020   0.980  0.00  0.00    -0.085 HD
ATOM      9  H   UNL     1      -0.583  -9.230   0.304  0.00  0.00    -0.085 HD
BRANCH   6  10
ATOM     10  C   UNL     1      -1.107  -9.902   2.782  0.00  0.00    -0.019 A 
ATOM     11  C   UNL     1      -2.373  -9.997   2.235  0.00  0.00    +0.005 A 
ATOM     12  C   UNL     1      -3.264 -10.941   2.711  0.00  0.00    +0.000 A 
ATOM     13  C   UNL     1      -2.891 -11.793   3.734  0.00  0.00    +0.004 A 
ATOM     14  C   UNL     1      -1.627 -11.702   4.284  0.00  0.00    +0.045 A 
ATOM     15  C   UNL     1      -0.729 -10.759   3.805  0.00  0.00    +0.118 A 
BRANCH  15  16
ATOM     16  O   UNL     1       0.517 -10.672   4.340  0.00  0.00    -0.507 OA
ATOM     17  H   UNL     1       0.581 -10.066   5.091  0.00  0.00    +0.292 HD
ENDBRANCH  15  16
ENDBRANCH   6  10
ENDBRANCH   1   2
BRANCH   1  21
ATOM     18  C   UNL     1       3.824  -2.755   2.131  0.00  0.00    +0.128 A 
ATOM     19  C   UNL     1       2.646  -2.288   2.683  0.00  0.00    +0.031 A 
ATOM     20  C   UNL     1       1.704  -3.180   3.159  0.00  0.00    +0.007 A 
ATOM     21  C   UNL     1       1.939  -4.540   3.083  0.00  0.00    -0.029 A 
ATOM     22  C   UNL     1       3.117  -5.008   2.531  0.00  0.00    +0.007 A 
ATOM     23  C   UNL     1       4.057  -4.115   2.051  0.00  0.00    +0.031 A 
BRANCH  18  24
ATOM     24  S   UNL     1       5.025  -1.618   1.525  0.00  0.00    +0.151 S 
ATOM     25  O   UNL     1       6.274  -2.295   1.549  0.00  0.00    -0.131 OA
ATOM     26  O   UNL     1       4.809  -0.393   2.212  0.00  0.00    -0.131 OA
BRANCH  24  27
ATOM     27  O   UNL     1       4.700  -1.358   0.061  0.00  0.00    -0.342 OA
BRANCH  27  31
ATOM     28  C   UNL     1       1.439   1.100  -0.524  0.00  0.00    +0.000 A 
ATOM     29  C   UNL     1       2.704   1.647  -0.415  0.00  0.00    +0.004 A 
ATOM     30  C   UNL     1       3.798   0.826  -0.220  0.00  0.00    +0.048 A 
ATOM     31  C   UNL     1       3.626  -0.548  -0.131  0.00  0.00    +0.157 A 
ATOM     32  C   UNL     1       2.355  -1.094  -0.240  0.00  0.00    +0.048 A 
ATOM     33  C   UNL     1       1.264  -0.269  -0.436  0.00  0.00    +0.004 A 
ENDBRANCH  27  31
ENDBRANCH  24  27
ENDBRANCH  18  24
ENDBRANCH   1  21
BRANCH   1  34
ATOM     34  C   UNL     1       1.327  -5.998   4.993  0.00  0.00    +0.134 C 
BRANCH  34  35
ATOM     35  N   UNL     1       1.339  -4.862   5.925  0.00  0.00    -0.202 NA
ATOM     36  H   UNL     1       0.421  -4.453   6.008  0.00  0.00    +0.154 HD
BRANCH  35  37
ATOM     37  O   UNL     1       1.854  -5.264   7.234  0.00  0.00    -0.315 OA
ATOM     38  H   UNL     1       1.881  -4.548   7.883  0.00  0.00    +0.236 HD
ENDBRANCH  35  37
ENDBRANCH  34  35
ENDBRANCH   1  34
TORSDOF 10
