REMARK  Name = ZINC28058701
REMARK  6 active torsions:
REMARK  status: ('A' for Active; 'I' for Inactive)
REMARK    1  A    between atoms: C_1  and  O_2
REMARK    2  A    between atoms: O_2  and  C_3
REMARK    3  A    between atoms: C_6  and  C_11
REMARK    4  A    between atoms: C_7  and  O_9
REMARK    5  A    between atoms: O_9  and  C_10
REMARK    6  A    between atoms: C_22  and  C_24
REMARK                            x       y       z     vdW  Elec       q    Type
REMARK                         _______ _______ _______ _____ _____    ______ ____
ROOT
ATOM      1  C   UNL     1      -1.340   3.656   2.108  0.00  0.00    +0.177 C 
ATOM      2  C   UNL     1      -1.753   2.361   1.450  0.00  0.00    +0.026 C 
ATOM      3  C   UNL     1      -2.474   1.437   2.087  0.00  0.00    +0.050 C 
ATOM      4  C   UNL     1      -2.850   0.206   1.351  0.00  0.00    +0.038 A 
ATOM      5  C   UNL     1      -3.293  -0.930   2.016  0.00  0.00    +0.013 A 
ATOM      6  C   UNL     1      -3.633  -2.055   1.289  0.00  0.00    +0.001 A 
ATOM      7  C   UNL     1      -3.532  -2.052  -0.091  0.00  0.00    +0.004 A 
ATOM      8  C   UNL     1      -3.091  -0.924  -0.761  0.00  0.00    +0.046 A 
ATOM      9  C   UNL     1      -2.749   0.208  -0.046  0.00  0.00    +0.131 A 
ATOM     10  O   UNL     1      -2.312   1.334  -0.665  0.00  0.00    -0.479 OA
ATOM     11  C   UNL     1      -1.332   2.114   0.020  0.00  0.00    +0.235 C 
ATOM     12  N   UNL     1      -2.877   1.589   3.419  0.00  0.00    -0.282 N 
ATOM     13  C   UNL     1      -2.282   2.603   4.151  0.00  0.00    +0.240 A 
ATOM     14  N   UNL     1      -1.553   3.577   3.546  0.00  0.00    -0.201 N 
ATOM     15  N   UNL     1      -1.108   4.403   4.577  0.00  0.00    -0.042 NA
ATOM     16  N   UNL     1      -1.577   3.905   5.676  0.00  0.00    -0.021 NA
ATOM     17  N   UNL     1      -2.270   2.846   5.430  0.00  0.00    -0.092 NA
ATOM     18  H   UNL     1      -3.637   0.917   3.843  0.00  0.00    +0.155 HD
ENDROOT
BRANCH  11  19
ATOM     19  C   UNL     1      -0.017   1.378   0.010  0.00  0.00    +0.015 A 
ATOM     20  C   UNL     1       0.002  -0.003  -0.038  0.00  0.00    +0.010 A 
ATOM     21  C   UNL     1       1.208  -0.678  -0.054  0.00  0.00    +0.020 A 
ATOM     22  C   UNL     1       2.397   0.028  -0.021  0.00  0.00    +0.042 A 
ATOM     23  C   UNL     1       2.379   1.411   0.028  0.00  0.00    +0.040 A 
ATOM     24  C   UNL     1       1.172   2.086   0.043  0.00  0.00    +0.049 A 
ATOM     25 CL   UNL     1       1.148   3.821   0.104  0.00  0.00    -0.083 Cl
ATOM     26 CL   UNL     1       3.912  -0.820  -0.039  0.00  0.00    -0.083 Cl
ENDBRANCH  11  19
BRANCH   1  30
ATOM     27  C   UNL     1      -3.668   6.866   0.504  0.00  0.00    +0.124 A 
ATOM     28  C   UNL     1      -4.290   5.814   1.162  0.00  0.00    +0.046 A 
ATOM     29  C   UNL     1      -3.535   4.778   1.679  0.00  0.00    +0.013 A 
ATOM     30  C   UNL     1      -2.160   4.787   1.543  0.00  0.00    +0.023 A 
ATOM     31  C   UNL     1      -1.533   5.840   0.891  0.00  0.00    +0.129 A 
ATOM     32  C   UNL     1      -2.289   6.878   0.366  0.00  0.00    +0.091 A 
BRANCH  27  34
ATOM     33  C   UNL     1      -5.826   7.807   0.175  0.00  0.00    +0.277 C 
ATOM     34  O   UNL     1      -4.411   7.884  -0.004  0.00  0.00    -0.495 OA
ENDBRANCH  27  34
BRANCH  31  35
ATOM     35  O   UNL     1      -0.180   5.851   0.763  0.00  0.00    -0.495 OA
ATOM     36  C   UNL     1       0.397   6.966   0.081  0.00  0.00    +0.277 C 
ENDBRANCH  31  35
ENDBRANCH   1  30
TORSDOF 4
