REMARK  Name = ZINC14546636
REMARK  3 active torsions:
REMARK  status: ('A' for Active; 'I' for Inactive)
REMARK    1  A    between atoms: C_4  and  C_8
REMARK    2  A    between atoms: C_18  and  N_25
REMARK    3  A    between atoms: C_21  and  O_24
REMARK                            x       y       z     vdW  Elec       q    Type
REMARK                         _______ _______ _______ _____ _____    ______ ____
ROOT
ATOM      1  C   UNL     1       0.095   5.445  -0.094  0.00  0.00    +0.108 C 
ATOM      2  C   UNL     1      -0.243   5.907   1.309  0.00  0.00    +0.029 C 
ATOM      3  C   UNL     1       0.765   5.612   2.425  0.00  0.00    +0.033 C 
ATOM      4  C   UNL     1       0.509   6.806   3.370  0.00  0.00    -0.030 C 
ATOM      5  C   UNL     1      -0.001   7.831   2.695  0.00  0.00    -0.023 C 
ATOM      6  C   UNL     1      -0.080   7.458   1.262  0.00  0.00    +0.051 C 
ATOM      7  C   UNL     1      -1.138   7.969   0.363  0.00  0.00    +0.014 A 
ATOM      8  C   UNL     1      -1.737   9.195   0.571  0.00  0.00    +0.132 A 
ATOM      9  C   UNL     1      -2.712   9.657  -0.291  0.00  0.00    +0.037 A 
ATOM     10  C   UNL     1      -3.091   8.883  -1.374  0.00  0.00    +0.049 A 
ATOM     11  C   UNL     1      -2.502   7.653  -1.587  0.00  0.00    +0.138 A 
ATOM     12  C   UNL     1      -1.517   7.170  -0.716  0.00  0.00    +0.076 A 
ATOM     13  N   UNL     1      -0.993   5.902  -0.973  0.00  0.00    -0.334 N 
ATOM     14  H   UNL     1      -1.354   5.253  -1.785  0.00  0.00    +0.147 HD
ENDROOT
BRANCH   1  18
ATOM     15  C   UNL     1       0.359   1.181  -0.198  0.00  0.00    +0.003 A 
ATOM     16  C   UNL     1      -0.877   1.795  -0.135  0.00  0.00    +0.020 A 
ATOM     17  C   UNL     1      -0.964   3.175  -0.096  0.00  0.00    +0.047 A 
ATOM     18  C   UNL     1       0.188   3.941  -0.131  0.00  0.00    +0.010 A 
ATOM     19  C   UNL     1       1.425   3.326  -0.200  0.00  0.00    +0.047 A 
ATOM     20  C   UNL     1       1.510   1.946  -0.234  0.00  0.00    +0.020 A 
ATOM     21 CL   UNL     1       2.871   4.286  -0.245  0.00  0.00    -0.083 Cl
ATOM     22 CL   UNL     1      -2.517   3.946  -0.009  0.00  0.00    -0.083 Cl
ENDBRANCH   1  18
BRANCH   8  23
ATOM     23  N   UNL     1      -1.331  10.022   1.729  0.00  0.00    +0.057 N 
ATOM     24  O   UNL     1      -2.174  10.464   2.488  0.00  0.00    -0.126 OA
ATOM     25  O   UNL     1      -0.152  10.261   1.923  0.00  0.00    -0.126 OA
ENDBRANCH   8  23
BRANCH  11  26
ATOM     26  O   UNL     1      -2.882   6.902  -2.655  0.00  0.00    -0.505 OA
ATOM     27  H   UNL     1      -2.417   5.921  -2.831  0.00  0.00    +0.292 HD
ENDBRANCH  11  26
TORSDOF 3
