REMARK  Name = ZINC02791368
REMARK  13 active torsions:
REMARK  status: ('A' for Active; 'I' for Inactive)
REMARK    1  A    between atoms: C_1  and  C_2
REMARK    2  A    between atoms: C_2  and  C_3
REMARK    3  A    between atoms: C_2  and  C_4
REMARK    4  A    between atoms: C_7  and  C_10
REMARK    5  A    between atoms: C_13  and  C_32
REMARK    6  A    between atoms: C_18  and  C_20
REMARK    7  A    between atoms: C_23  and  S_30
REMARK    8  A    between atoms: N_24  and  C_25
REMARK    9  A    between atoms: C_25  and  C_26
REMARK   10  A    between atoms: C_26  and  C_27
REMARK   11  A    between atoms: C_27  and  N_64
REMARK   12  A    between atoms: C_28  and  N_64
REMARK   13  A    between atoms: C_29  and  N_64
REMARK                            x       y       z     vdW  Elec       q    Type
REMARK                         _______ _______ _______ _____ _____    ______ ____
ROOT
ATOM      1  C   UNL     1      -0.013   1.086   0.008  0.00  0.00    +0.104 C 
ATOM      2  C   UNL     1      -0.709   1.584   1.279  0.00  0.00    +0.063 C 
ATOM      3  C   UNL     1      -0.004   1.017   2.517  0.00  0.00    +0.215 C 
ATOM      4  N   UNL     1       1.437   1.258   2.394  0.00  0.00    -0.238 N 
ATOM      5  C   UNL     1       2.061   1.531   1.211  0.00  0.00    +0.119 A 
ATOM      6  C   UNL     1       3.375   1.702   1.460  0.00  0.00    +0.076 A 
ATOM      7  C   UNL     1       3.573   1.526   2.847  0.00  0.00    +0.132 A 
ATOM      8  N   UNL     1       2.403   1.258   3.399  0.00  0.00    -0.166 NA
ATOM      9  N   UNL     1       1.371   1.601  -0.002  0.00  0.00    -0.322 N 
ATOM     10  H   UNL     1       1.777   1.965  -0.804  0.00  0.00    +0.148 HD
ENDROOT
BRANCH   1  14
ATOM     11  C   UNL     1      -2.100   2.511  -3.436  0.00  0.00    -0.045 A 
ATOM     12  C   UNL     1      -2.293   1.214  -2.998  0.00  0.00    +0.004 A 
ATOM     13  C   UNL     1      -1.618   0.753  -1.884  0.00  0.00    +0.006 A 
ATOM     14  C   UNL     1      -0.749   1.589  -1.207  0.00  0.00    -0.027 A 
ATOM     15  C   UNL     1      -0.560   2.887  -1.641  0.00  0.00    +0.006 A 
ATOM     16  C   UNL     1      -1.232   3.347  -2.758  0.00  0.00    +0.004 A 
BRANCH  11  18
ATOM     17  C   UNL     1      -3.704   4.212  -4.263  0.00  0.00    +0.012 C 
ATOM     18  C   UNL     1      -2.835   3.014  -4.651  0.00  0.00    +0.013 C 
ATOM     19  C   UNL     1      -1.825   3.441  -5.718  0.00  0.00    +0.012 C 
ENDBRANCH  11  18
ENDBRANCH   1  14
BRANCH   7  20
ATOM     20  C   UNL     1       4.866   1.623   3.558  0.00  0.00    +0.185 A 
ATOM     21  N   UNL     1       6.035   1.881   3.020  0.00  0.00    -0.127 NA
ATOM     22  N   UNL     1       6.943   1.893   3.929  0.00  0.00    -0.122 NA
ATOM     23  C   UNL     1       6.411   1.634   5.102  0.00  0.00    +0.189 A 
ATOM     24  N   UNL     1       5.071   1.453   4.908  0.00  0.00    -0.301 N 
BRANCH  23  25
ATOM     25  S   UNL     1       7.267   1.538   6.639  0.00  0.00    -0.103 S 
ATOM     26  H   UNL     1       7.599   0.168   6.650  0.00  0.00    +0.110 HD
ENDBRANCH  23  25
BRANCH  24  27
ATOM     27  C   UNL     1       4.063   1.143   5.925  0.00  0.00    +0.124 C 
BRANCH  27  28
ATOM     28  C   UNL     1       3.934  -0.375   6.068  0.00  0.00    +0.003 C 
BRANCH  28  29
ATOM     29  C   UNL     1       2.882  -0.699   7.130  0.00  0.00    -0.078 C 
BRANCH  29  32
ATOM     30  C   UNL     1       1.937  -2.507   8.434  0.00  0.00    -0.097 C 
ATOM     31  C   UNL     1       2.214  -2.757   6.042  0.00  0.00    -0.097 C 
ATOM     32  N   UNL     1       2.784  -2.167   7.272  0.00  0.00    +0.376 N 
ATOM     33  H   UNL     1       3.724  -2.551   7.421  0.00  0.00    -0.083 HD
ENDBRANCH  29  32
ENDBRANCH  28  29
ENDBRANCH  27  28
ENDBRANCH  24  27
ENDBRANCH   7  20
BRANCH   3  34
ATOM     34  C   UNL     1      -0.534   1.712   3.772  0.00  0.00    +0.412 C 
ATOM     35  F   UNL     1      -0.299   3.087   3.679  0.00  0.00    -0.168 F 
ATOM     36  F   UNL     1      -1.909   1.481   3.888  0.00  0.00    -0.168 F 
ATOM     37  F   UNL     1       0.120   1.202   4.899  0.00  0.00    -0.168 F 
ENDBRANCH   3  34
TORSDOF 9
