REMARK  Name = ZINC18200664
REMARK  2 active torsions:
REMARK  status: ('A' for Active; 'I' for Inactive)
REMARK    1  A    between atoms: C_5  and  C_7
REMARK    2  A    between atoms: C_12  and  C_17
REMARK                            x       y       z     vdW  Elec       q    Type
REMARK                         _______ _______ _______ _____ _____    ______ ____
ROOT
ATOM      1  C   UNL     1       1.152   3.593   0.010  0.00  0.00    +0.177 C 
ATOM      2  C   UNL     1       1.842   4.111  -1.233  0.00  0.00    +0.041 C 
ATOM      3  C   UNL     1       3.069   4.668  -1.196  0.00  0.00    +0.020 C 
ATOM      4  C   UNL     1       3.741   5.152  -2.459  0.00  0.00    +0.060 C 
ATOM      5  C   UNL     1       2.682   5.639  -3.451  0.00  0.00    +0.039 C 
ATOM      6  C   UNL     1       1.725   4.479  -3.744  0.00  0.00    +0.088 C 
ATOM      7  C   UNL     1       1.141   3.988  -2.449  0.00  0.00    +0.164 C 
ATOM      8  O   UNL     1       0.040   3.473  -2.451  0.00  0.00    -0.292 OA
ATOM      9  N   UNL     1       3.761   4.816  -0.018  0.00  0.00    -0.287 N 
ATOM     10  C   UNL     1       3.070   4.648   1.171  0.00  0.00    +0.220 A 
ATOM     11  N   UNL     1       1.839   4.080   1.199  0.00  0.00    -0.219 N 
ATOM     12  N   UNL     1       1.433   4.075   2.533  0.00  0.00    -0.132 NA
ATOM     13  C   UNL     1       2.409   4.619   3.228  0.00  0.00    +0.233 A 
ATOM     14  N   UNL     1       3.400   4.964   2.393  0.00  0.00    -0.180 NA
ATOM     15  N   UNL     1       2.411   4.808   4.611  0.00  0.00    -0.326 N 
ATOM     16  H   UNL     1       4.707   5.032  -0.019  0.00  0.00    +0.155 HD
ATOM     17  H   UNL     1       1.648   4.527   5.140  0.00  0.00    +0.145 HD
ATOM     18  H   UNL     1       3.176   5.219   5.043  0.00  0.00    +0.145 HD
ENDROOT
BRANCH   1  23
ATOM     19  C   UNL     1       2.396   0.029  -0.021  0.00  0.00    +0.000 A 
ATOM     20  C   UNL     1       1.208  -0.678  -0.013  0.00  0.00    +0.001 A 
ATOM     21  C   UNL     1       0.002  -0.004   0.002  0.00  0.00    +0.015 A 
ATOM     22  C   UNL     1      -0.017   1.379   0.010  0.00  0.00    +0.023 A 
ATOM     23  C   UNL     1       1.172   2.087   0.002  0.00  0.00    -0.005 A 
ATOM     24  C   UNL     1       2.378   1.411  -0.013  0.00  0.00    +0.007 A 
ATOM     25 BR   UNL     1      -1.667   2.303   0.022  0.00  0.00    -0.050 Br
ENDBRANCH   1  23
BRANCH   5  26
ATOM     26  C   UNL     1       3.348   6.083  -4.727  0.00  0.00    -0.006 A 
ATOM     27  C   UNL     1       3.332   7.303  -5.319  0.00  0.00    +0.011 A 
ATOM     28  C   UNL     1       4.024   7.482  -6.502  0.00  0.00    +0.008 A 
ATOM     29  C   UNL     1       4.699   6.435  -7.035  0.00  0.00    +0.045 A 
ATOM     30  S   UNL     1       4.370   5.142  -5.848  0.00  0.00    -0.101 S 
ENDBRANCH   5  26
TORSDOF 2
