REMARK  Name = ZINC39632539
REMARK  5 active torsions:
REMARK  status: ('A' for Active; 'I' for Inactive)
REMARK    1  A    between atoms: C_1  and  O_2
REMARK    2  A    between atoms: O_2  and  C_3
REMARK    3  A    between atoms: C_4  and  C_9
REMARK    4  A    between atoms: C_13  and  C_22
REMARK    5  A    between atoms: N_24  and  C_25
REMARK                            x       y       z     vdW  Elec       q    Type
REMARK                         _______ _______ _______ _____ _____    ______ ____
ROOT
ATOM      1  C   UNL     1      -1.547  -0.677  -2.405  0.00  0.00    +0.251 C 
ATOM      2  O   UNL     1      -0.345  -0.841  -2.318  0.00  0.00    -0.270 OA
ATOM      3  N   UNL     1      -2.207  -1.105  -3.500  0.00  0.00    -0.296 N 
ATOM      4  C   UNL     1      -1.665  -1.873  -4.646  0.00  0.00    +0.121 C 
ATOM      5  C   UNL     1      -2.777  -2.885  -4.999  0.00  0.00    +0.100 C 
ATOM      6  C   UNL     1      -4.071  -2.249  -4.462  0.00  0.00    -0.004 C 
ATOM      7  C   UNL     1      -3.641  -0.920  -3.826  0.00  0.00    +0.115 C 
ATOM      8  C   UNL     1      -4.705  -3.151  -3.408  0.00  0.00    -0.010 C 
ATOM      9  C   UNL     1      -6.019  -2.526  -2.931  0.00  0.00    -0.082 C 
ATOM     10  N   UNL     1      -6.927  -2.361  -4.072  0.00  0.00    +0.379 N 
ATOM     11  C   UNL     1      -6.350  -1.419  -5.039  0.00  0.00    -0.082 C 
ATOM     12  C   UNL     1      -5.050  -1.998  -5.605  0.00  0.00    -0.010 C 
ATOM     13  H   UNL     1      -7.069  -3.254  -4.519  0.00  0.00    -0.086 HD
ATOM     14  H   UNL     1      -7.813  -2.005  -3.746  0.00  0.00    -0.086 HD
ENDROOT
BRANCH   1  16
ATOM     15  C   UNL     1      -1.907  -0.193   0.067  0.00  0.00    +0.158 A 
ATOM     16  C   UNL     1      -2.280  -0.013  -1.318  0.00  0.00    +0.087 A 
ATOM     17  C   UNL     1      -3.354   0.813  -1.570  0.00  0.00    +0.063 A 
ATOM     18  S   UNL     1      -3.848   1.325  -0.051  0.00  0.00    -0.081 S 
ATOM     19  C   UNL     1      -2.666   0.471   0.968  0.00  0.00    +0.120 A 
ATOM     20 CL   UNL     1      -2.521   0.487   2.698  0.00  0.00    -0.072 Cl
BRANCH  15  22
ATOM     21  C   UNL     1      -1.152  -2.361   0.694  0.00  0.00    +0.277 C 
ATOM     22  O   UNL     1      -0.864  -0.985   0.440  0.00  0.00    -0.492 OA
ENDBRANCH  15  22
ENDBRANCH   1  16
BRANCH   5  23
ATOM     23  C   UNL     1      -2.862  -3.072  -6.492  0.00  0.00    +0.218 C 
ATOM     24  O   UNL     1      -2.480  -2.193  -7.236  0.00  0.00    -0.275 OA
ATOM     25  N   UNL     1      -3.361  -4.215  -7.001  0.00  0.00    -0.312 N 
ATOM     26  H   UNL     1      -3.666  -4.918  -6.406  0.00  0.00    +0.149 HD
BRANCH  25  27
ATOM     27  C   UNL     1      -3.443  -4.397  -8.452  0.00  0.00    +0.073 C 
ATOM     28  C   UNL     1      -4.779  -3.834  -8.980  0.00  0.00    +0.022 C 
ATOM     29  C   UNL     1      -5.191  -4.822 -10.101  0.00  0.00    +0.002 C 
ATOM     30  C   UNL     1      -4.760  -6.193  -9.523  0.00  0.00    +0.002 C 
ATOM     31  C   UNL     1      -3.431  -5.897  -8.797  0.00  0.00    +0.022 C 
ENDBRANCH  25  27
ENDBRANCH   5  23
TORSDOF 4
