REMARK  Name = ZINC21257719
REMARK  7 active torsions:
REMARK  status: ('A' for Active; 'I' for Inactive)
REMARK    1  A    between atoms: C_1  and  C_2
REMARK    2  A    between atoms: C_2  and  O_3
REMARK    3  A    between atoms: O_3  and  C_4
REMARK    4  A    between atoms: C_6  and  C_12
REMARK    5  A    between atoms: C_9  and  O_10
REMARK    6  A    between atoms: C_17  and  C_22
REMARK    7  A    between atoms: C_25  and  C_28
REMARK                            x       y       z     vdW  Elec       q    Type
REMARK                         _______ _______ _______ _____ _____    ______ ____
ROOT
ATOM      1  C   UNL     1       3.672   2.193  -0.020  0.00  0.00    +0.136 C 
ATOM      2  C   UNL     1       3.934   2.700   1.378  0.00  0.00    +0.036 C 
ATOM      3  C   UNL     1       3.865   3.977   1.782  0.00  0.00    +0.017 C 
ATOM      4  C   UNL     1       4.120   4.340   3.236  0.00  0.00    +0.059 C 
ATOM      5  C   UNL     1       5.162   3.395   3.833  0.00  0.00    +0.032 C 
ATOM      6  C   UNL     1       4.610   1.968   3.732  0.00  0.00    +0.088 C 
ATOM      7  C   UNL     1       4.288   1.680   2.296  0.00  0.00    +0.163 C 
ATOM      8  O   UNL     1       4.332   0.529   1.906  0.00  0.00    -0.292 OA
ATOM      9  N   UNL     1       3.560   5.029   0.981  0.00  0.00    -0.316 N 
ATOM     10  C   UNL     1       2.501   5.057   0.080  0.00  0.00    +0.052 A 
ATOM     11  C   UNL     1       1.463   5.966   0.190  0.00  0.00    +0.025 A 
ATOM     12  C   UNL     1       0.496   6.015  -0.800  0.00  0.00    +0.002 A 
ATOM     13  C   UNL     1       0.566   5.162  -1.886  0.00  0.00    +0.002 A 
ATOM     14  C   UNL     1       1.592   4.238  -1.986  0.00  0.00    +0.025 A 
ATOM     15  C   UNL     1       2.552   4.176  -0.989  0.00  0.00    +0.049 A 
ATOM     16  N   UNL     1       3.577   3.232  -1.023  0.00  0.00    -0.331 N 
ATOM     17  H   UNL     1       4.170   5.943   1.016  0.00  0.00    +0.152 HD
ATOM     18  H   UNL     1       4.323   3.288  -1.830  0.00  0.00    +0.147 HD
ENDROOT
BRANCH   1  21
ATOM     19  C   UNL     1       1.202  -0.656  -0.261  0.00  0.00    +0.163 A 
ATOM     20  C   UNL     1       2.389   0.059  -0.268  0.00  0.00    +0.055 A 
ATOM     21  C   UNL     1       2.380   1.417  -0.013  0.00  0.00    -0.018 A 
ATOM     22  C   UNL     1       1.187   2.066   0.249  0.00  0.00    +0.025 A 
ATOM     23  C   UNL     1      -0.001   1.359   0.258  0.00  0.00    +0.063 A 
ATOM     24  C   UNL     1       0.002  -0.004   0.003  0.00  0.00    +0.173 A 
ATOM     25 BR   UNL     1      -1.631   2.251   0.609  0.00  0.00    -0.046 Br
BRANCH  24  26
ATOM     26  O   UNL     1      -1.165  -0.702   0.011  0.00  0.00    -0.503 OA
ATOM     27  H   UNL     1      -2.114  -0.185   0.220  0.00  0.00    +0.292 HD
ENDBRANCH  24  26
BRANCH  19  28
ATOM     28  O   UNL     1       1.211  -1.993  -0.511  0.00  0.00    -0.489 OA
BRANCH  28  30
ATOM     29  C   UNL     1       2.290  -4.093  -1.030  0.00  0.00    +0.048 C 
ATOM     30  C   UNL     1       2.479  -2.596  -0.773  0.00  0.00    +0.226 C 
ENDBRANCH  28  30
ENDBRANCH  19  28
ENDBRANCH   1  21
BRANCH   5  31
ATOM     31  C   UNL     1       5.403   3.748   5.278  0.00  0.00    -0.043 A 
ATOM     32  C   UNL     1       4.359   3.708   6.183  0.00  0.00    +0.004 A 
ATOM     33  C   UNL     1       4.581   4.028   7.509  0.00  0.00    +0.003 A 
ATOM     34  C   UNL     1       5.846   4.396   7.929  0.00  0.00    -0.050 A 
ATOM     35  C   UNL     1       6.889   4.441   7.022  0.00  0.00    +0.003 A 
ATOM     36  C   UNL     1       6.667   4.118   5.697  0.00  0.00    +0.004 A 
ATOM     37  C   UNL     1       6.088   4.749   9.374  0.00  0.00    +0.044 C 
ENDBRANCH   5  31
TORSDOF 5
