REMARK  Name = ZINC30574853
REMARK  11 active torsions:
REMARK  status: ('A' for Active; 'I' for Inactive)
REMARK    1  A    between atoms: C_1  and  C_2
REMARK    2  A    between atoms: C_5  and  C_7
REMARK    3  A    between atoms: N_9  and  C_10
REMARK    4  A    between atoms: C_13  and  C_16
REMARK    5  A    between atoms: N_18  and  C_19
REMARK    6  A    between atoms: C_19  and  C_20
REMARK    7  A    between atoms: C_20  and  C_22
REMARK    8  A    between atoms: C_20  and  C_31
REMARK    9  A    between atoms: C_25  and  N_28
REMARK   10  A    between atoms: N_28  and  C_29
REMARK   11  A    between atoms: N_28  and  C_30
REMARK                            x       y       z     vdW  Elec       q    Type
REMARK                         _______ _______ _______ _____ _____    ______ ____
ROOT
ATOM      1  C   UNL     1      -2.542   0.997   0.074  0.00  0.00    +0.068 C 
ENDROOT
BRANCH   1   2
ATOM      2  C   UNL     1      -3.344   1.343   1.303  0.00  0.00    -0.013 A 
ATOM      3  C   UNL     1      -3.789   2.560   1.650  0.00  0.00    +0.088 A 
ATOM      4  N   UNL     1      -4.482   2.486   2.828  0.00  0.00    -0.360 N 
ATOM      5  H   UNL     1      -4.928   3.393   3.261  0.00  0.00    +0.165 HD
ATOM      6  C   UNL     1      -4.491   1.187   3.284  0.00  0.00    +0.047 A 
ATOM      7  C   UNL     1      -3.778   0.414   2.349  0.00  0.00    +0.003 A 
ATOM      8  C   UNL     1      -3.622  -0.958   2.555  0.00  0.00    +0.010 A 
ATOM      9  C   UNL     1      -4.164  -1.544   3.665  0.00  0.00    +0.001 A 
ATOM     10  C   UNL     1      -4.867  -0.785   4.590  0.00  0.00    +0.002 A 
ATOM     11  C   UNL     1      -5.033   0.570   4.407  0.00  0.00    +0.026 A 
ENDBRANCH   1   2
BRANCH   1  12
ATOM     12  C   UNL     1      -1.251   1.774   0.082  0.00  0.00    -0.038 A 
ATOM     13  C   UNL     1      -0.042   1.102   0.084  0.00  0.00    +0.006 A 
ATOM     14  C   UNL     1       1.143   1.811   0.085  0.00  0.00    +0.023 A 
ATOM     15  C   UNL     1       1.121   3.200   0.090  0.00  0.00    +0.029 A 
ATOM     16  C   UNL     1      -0.095   3.871   0.094  0.00  0.00    +0.023 A 
ATOM     17  C   UNL     1      -1.277   3.156   0.093  0.00  0.00    +0.006 A 
BRANCH  15  18
ATOM     18  N   UNL     1       2.318   3.919   0.091  0.00  0.00    -0.336 N 
ATOM     19  C   UNL     1       3.599   3.210   0.086  0.00  0.00    +0.129 C 
ATOM     20  C   UNL     1       2.292   5.384   0.096  0.00  0.00    +0.129 C 
ENDBRANCH  15  18
ENDBRANCH   1  12
BRANCH   1  21
ATOM     21  C   UNL     1      -3.346   1.358  -1.176  0.00  0.00    +0.117 C 
BRANCH  21  24
ATOM     22  C   UNL     1      -5.408   0.659  -2.270  0.00  0.00    +0.244 C 
ATOM     23  O   UNL     1      -5.194   1.484  -3.137  0.00  0.00    -0.270 OA
ATOM     24  N   UNL     1      -4.544   0.517  -1.246  0.00  0.00    -0.310 N 
ATOM     25  H   UNL     1      -4.738  -0.230  -0.462  0.00  0.00    +0.149 HD
BRANCH  22  29
ATOM     26  C   UNL     1      -8.880  -1.779  -2.472  0.00  0.00    +0.033 A 
ATOM     27  C   UNL     1      -8.636  -0.835  -3.465  0.00  0.00    +0.024 A 
ATOM     28  C   UNL     1      -7.512  -0.043  -3.402  0.00  0.00    +0.015 A 
ATOM     29  C   UNL     1      -6.615  -0.188  -2.340  0.00  0.00    +0.037 A 
ATOM     30  C   UNL     1      -6.860  -1.142  -1.348  0.00  0.00    +0.015 A 
ATOM     31  C   UNL     1      -7.989  -1.927  -1.414  0.00  0.00    +0.024 A 
BRANCH  26  34
ATOM     32  C   UNL     1      -9.973  -3.857  -2.111  0.00  0.00    +0.221 C 
ATOM     33  O   UNL     1      -8.963  -4.286  -1.593  0.00  0.00    -0.275 OA
ATOM     34  N   UNL     1     -10.020  -2.579  -2.538  0.00  0.00    -0.285 N 
ATOM     35  H   UNL     1     -10.958  -2.168  -2.939  0.00  0.00    +0.155 HD
BRANCH  32  39
ATOM     36  C   UNL     1     -12.309  -6.833  -1.171  0.00  0.00    +0.008 C 
ATOM     37  C   UNL     1     -11.057  -6.191  -1.773  0.00  0.00    -0.002 C 
ATOM     38  C   UNL     1     -11.061  -5.906  -3.276  0.00  0.00    +0.017 C 
ATOM     39  C   UNL     1     -11.173  -4.752  -2.278  0.00  0.00    +0.078 C 
ENDBRANCH  32  39
ENDBRANCH  26  34
ENDBRANCH  22  29
ENDBRANCH  21  24
ENDBRANCH   1  21
TORSDOF 8
