REMARK  Name = ZINC35828123
REMARK  1 active torsions:
REMARK  status: ('A' for Active; 'I' for Inactive)
REMARK    1  A    between atoms: N_25  and  C_28
REMARK                            x       y       z     vdW  Elec       q    Type
REMARK                         _______ _______ _______ _____ _____    ______ ____
ROOT
ATOM      1  C   UNL     1      -0.016   1.358   0.009  0.00  0.00    +0.001 A 
ATOM      2  C   UNL     1       1.170   2.088   0.002  0.00  0.00    +0.002 A 
ATOM      3  C   UNL     1       2.379   1.463  -0.014  0.00  0.00    +0.026 A 
ATOM      4  C   UNL     1       2.438   0.059  -0.024  0.00  0.00    +0.048 A 
ATOM      5  C   UNL     1       1.231  -0.681  -0.013  0.00  0.00    -0.001 A 
ATOM      6  C   UNL     1       0.002  -0.004   0.002  0.00  0.00    +0.010 A 
ATOM      7  C   UNL     1       1.293  -2.089  -0.018  0.00  0.00    +0.017 A 
ATOM      8  C   UNL     1       2.521  -2.684  -0.041  0.00  0.00    -0.007 A 
ATOM      9  C   UNL     1       3.678  -1.902  -0.062  0.00  0.00    +0.103 A 
ATOM     10  N   UNL     1       3.611  -0.581  -0.046  0.00  0.00    -0.343 N 
ATOM     11  N   UNL     1       4.948  -2.488  -0.115  0.00  0.00    -0.312 N 
ATOM     12  C   UNL     1       6.088  -1.569  -0.112  0.00  0.00    +0.107 C 
ATOM     13  C   UNL     1       7.292  -2.184   0.595  0.00  0.00    +0.019 C 
ATOM     14  C   UNL     1       7.570  -3.553  -0.037  0.00  0.00    +0.003 C 
ATOM     15  C   UNL     1       6.404  -4.478   0.292  0.00  0.00    +0.024 C 
ATOM     16  C   UNL     1       5.081  -3.929  -0.212  0.00  0.00    +0.099 C 
ATOM     17  C   UNL     1       3.944  -4.620   0.555  0.00  0.00    +0.146 C 
ATOM     18  C   UNL     1       2.602  -4.189  -0.038  0.00  0.00    +0.066 C 
ATOM     19  C   UNL     1       4.095  -6.110   0.420  0.00  0.00    +0.238 C 
ATOM     20  O   UNL     1       4.060  -6.606  -0.686  0.00  0.00    -0.274 OA
ATOM     21  N   UNL     1       4.267  -6.905   1.484  0.00  0.00    -0.239 N 
ATOM     22  C   UNL     1       4.314  -6.419   2.734  0.00  0.00    +0.315 C 
ATOM     23  O   UNL     1       4.476  -7.186   3.662  0.00  0.00    -0.252 OA
ATOM     24  N   UNL     1       4.186  -5.107   2.983  0.00  0.00    -0.222 N 
ATOM     25  C   UNL     1       4.008  -4.213   2.001  0.00  0.00    +0.240 C 
ATOM     26  O   UNL     1       3.895  -3.040   2.287  0.00  0.00    -0.274 OA
ATOM     27  H   UNL     1       4.361  -7.861   1.347  0.00  0.00    +0.159 HD
ATOM     28  H   UNL     1       4.433  -0.065  -0.051  0.00  0.00    +0.167 HD
ENDROOT
BRANCH  24  29
ATOM     29  C   UNL     1       4.242  -4.638   4.369  0.00  0.00    +0.086 C 
ATOM     30  C   UNL     1       5.594  -5.014   4.980  0.00  0.00    +0.023 C 
ATOM     31  C   UNL     1       5.653  -4.524   6.429  0.00  0.00    +0.002 C 
ATOM     32  C   UNL     1       4.529  -5.179   7.234  0.00  0.00    +0.000 C 
ATOM     33  C   UNL     1       3.177  -4.803   6.623  0.00  0.00    +0.002 C 
ATOM     34  C   UNL     1       3.118  -5.292   5.175  0.00  0.00    +0.023 C 
ENDBRANCH  24  29
TORSDOF 1
