REMARK  Name = ZINC10058992
REMARK  8 active torsions:
REMARK  status: ('A' for Active; 'I' for Inactive)
REMARK    1  A    between atoms: C_1  and  C_2
REMARK    2  A    between atoms: C_2  and  C_3
REMARK    3  A    between atoms: C_2  and  C_4
REMARK    4  A    between atoms: C_2  and  C_5
REMARK    5  A    between atoms: C_14  and  O_33
REMARK    6  A    between atoms: C_16  and  C_19
REMARK    7  A    between atoms: C_22  and  C_24
REMARK    8  A    between atoms: C_29  and  N_30
REMARK                            x       y       z     vdW  Elec       q    Type
REMARK                         _______ _______ _______ _____ _____    ______ ____
ROOT
ATOM      1  C   UNL     1       0.273  -2.806  -0.395  0.00  0.00    -0.000 C 
ATOM      2  C   UNL     1      -0.881  -2.279   0.462  0.00  0.00    +0.009 C 
ATOM      3  C   UNL     1      -1.256  -0.865   0.016  0.00  0.00    +0.037 C 
ATOM      4  C   UNL     1       0.002  -0.004   0.002  0.00  0.00    -0.023 A 
ATOM      5  C   UNL     1       1.230  -0.572  -0.018  0.00  0.00    -0.004 A 
ATOM      6  S   UNL     1       2.363   0.793  -0.024  0.00  0.00    -0.078 S 
ATOM      7  C   UNL     1       1.234   2.077   0.001  0.00  0.00    +0.080 A 
ATOM      8  C   UNL     1      -0.018   1.448   0.010  0.00  0.00    +0.068 A 
ATOM      9  C   UNL     1      -1.218   2.323   0.018  0.00  0.00    +0.220 C 
ATOM     10  N   UNL     1      -1.040   3.593   0.263  0.00  0.00    -0.220 NA
ATOM     11  C   UNL     1       0.241   4.203   0.593  0.00  0.00    +0.260 C 
ATOM     12  N   UNL     1       1.368   3.444   0.019  0.00  0.00    -0.311 N 
ATOM     13  C   UNL     1       1.550  -2.034  -0.033  0.00  0.00    +0.046 C 
ATOM     14  H   UNL     1       2.160   3.886  -0.327  0.00  0.00    +0.149 HD
ENDROOT
BRANCH  11  15
ATOM     15  C   UNL     1       0.393   4.249   2.092  0.00  0.00    +0.148 A 
ATOM     16  C   UNL     1      -0.617   4.316   2.982  0.00  0.00    +0.049 A 
ATOM     17  C   UNL     1      -0.035   4.338   4.265  0.00  0.00    +0.050 A 
ATOM     18  C   UNL     1       1.312   4.283   4.086  0.00  0.00    +0.138 A 
ATOM     19  O   UNL     1       1.556   4.224   2.762  0.00  0.00    -0.456 OA
BRANCH  18  20
ATOM     20  C   UNL     1       2.330   4.282   5.157  0.00  0.00    +0.047 A 
ATOM     21  C   UNL     1       2.288   5.248   6.165  0.00  0.00    +0.014 A 
ATOM     22  C   UNL     1       3.239   5.238   7.164  0.00  0.00    +0.001 A 
ATOM     23  C   UNL     1       4.238   4.281   7.163  0.00  0.00    +0.002 A 
ATOM     24  C   UNL     1       4.289   3.325   6.165  0.00  0.00    +0.033 A 
ATOM     25  C   UNL     1       3.341   3.320   5.162  0.00  0.00    +0.137 A 
BRANCH  25  26
ATOM     26  N   UNL     1       3.396   2.296   4.094  0.00  0.00    +0.057 N 
ATOM     27  O   UNL     1       4.279   1.457   4.100  0.00  0.00    -0.126 OA
ATOM     28  O   UNL     1       2.559   2.293   3.209  0.00  0.00    -0.126 OA
ENDBRANCH  25  26
ENDBRANCH  18  20
ENDBRANCH  11  15
BRANCH   1  30
ATOM     29  C   UNL     1       0.793  -4.500   1.367  0.00  0.00    +0.011 C 
ATOM     30  C   UNL     1       0.479  -4.297  -0.117  0.00  0.00    -0.035 C 
ATOM     31  C   UNL     1      -0.794  -5.064  -0.479  0.00  0.00    +0.011 C 
ATOM     32  C   UNL     1       1.645  -4.817  -0.961  0.00  0.00    +0.011 C 
ENDBRANCH   1  30
BRANCH   9  33
ATOM     33  O   UNL     1      -2.453   1.822  -0.220  0.00  0.00    -0.492 OA
ATOM     34  H   UNL     1      -3.158   2.482  -0.190  0.00  0.00    +0.294 HD
ENDBRANCH   9  33
TORSDOF 5
