REMARK  Name = ZINC59020143
REMARK  7 active torsions:
REMARK  status: ('A' for Active; 'I' for Inactive)
REMARK    1  A    between atoms: C_1  and  C_2
REMARK    2  A    between atoms: C_2  and  C_22
REMARK    3  A    between atoms: N_3  and  N_4
REMARK    4  A    between atoms: C_7  and  S_10
REMARK    5  A    between atoms: S_10  and  C_11
REMARK    6  A    between atoms: C_11  and  C_12
REMARK    7  A    between atoms: N_14  and  C_15
REMARK                            x       y       z     vdW  Elec       q    Type
REMARK                         _______ _______ _______ _____ _____    ______ ____
ROOT
ATOM      1  N   UNL     1      -1.514   0.105   0.714  0.00  0.00    -0.205 N 
ATOM      2  C   UNL     1      -2.004  -0.050   1.997  0.00  0.00    +0.232 A 
ATOM      3  N   UNL     1      -1.994   0.863   2.946  0.00  0.00    -0.186 NA
ATOM      4  C   UNL     1      -2.550   0.364   4.055  0.00  0.00    +0.211 A 
ATOM      5  N   UNL     1      -2.922  -0.873   3.827  0.00  0.00    -0.144 NA
ATOM      6  N   UNL     1      -2.583  -1.163   2.496  0.00  0.00    -0.245 N 
ATOM      7  H   UNL     1      -1.571  -0.627   0.080  0.00  0.00    +0.177 HD
ATOM      8  H   UNL     1      -2.735  -1.999   2.027  0.00  0.00    +0.192 HD
ENDROOT
BRANCH   1  11
ATOM      9  C   UNL     1       0.215   2.735  -1.282  0.00  0.00    +0.068 C 
ATOM     10  C   UNL     1      -0.566   1.503  -0.904  0.00  0.00    +0.063 C 
ATOM     11  N   UNL     1      -0.935   1.321   0.328  0.00  0.00    -0.184 NA
BRANCH  10  12
ATOM     12  C   UNL     1      -0.912   0.504  -1.932  0.00  0.00    -0.003 A 
ATOM     13  C   UNL     1      -2.128  -0.180  -1.865  0.00  0.00    +0.010 A 
ATOM     14  C   UNL     1      -2.445  -1.113  -2.830  0.00  0.00    +0.001 A 
ATOM     15  C   UNL     1      -1.562  -1.372  -3.863  0.00  0.00    +0.000 A 
ATOM     16  C   UNL     1      -0.355  -0.699  -3.935  0.00  0.00    +0.001 A 
ATOM     17  C   UNL     1      -0.027   0.241  -2.981  0.00  0.00    +0.010 A 
ENDBRANCH  10  12
ENDBRANCH   1  11
BRANCH   4  18
ATOM     18  S   UNL     1      -2.750   1.230   5.577  0.00  0.00    -0.075 S 
BRANCH  18  19
ATOM     19  C   UNL     1      -3.556   0.023   6.665  0.00  0.00    +0.173 C 
BRANCH  19  20
ATOM     20  C   UNL     1      -3.788   0.643   8.019  0.00  0.00    +0.228 C 
ATOM     21  O   UNL     1      -3.444   1.787   8.229  0.00  0.00    -0.275 OA
ATOM     22  N   UNL     1      -4.379  -0.073   8.996  0.00  0.00    -0.284 N 
ATOM     23  H   UNL     1      -4.704  -0.968   8.813  0.00  0.00    +0.155 HD
BRANCH  22  24
ATOM     24  C   UNL     1      -4.523   0.476  10.276  0.00  0.00    +0.047 A 
ATOM     25  C   UNL     1      -4.618   1.852  10.437  0.00  0.00    +0.024 A 
ATOM     26  C   UNL     1      -4.761   2.390  11.701  0.00  0.00    +0.002 A 
ATOM     27  C   UNL     1      -4.809   1.560  12.806  0.00  0.00    +0.001 A 
ATOM     28  C   UNL     1      -4.715   0.189  12.650  0.00  0.00    +0.017 A 
ATOM     29  C   UNL     1      -4.578  -0.356  11.387  0.00  0.00    +0.039 A 
ATOM     30 BR   UNL     1      -4.457  -2.231  11.174  0.00  0.00    -0.048 Br
ENDBRANCH  22  24
ENDBRANCH  19  20
ENDBRANCH  18  19
ENDBRANCH   4  18
TORSDOF 6
