REMARK  Name = ZINC16101964
REMARK  7 active torsions:
REMARK  status: ('A' for Active; 'I' for Inactive)
REMARK    1  A    between atoms: C_1  and  C_2
REMARK    2  A    between atoms: C_2  and  C_13
REMARK    3  A    between atoms: N_3  and  N_4
REMARK    4  A    between atoms: C_5  and  C_7
REMARK    5  A    between atoms: C_18  and  C_37
REMARK    6  A    between atoms: C_29  and  C_36
REMARK    7  A    between atoms: C_32  and  O_35
REMARK                            x       y       z     vdW  Elec       q    Type
REMARK                         _______ _______ _______ _____ _____    ______ ____
ROOT
ATOM      1  C   UNL     1      -0.306   5.660   5.336  0.00  0.00    -0.023 C 
ATOM      2  C   UNL     1       0.447   4.635   5.747  0.00  0.00    -0.021 C 
ATOM      3  C   UNL     1      -0.429   3.425   6.022  0.00  0.00    +0.032 C 
ATOM      4  C   UNL     1      -1.695   3.701   5.149  0.00  0.00    +0.006 C 
ATOM      5  C   UNL     1      -1.750   5.234   5.299  0.00  0.00    -0.002 C 
ATOM      6  C   UNL     1      -2.551   5.916   4.218  0.00  0.00    +0.012 C 
ATOM      7  C   UNL     1      -2.084   5.492   2.827  0.00  0.00    +0.005 C 
ATOM      8  C   UNL     1      -2.247   3.972   2.706  0.00  0.00    -0.001 C 
ATOM      9  C   UNL     1      -1.323   3.301   3.719  0.00  0.00    -0.003 C 
ATOM     10  C   UNL     1      -1.425   1.780   3.584  0.00  0.00    +0.004 C 
ATOM     11  C   UNL     1      -1.029   1.361   2.167  0.00  0.00    +0.004 C 
ATOM     12  C   UNL     1      -1.971   2.026   1.160  0.00  0.00    -0.002 C 
ATOM     13  C   UNL     1      -1.857   3.546   1.288  0.00  0.00    -0.026 C 
ATOM     14  C   UNL     1      -2.793   4.216   0.281  0.00  0.00    +0.010 C 
ATOM     15  C   UNL     1      -2.405   3.792  -1.137  0.00  0.00    +0.032 C 
ATOM     16  C   UNL     1      -2.521   2.272  -1.264  0.00  0.00    +0.115 C 
ATOM     17  C   UNL     1      -1.583   1.602  -0.258  0.00  0.00    +0.035 C 
ATOM     18  C   UNL     1      -0.415   3.973   1.006  0.00  0.00    +0.012 C 
ATOM     19  C   UNL     1      -2.389   5.567   6.649  0.00  0.00    +0.016 C 
ENDROOT
BRANCH   1  21
ATOM     20  C   UNL     1       0.692   7.256   3.579  0.00  0.00    +0.067 C 
ATOM     21  C   UNL     1       0.196   6.990   4.977  0.00  0.00    +0.060 C 
ATOM     22  N   UNL     1       0.213   7.940   5.865  0.00  0.00    -0.185 NA
BRANCH  22  23
ATOM     23  N   UNL     1      -0.129   7.662   7.194  0.00  0.00    -0.203 N 
ATOM     24  C   UNL     1      -0.215   8.664   8.092  0.00  0.00    +0.263 C 
ATOM     25  O   UNL     1       0.093   9.795   7.771  0.00  0.00    -0.268 OA
ATOM     26  H   UNL     1      -0.305   6.748   7.469  0.00  0.00    +0.178 HD
BRANCH  24  27
ATOM     27  C   UNL     1      -0.683   8.387   9.469  0.00  0.00    +0.041 A 
ATOM     28  C   UNL     1      -0.947   7.079   9.889  0.00  0.00    +0.033 A 
ATOM     29  C   UNL     1      -1.378   6.866  11.183  0.00  0.00    +0.111 A 
ATOM     30  N   UNL     1      -1.551   7.874  12.014  0.00  0.00    -0.263 NA
ATOM     31  C   UNL     1      -1.319   9.122  11.658  0.00  0.00    +0.111 A 
ATOM     32  C   UNL     1      -0.881   9.426  10.384  0.00  0.00    +0.033 A 
ENDBRANCH  24  27
ENDBRANCH  22  23
ENDBRANCH   1  21
BRANCH  16  33
ATOM     33  O   UNL     1      -3.867   1.873  -0.999  0.00  0.00    -0.392 OA
ATOM     34  H   UNL     1      -4.518   2.261  -1.600  0.00  0.00    +0.210 HD
ENDBRANCH  16  33
TORSDOF 4
