REMARK  Name = ZINC20917394
REMARK  10 active torsions:
REMARK  status: ('A' for Active; 'I' for Inactive)
REMARK    1  A    between atoms: C_1  and  C_2
REMARK    2  A    between atoms: C_5  and  C_8
REMARK    3  A    between atoms: N_9  and  N_10
REMARK    4  A    between atoms: C_14  and  S_17
REMARK    5  A    between atoms: N_15  and  N_16
REMARK    6  A    between atoms: S_17  and  C_18
REMARK    7  A    between atoms: C_18  and  C_19
REMARK    8  A    between atoms: N_21  and  C_22
REMARK    9  A    between atoms: C_22  and  C_23
REMARK   10  A    between atoms: C_23  and  C_24
REMARK                            x       y       z     vdW  Elec       q    Type
REMARK                         _______ _______ _______ _____ _____    ______ ____
ROOT
ATOM      1  N   UNL     1       4.418   4.531  -0.014  0.00  0.00    -0.204 N 
ATOM      2  C   UNL     1       3.541   3.456  -0.012  0.00  0.00    +0.254 A 
ATOM      3  N   UNL     1       3.875   2.188  -0.022  0.00  0.00    -0.109 NA
ATOM      4  N   UNL     1       2.697   1.430  -0.010  0.00  0.00    -0.119 NA
ATOM      5  C   UNL     1       1.681   2.259  -0.002  0.00  0.00    +0.210 A 
ATOM      6  N   UNL     1       2.175   3.533   0.000  0.00  0.00    -0.211 N 
ATOM      7  H   UNL     1       4.027   5.559  -0.005  0.00  0.00    +0.177 HD
ENDROOT
BRANCH   6   8
ATOM      8  N   UNL     1       1.436   4.681   0.013  0.00  0.00    -0.294 N 
ATOM      9  H   UNL     1       0.337   4.627   0.022  0.00  0.00    +0.163 HD
ATOM     10  H   UNL     1       1.939   5.659   0.013  0.00  0.00    +0.163 HD
ENDBRANCH   6   8
BRANCH   1  12
ATOM     11  C   UNL     1       6.622   5.313  -0.030  0.00  0.00    +0.138 C 
ATOM     12  N   UNL     1       5.801   4.307  -0.028  0.00  0.00    -0.188 NA
BRANCH  11  17
ATOM     13  C   UNL     1      12.298   4.392  -0.085  0.00  0.00    +0.044 C 
ATOM     14  C   UNL     1      10.811   4.633  -0.070  0.00  0.00    -0.050 A 
ATOM     15  C   UNL     1      10.323   5.928  -0.059  0.00  0.00    +0.004 A 
ATOM     16  C   UNL     1       8.963   6.157  -0.046  0.00  0.00    +0.010 A 
ATOM     17  C   UNL     1       8.077   5.077  -0.044  0.00  0.00    -0.005 A 
ATOM     18  C   UNL     1       8.576   3.772  -0.050  0.00  0.00    +0.010 A 
ATOM     19  C   UNL     1       9.939   3.559  -0.068  0.00  0.00    +0.004 A 
ENDBRANCH  11  17
ENDBRANCH   1  12
BRANCH   5  20
ATOM     20  S   UNL     1      -0.022   1.810   0.012  0.00  0.00    -0.075 S 
BRANCH  20  21
ATOM     21  C   UNL     1       0.002  -0.004   0.002  0.00  0.00    +0.173 C 
BRANCH  21  22
ATOM     22  C   UNL     1      -1.412  -0.526   0.013  0.00  0.00    +0.223 C 
ATOM     23  O   UNL     1      -2.344   0.250   0.026  0.00  0.00    -0.275 OA
ATOM     24  N   UNL     1      -1.640  -1.854   0.008  0.00  0.00    -0.314 N 
ATOM     25  H   UNL     1      -0.794  -2.557  -0.004  0.00  0.00    +0.149 HD
BRANCH  24  26
ATOM     26  C   UNL     1      -3.014  -2.361   0.018  0.00  0.00    +0.109 C 
BRANCH  26  27
ATOM     27  C   UNL     1      -2.994  -3.891   0.010  0.00  0.00    +0.055 C 
BRANCH  27  28
ATOM     28  C   UNL     1      -4.407  -4.412   0.020  0.00  0.00    -0.028 A 
ATOM     29  C   UNL     1      -5.006  -4.761   1.216  0.00  0.00    +0.005 A 
ATOM     30  C   UNL     1      -6.305  -5.236   1.227  0.00  0.00    +0.000 A 
ATOM     31  C   UNL     1      -7.002  -5.371   0.040  0.00  0.00    +0.001 A 
ATOM     32  C   UNL     1      -6.402  -5.027  -1.157  0.00  0.00    +0.020 A 
ATOM     33  C   UNL     1      -5.104  -4.548  -1.167  0.00  0.00    +0.044 A 
ATOM     34 CL   UNL     1      -4.350  -4.116  -2.670  0.00  0.00    -0.083 Cl
ENDBRANCH  27  28
ENDBRANCH  26  27
ENDBRANCH  24  26
ENDBRANCH  21  22
ENDBRANCH  20  21
ENDBRANCH   5  20
TORSDOF 9
