REMARK  Name = ZINC08512498
REMARK  1 active torsions:
REMARK  status: ('A' for Active; 'I' for Inactive)
REMARK    1  A    between atoms: C_3  and  C_9
REMARK                            x       y       z     vdW  Elec       q    Type
REMARK                         _______ _______ _______ _____ _____    ______ ____
ROOT
ATOM      1  C   UNL     1       3.671   2.186  -0.023  0.00  0.00    +0.092 C 
ATOM      2  C   UNL     1       3.752   3.024   1.219  0.00  0.00    +0.042 A 
ATOM      3  C   UNL     1       4.073   2.433   2.450  0.00  0.00    +0.126 A 
ATOM      4  N   UNL     1       4.138   3.185   3.544  0.00  0.00    -0.208 NA
ATOM      5  C   UNL     1       3.902   4.493   3.491  0.00  0.00    +0.180 A 
ATOM      6  S   UNL     1       3.996   5.424   4.925  0.00  0.00    -0.011 S 
ATOM      7  N   UNL     1       3.591   5.098   2.329  0.00  0.00    -0.322 N 
ATOM      8  C   UNL     1       3.513   4.367   1.176  0.00  0.00    +0.110 A 
ATOM      9  N   UNL     1       3.201   4.974  -0.015  0.00  0.00    -0.304 N 
ATOM     10  C   UNL     1       3.495   4.368  -1.207  0.00  0.00    +0.017 C 
ATOM     11  C   UNL     1       3.727   3.041  -1.264  0.00  0.00    +0.024 C 
ATOM     12  C   UNL     1       4.026   2.411  -2.485  0.00  0.00    +0.162 C 
ATOM     13  O   UNL     1       4.248   1.217  -2.501  0.00  0.00    -0.292 OA
ATOM     14  C   UNL     1       4.075   3.188  -3.772  0.00  0.00    +0.080 C 
ATOM     15  C   UNL     1       3.135   4.393  -3.662  0.00  0.00    +0.014 C 
ATOM     16  C   UNL     1       3.554   5.222  -2.449  0.00  0.00    +0.051 C 
ATOM     17  N   UNL     1       4.321   1.079   2.526  0.00  0.00    -0.343 N 
ATOM     18  H   UNL     1       2.769   5.843  -0.013  0.00  0.00    +0.153 HD
ATOM     19  H   UNL     1       4.543   0.673   3.378  0.00  0.00    +0.144 HD
ATOM     20  H   UNL     1       4.273   0.532   1.726  0.00  0.00    +0.144 HD
ATOM     21  H   UNL     1       3.422   6.053   2.310  0.00  0.00    +0.169 HD
ENDROOT
BRANCH   1  24
ATOM     22  C   UNL     1      -0.017   1.378   0.010  0.00  0.00    +0.002 A 
ATOM     23  C   UNL     1       1.171   2.086   0.002  0.00  0.00    +0.006 A 
ATOM     24  C   UNL     1       2.378   1.413  -0.013  0.00  0.00    -0.016 A 
ATOM     25  C   UNL     1       2.398   0.030  -0.021  0.00  0.00    +0.063 A 
ATOM     26  C   UNL     1       1.209  -0.679  -0.013  0.00  0.00    +0.060 A 
ATOM     27  C   UNL     1       0.002  -0.004   0.002  0.00  0.00    +0.021 A 
ATOM     28 CL   UNL     1       1.234  -2.415  -0.023  0.00  0.00    -0.082 Cl
ATOM     29 CL   UNL     1       3.914  -0.816  -0.041  0.00  0.00    -0.082 Cl
ENDBRANCH   1  24
TORSDOF 1
