REMARK  Name = ZINC13049304
REMARK  10 active torsions:
REMARK  status: ('A' for Active; 'I' for Inactive)
REMARK    1  A    between atoms: C_1  and  C_2
REMARK    2  A    between atoms: C_8  and  N_10
REMARK    3  A    between atoms: C_14  and  C_16
REMARK    4  A    between atoms: C_16  and  S_17
REMARK    5  A    between atoms: S_17  and  C_18
REMARK    6  A    between atoms: C_22  and  C_33
REMARK    7  A    between atoms: N_28  and  C_29
REMARK    8  A    between atoms: C_29  and  C_30
REMARK    9  A    between atoms: C_30  and  C_31
REMARK   10  A    between atoms: C_30  and  C_32
REMARK                            x       y       z     vdW  Elec       q    Type
REMARK                         _______ _______ _______ _____ _____    ______ ____
ROOT
ATOM      1  C   UNL     1      -6.037   1.894   0.043  0.00  0.00    +0.173 A 
ATOM      2  N   UNL     1      -4.896   1.250   0.033  0.00  0.00    -0.223 NA
ATOM      3  C   UNL     1      -3.712   1.906   0.030  0.00  0.00    +0.080 A 
ATOM      4  C   UNL     1      -2.496   1.217   0.021  0.00  0.00    +0.043 A 
ATOM      5  C   UNL     1      -1.306   1.933   0.019  0.00  0.00    +0.065 A 
ATOM      6  C   UNL     1      -1.319   3.333   0.032  0.00  0.00    +0.016 A 
ATOM      7  C   UNL     1      -2.500   4.017   0.037  0.00  0.00    +0.016 A 
ATOM      8  C   UNL     1      -3.707   3.319   0.039  0.00  0.00    +0.065 A 
ATOM      9  C   UNL     1      -5.003   4.016   0.050  0.00  0.00    +0.262 A 
ATOM     10  O   UNL     1      -5.066   5.232   0.057  0.00  0.00    -0.267 OA
ATOM     11  N   UNL     1      -6.123   3.257   0.051  0.00  0.00    -0.287 N 
ENDROOT
BRANCH   5  12
ATOM     12  C   UNL     1      -0.014   1.210   0.009  0.00  0.00    +0.387 C 
ATOM     13  O   UNL     1       0.002  -0.004   0.002  0.00  0.00    -0.241 OA
ATOM     14  O   UNL     1       1.143   1.899   0.001  0.00  0.00    -0.241 OA
ENDBRANCH   5  12
BRANCH   1  15
ATOM     15  S   UNL     1      -7.530   0.958   0.045  0.00  0.00    -0.078 S 
BRANCH  15  16
ATOM     16  C   UNL     1      -6.850  -0.719   0.032  0.00  0.00    +0.173 C 
BRANCH  16  21
ATOM     17  N   UNL     1      -8.447  -5.253   0.013  0.00  0.00    -0.296 N 
ATOM     18  C   UNL     1      -8.716  -3.933   0.022  0.00  0.00    +0.306 C 
ATOM     19  O   UNL     1      -9.869  -3.548   0.030  0.00  0.00    -0.252 OA
ATOM     20  N   UNL     1      -7.708  -3.039   0.022  0.00  0.00    -0.239 N 
ATOM     21  C   UNL     1      -7.978  -1.719   0.031  0.00  0.00    +0.231 C 
ATOM     22  O   UNL     1      -9.128  -1.335   0.039  0.00  0.00    -0.274 OA
ATOM     23  H   UNL     1      -7.526  -5.560   0.007  0.00  0.00    +0.151 HD
ATOM     24  H   UNL     1      -6.788  -3.346   0.016  0.00  0.00    +0.159 HD
BRANCH  17  31
ATOM     25  C   UNL     1      -8.582  -7.309   2.049  0.00  0.00    +0.009 C 
ATOM     26  C   UNL     1      -9.054  -7.545   0.613  0.00  0.00    +0.006 C 
ATOM     27  C   UNL     1      -7.893  -8.086  -0.224  0.00  0.00    +0.005 C 
ATOM     28  C   UNL     1      -8.365  -8.322  -1.660  0.00  0.00    +0.000 C 
ATOM     29  C   UNL     1      -8.854  -7.002  -2.259  0.00  0.00    +0.002 C 
ATOM     30  C   UNL     1     -10.015  -6.461  -1.423  0.00  0.00    +0.022 C 
ATOM     31  C   UNL     1      -9.543  -6.225   0.013  0.00  0.00    +0.077 C 
ENDBRANCH  17  31
ENDBRANCH  16  21
ENDBRANCH  15  16
ENDBRANCH   1  15
BRANCH  11  32
ATOM     32  C   UNL     1      -7.438   3.902   0.061  0.00  0.00    +0.130 C 
BRANCH  32  33
ATOM     33  C   UNL     1      -7.904   4.134  -1.377  0.00  0.00    +0.003 C 
ATOM     34  C   UNL     1      -8.120   2.786  -2.068  0.00  0.00    +0.009 C 
ATOM     35  C   UNL     1      -9.217   4.919  -1.368  0.00  0.00    +0.009 C 
ENDBRANCH  32  33
ENDBRANCH  11  32
TORSDOF 7
