REMARK  Name = ZINC40267225
REMARK  3 active torsions:
REMARK  status: ('A' for Active; 'I' for Inactive)
REMARK    1  A    between atoms: C_4  and  C_7
REMARK    2  A    between atoms: C_12  and  C_18
REMARK    3  A    between atoms: C_21  and  C_24
REMARK                            x       y       z     vdW  Elec       q    Type
REMARK                         _______ _______ _______ _____ _____    ______ ____
ROOT
ATOM      1  C   UNL     1       3.698  -0.688  -0.038  0.00  0.00    +0.101 A 
ATOM      2  C   UNL     1       3.895  -1.845   0.715  0.00  0.00    +0.072 A 
ATOM      3  C   UNL     1       5.142  -2.389   0.577  0.00  0.00    +0.039 A 
ATOM      4  S   UNL     1       5.931  -1.373  -0.475  0.00  0.00    +0.010 S 
ATOM      5  N   UNL     1       4.710  -0.264  -0.771  0.00  0.00    -0.208 NA
ATOM      6  C   UNL     1       5.612  -3.637   1.257  0.00  0.00    +0.068 C 
ATOM      7  C   UNL     1       4.830  -3.792   2.568  0.00  0.00    +0.109 C 
ATOM      8  C   UNL     1       3.376  -3.475   2.364  0.00  0.00    +0.218 C 
ATOM      9  O   UNL     1       2.549  -4.143   2.950  0.00  0.00    -0.275 OA
ATOM     10  N   UNL     1       2.951  -2.483   1.560  0.00  0.00    -0.283 N 
ATOM     11  H   UNL     1       2.020  -2.211   1.559  0.00  0.00    +0.155 HD
ENDROOT
BRANCH   1  15
ATOM     12  C   UNL     1      -0.016   1.380   0.011  0.00  0.00    +0.000 A 
ATOM     13  C   UNL     1       0.515   0.889   1.190  0.00  0.00    +0.001 A 
ATOM     14  C   UNL     1       1.720   0.217   1.180  0.00  0.00    +0.010 A 
ATOM     15  C   UNL     1       2.402   0.033  -0.021  0.00  0.00    +0.003 A 
ATOM     16  C   UNL     1       1.863   0.530  -1.206  0.00  0.00    +0.010 A 
ATOM     17  C   UNL     1       0.657   1.201  -1.184  0.00  0.00    +0.001 A 
ENDBRANCH   1  15
BRANCH   6  18
ATOM     18  C   UNL     1       7.086  -3.531   1.552  0.00  0.00    -0.039 A 
ATOM     19  C   UNL     1       7.553  -2.517   2.368  0.00  0.00    +0.005 A 
ATOM     20  C   UNL     1       8.901  -2.414   2.642  0.00  0.00    +0.015 A 
ATOM     21  C   UNL     1       9.795  -3.337   2.093  0.00  0.00    +0.063 A 
ATOM     22  C   UNL     1       9.315  -4.359   1.270  0.00  0.00    +0.015 A 
ATOM     23  C   UNL     1       7.964  -4.453   1.009  0.00  0.00    +0.005 A 
BRANCH  21  24
ATOM     24  C   UNL     1      11.238  -3.233   2.381  0.00  0.00    +0.387 C 
ATOM     25  O   UNL     1      11.655  -2.338   3.102  0.00  0.00    -0.241 OA
ATOM     26  O   UNL     1      12.018  -4.043   1.899  0.00  0.00    -0.241 OA
ENDBRANCH  21  24
ENDBRANCH   6  18
TORSDOF 3
