REMARK  Name = ZINC16383261
REMARK  6 active torsions:
REMARK  status: ('A' for Active; 'I' for Inactive)
REMARK    1  A    between atoms: C_2  and  C_10
REMARK    2  A    between atoms: C_5  and  O_8
REMARK    3  A    between atoms: C_11  and  C_12
REMARK    4  A    between atoms: C_11  and  C_14
REMARK    5  A    between atoms: C_15  and  C_21
REMARK    6  A    between atoms: C_16  and  N_20
REMARK                            x       y       z     vdW  Elec       q    Type
REMARK                         _______ _______ _______ _____ _____    ______ ____
ROOT
ATOM      1  C   UNL     1       3.292  -1.990  -0.040  0.00  0.00    +0.029 C 
ATOM      2  C   UNL     1       1.949  -1.783  -0.125  0.00  0.00    +0.081 C 
ENDROOT
BRANCH   1   4
ATOM      3  C   UNL     1       5.085  -3.659  -0.460  0.00  0.00    +0.027 A 
ATOM      4  C   UNL     1       3.820  -3.355   0.058  0.00  0.00    -0.021 A 
ATOM      5  C   UNL     1       3.062  -4.359   0.676  0.00  0.00    +0.027 A 
ATOM      6  C   UNL     1       3.560  -5.640   0.762  0.00  0.00    +0.061 A 
ATOM      7  C   UNL     1       4.817  -5.936   0.245  0.00  0.00    +0.145 A 
ATOM      8  C   UNL     1       5.575  -4.943  -0.365  0.00  0.00    +0.061 A 
ATOM      9 BR   UNL     1       7.284  -5.355  -1.064  0.00  0.00    -0.046 Br
ATOM     10 BR   UNL     1       2.536  -6.997   1.589  0.00  0.00    -0.046 Br
BRANCH   7  11
ATOM     11  O   UNL     1       5.306  -7.200   0.337  0.00  0.00    -0.505 OA
ATOM     12  H   UNL     1       5.814  -7.368   1.143  0.00  0.00    +0.292 HD
ENDBRANCH   7  11
ENDBRANCH   1   4
BRANCH   2  13
ATOM     13  C   UNL     1       1.407  -0.407  -0.073  0.00  0.00    +0.122 A 
ATOM     14  C   UNL     1      -0.008  -0.023  -0.151  0.00  0.00    +0.119 A 
ATOM     15  C   UNL     1      -0.040   1.365  -0.060  0.00  0.00    +0.130 A 
ATOM     16  N   UNL     1       1.232   1.795   0.062  0.00  0.00    -0.263 N 
ATOM     17  H   UNL     1       1.511   2.752   0.146  0.00  0.00    +0.190 HD
ATOM     18  N   UNL     1       2.102   0.701   0.052  0.00  0.00    -0.170 NA
BRANCH  15  19
ATOM     19  N   UNL     1      -1.170   2.159  -0.096  0.00  0.00    -0.342 N 
ATOM     20  H   UNL     1      -2.045   1.753  -0.191  0.00  0.00    +0.144 HD
ATOM     21  H   UNL     1      -1.088   3.123  -0.025  0.00  0.00    +0.144 HD
ENDBRANCH  15  19
BRANCH  14  22
ATOM     22  C   UNL     1      -1.130  -0.901  -0.293  0.00  0.00    +0.105 C 
ATOM     23  N   UNL     1      -2.020  -1.598  -0.406  0.00  0.00    -0.191 NA
ENDBRANCH  14  22
ENDBRANCH   2  13
BRANCH   2  24
ATOM     24  C   UNL     1       1.060  -2.897  -0.265  0.00  0.00    +0.101 C 
ATOM     25  N   UNL     1       0.356  -3.781  -0.376  0.00  0.00    -0.191 NA
ENDBRANCH   2  24
TORSDOF 6
