REMARK  Name = ZINC35862102
REMARK  10 active torsions:
REMARK  status: ('A' for Active; 'I' for Inactive)
REMARK    1  A    between atoms: C_1  and  C_2
REMARK    2  A    between atoms: C_2  and  C_3
REMARK    3  A    between atoms: C_11  and  O_22
REMARK    4  A    between atoms: C_14  and  C_16
REMARK    5  A    between atoms: O_22  and  C_23
REMARK    6  A    between atoms: C_23  and  C_24
REMARK    7  A    between atoms: C_26  and  C_29
REMARK    8  A    between atoms: N_31  and  C_32
REMARK    9  A    between atoms: C_32  and  C_33
REMARK   10  A    between atoms: C_32  and  C_34
REMARK                            x       y       z     vdW  Elec       q    Type
REMARK                         _______ _______ _______ _____ _____    ______ ____
ROOT
ATOM      1  C   UNL     1      -1.879  -0.491  -0.944  0.00  0.00    +0.216 C 
ATOM      2  O   UNL     1      -2.898   0.157  -0.828  0.00  0.00    -0.276 OA
ATOM      3  N   UNL     1      -1.854  -1.781  -0.554  0.00  0.00    -0.290 N 
ATOM      4  C   UNL     1      -0.673  -2.628  -0.790  0.00  0.00    +0.113 C 
ATOM      5  C   UNL     1      -0.101  -3.025   0.570  0.00  0.00    +0.054 C 
ATOM      6  C   UNL     1      -1.190  -3.513   1.488  0.00  0.00    -0.040 A 
ATOM      7  C   UNL     1      -0.813  -4.296   2.574  0.00  0.00    +0.007 A 
ATOM      8  C   UNL     1      -1.756  -4.769   3.460  0.00  0.00    +0.046 A 
ATOM      9  C   UNL     1      -3.096  -4.461   3.270  0.00  0.00    +0.122 A 
ATOM     10  C   UNL     1      -3.472  -3.685   2.187  0.00  0.00    +0.051 A 
ATOM     11  C   UNL     1      -2.520  -3.215   1.294  0.00  0.00    -0.016 A 
ATOM     12  C   UNL     1      -2.998  -2.395   0.127  0.00  0.00    +0.137 C 
ENDROOT
BRANCH  12  13
ATOM     13  C   UNL     1      -3.926  -1.315   0.621  0.00  0.00    -0.023 A 
ATOM     14  C   UNL     1      -3.470  -0.370   1.520  0.00  0.00    +0.006 A 
ATOM     15  C   UNL     1      -4.322   0.621   1.973  0.00  0.00    +0.000 A 
ATOM     16  C   UNL     1      -5.629   0.665   1.526  0.00  0.00    +0.000 A 
ATOM     17  C   UNL     1      -6.085  -0.280   0.626  0.00  0.00    +0.000 A 
ATOM     18  C   UNL     1      -5.232  -1.267   0.170  0.00  0.00    +0.006 A 
ENDBRANCH  12  13
BRANCH   1  20
ATOM     19  C   UNL     1      -0.940   1.605  -1.879  0.00  0.00    +0.013 C 
ATOM     20  C   UNL     1      -0.642   0.147  -1.522  0.00  0.00    +0.092 C 
ENDBRANCH   1  20
BRANCH   9  21
ATOM     21  O   UNL     1      -4.033  -4.919   4.142  0.00  0.00    -0.483 OA
BRANCH  21  22
ATOM     22  C   UNL     1      -3.569  -5.714   5.234  0.00  0.00    +0.324 C 
BRANCH  22  23
ATOM     23  C   UNL     1      -4.740  -6.128   6.087  0.00  0.00    +0.234 A 
ATOM     24  N   UNL     1      -5.440  -7.212   5.930  0.00  0.00    -0.206 NA
ATOM     25  C   UNL     1      -6.409  -7.242   6.885  0.00  0.00    +0.164 A 
ATOM     26  C   UNL     1      -6.265  -6.117   7.637  0.00  0.00    +0.230 A 
ATOM     27  O   UNL     1      -5.222  -5.440   7.132  0.00  0.00    -0.444 OA
BRANCH  25  28
ATOM     28  C   UNL     1      -7.423  -8.296   7.070  0.00  0.00    +0.266 C 
ATOM     29  O   UNL     1      -8.239  -8.204   7.967  0.00  0.00    -0.268 OA
ATOM     30  N   UNL     1      -7.447  -9.361   6.244  0.00  0.00    -0.308 N 
ATOM     31  H   UNL     1      -6.797  -9.434   5.528  0.00  0.00    +0.149 HD
BRANCH  30  32
ATOM     32  C   UNL     1      -8.456 -10.408   6.428  0.00  0.00    +0.067 C 
ATOM     33  C   UNL     1      -9.745 -10.006   5.708  0.00  0.00    +0.027 C 
ATOM     34  C   UNL     1      -7.936 -11.724   5.846  0.00  0.00    +0.027 C 
ENDBRANCH  30  32
ENDBRANCH  25  28
ENDBRANCH  22  23
ENDBRANCH  21  22
ENDBRANCH   9  21
TORSDOF 7
