REMARK  Name = ZINC03655220
REMARK  11 active torsions:
REMARK  status: ('A' for Active; 'I' for Inactive)
REMARK    1  A    between atoms: C_1  and  C_2
REMARK    2  A    between atoms: C_2  and  C_3
REMARK    3  A    between atoms: C_3  and  S_4
REMARK    4  A    between atoms: S_4  and  C_5
REMARK    5  A    between atoms: C_18  and  C_21
REMARK    6  A    between atoms: C_22  and  O_31
REMARK    7  A    between atoms: C_24  and  O_29
REMARK    8  A    between atoms: C_26  and  O_27
REMARK    9  A    between atoms: O_27  and  C_28
REMARK   10  A    between atoms: O_29  and  C_30
REMARK   11  A    between atoms: O_31  and  C_32
REMARK                            x       y       z     vdW  Elec       q    Type
REMARK                         _______ _______ _______ _____ _____    ______ ____
ROOT
ATOM      1  C   UNL     1      -1.740  10.713   4.431  0.00  0.00    +0.212 A 
ATOM      2  N   UNL     1      -1.975   9.455   4.071  0.00  0.00    -0.184 NA
ATOM      3  C   UNL     1      -0.977   8.715   3.618  0.00  0.00    +0.248 A 
ATOM      4  C   UNL     1       0.310   9.292   3.528  0.00  0.00    +0.156 A 
ATOM      5  N   UNL     1       0.477  10.550   3.905  0.00  0.00    -0.141 NA
ATOM      6  N   UNL     1      -0.522  11.234   4.343  0.00  0.00    -0.122 NA
ATOM      7  C   UNL     1       1.437   8.485   3.016  0.00  0.00    +0.028 A 
ATOM      8  C   UNL     1       2.664   8.454   3.667  0.00  0.00    +0.012 A 
ATOM      9  C   UNL     1       3.703   7.712   3.139  0.00  0.00    +0.001 A 
ATOM     10  C   UNL     1       3.529   7.000   1.965  0.00  0.00    +0.002 A 
ATOM     11  C   UNL     1       2.311   7.016   1.310  0.00  0.00    +0.024 A 
ATOM     12  C   UNL     1       1.260   7.750   1.829  0.00  0.00    +0.039 A 
ATOM     13  N   UNL     1       0.011   7.777   1.202  0.00  0.00    -0.305 N 
ATOM     14  C   UNL     1      -1.120   7.128   1.858  0.00  0.00    +0.301 C 
ATOM     15  O   UNL     1      -1.163   7.426   3.249  0.00  0.00    -0.448 OA
ATOM     16  H   UNL     1      -0.102   8.220   0.346  0.00  0.00    +0.150 HD
ENDROOT
BRANCH  14  17
ATOM     17  C   UNL     1      -1.003   5.637   1.678  0.00  0.00    +0.094 A 
ATOM     18  C   UNL     1      -1.533   4.780   2.631  0.00  0.00    +0.135 A 
ATOM     19  C   UNL     1      -1.425   3.407   2.465  0.00  0.00    +0.092 A 
ATOM     20  C   UNL     1      -0.787   2.892   1.346  0.00  0.00    +0.127 A 
ATOM     21  C   UNL     1      -0.253   3.749   0.396  0.00  0.00    +0.092 A 
ATOM     22  C   UNL     1      -0.365   5.122   0.560  0.00  0.00    +0.135 A 
BRANCH  22  23
ATOM     23  O   UNL     1       0.154   5.962  -0.374  0.00  0.00    -0.494 OA
ATOM     24  C   UNL     1       0.797   5.362  -1.500  0.00  0.00    +0.277 C 
ENDBRANCH  22  23
BRANCH  20  25
ATOM     25  O   UNL     1      -0.682   1.547   1.184  0.00  0.00    -0.495 OA
ATOM     26  C   UNL     1      -0.013   1.086   0.008  0.00  0.00    +0.277 C 
ENDBRANCH  20  25
BRANCH  18  27
ATOM     27  O   UNL     1      -2.158   5.285   3.727  0.00  0.00    -0.494 OA
ATOM     28  C   UNL     1      -2.679   4.344   4.667  0.00  0.00    +0.277 C 
ENDBRANCH  18  27
ENDBRANCH  14  17
BRANCH   1  29
ATOM     29  S   UNL     1      -3.066  11.704   5.035  0.00  0.00    -0.084 S 
BRANCH  29  30
ATOM     30  C   UNL     1      -2.182  13.252   5.353  0.00  0.00    +0.077 C 
BRANCH  30  32
ATOM     31  C   UNL     1      -2.413  15.602   6.168  0.00  0.00    +0.004 C 
ATOM     32  C   UNL     1      -3.159  14.294   5.900  0.00  0.00    +0.008 C 
ENDBRANCH  30  32
ENDBRANCH  29  30
ENDBRANCH   1  29
TORSDOF 7
