REMARK  Name = ZINC13734567
REMARK  4 active torsions:
REMARK  status: ('A' for Active; 'I' for Inactive)
REMARK    1  A    between atoms: C_1  and  C_2
REMARK    2  A    between atoms: C_3  and  C_8
REMARK    3  A    between atoms: N_6  and  C_7
REMARK    4  A    between atoms: N_17  and  C_20
REMARK                            x       y       z     vdW  Elec       q    Type
REMARK                         _______ _______ _______ _____ _____    ______ ____
ROOT
ATOM      1  C   UNL     1       0.214  -0.372  -2.514  0.00  0.00    +0.083 C 
ATOM      2  N   UNL     1       0.155  -1.194  -3.630  0.00  0.00    -0.264 N 
ATOM      3  O   UNL     1       0.836  -0.483  -4.683  0.00  0.00    -0.256 OA
ATOM      4  C   UNL     1       0.331   0.843  -4.463  0.00  0.00    +0.272 C 
ATOM      5  C   UNL     1       0.385   0.922  -2.929  0.00  0.00    +0.081 C 
ATOM      6  H   UNL     1      -0.260  -2.069  -3.689  0.00  0.00    +0.194 HD
ATOM      7  C   UNL     1       0.681   2.268  -2.709  0.00  0.00    +0.258 C 
ATOM      8  O   UNL     1       0.381   2.900  -1.711  0.00  0.00    -0.269 OA
ATOM      9  N   UNL     1       1.350   2.759  -3.771  0.00  0.00    -0.204 N 
ATOM     10  C   UNL     1       1.262   1.950  -4.870  0.00  0.00    +0.263 C 
ATOM     11  O   UNL     1       1.806   2.090  -5.945  0.00  0.00    -0.271 OA
ENDROOT
BRANCH   9  12
ATOM     12  C   UNL     1       2.058   3.967  -3.754  0.00  0.00    +0.045 A 
ATOM     13  C   UNL     1       2.718   4.399  -4.910  0.00  0.00    +0.024 A 
ATOM     14  C   UNL     1       3.413   5.568  -4.923  0.00  0.00    +0.010 A 
ATOM     15  C   UNL     1       3.474   6.359  -3.763  0.00  0.00    -0.018 A 
ATOM     16  C   UNL     1       4.184   7.572  -3.747  0.00  0.00    +0.008 A 
ATOM     17  C   UNL     1       4.223   8.315  -2.607  0.00  0.00    +0.001 A 
ATOM     18  C   UNL     1       3.569   7.892  -1.452  0.00  0.00    +0.001 A 
ATOM     19  C   UNL     1       2.872   6.724  -1.429  0.00  0.00    +0.008 A 
ATOM     20  C   UNL     1       2.808   5.929  -2.588  0.00  0.00    -0.016 A 
ATOM     21  C   UNL     1       2.093   4.721  -2.602  0.00  0.00    +0.032 A 
ENDBRANCH   9  12
BRANCH   1  24
ATOM     22  C   UNL     1       0.073  -3.359  -1.530  0.00  0.00    +0.066 C 
ATOM     23  C   UNL     1       0.043  -2.122  -0.669  0.00  0.00    +0.045 A 
ATOM     24  C   UNL     1       0.105  -0.816  -1.112  0.00  0.00    +0.041 A 
ATOM     25  C   UNL     1       0.045   0.015   0.029  0.00  0.00    +0.144 A 
ATOM     26  N   UNL     1      -0.046  -0.750   1.082  0.00  0.00    -0.179 NA
ATOM     27  N   UNL     1      -0.055  -2.088   0.671  0.00  0.00    -0.271 N 
ATOM     28  C   UNL     1      -0.152  -3.254   1.552  0.00  0.00    +0.172 C 
ENDBRANCH   1  24
TORSDOF 2
