REMARK  Name = ZINC59248338
REMARK  5 active torsions:
REMARK  status: ('A' for Active; 'I' for Inactive)
REMARK    1  A    between atoms: C_3  and  C_8
REMARK    2  A    between atoms: C_5  and  O_7
REMARK    3  A    between atoms: N_10  and  N_11
REMARK    4  A    between atoms: C_12  and  C_13
REMARK    5  A    between atoms: C_16  and  N_18
REMARK                            x       y       z     vdW  Elec       q    Type
REMARK                         _______ _______ _______ _____ _____    ______ ____
ROOT
ATOM      1  N   UNL     1       4.840   4.235   0.070  0.00  0.00    -0.184 NA
ATOM      2  C   UNL     1       4.821   5.537   0.036  0.00  0.00    +0.176 C 
ENDROOT
BRANCH   2   3
ATOM      3  C   UNL     1       6.077   6.287  -0.002  0.00  0.00    +0.151 A 
ATOM      4  C   UNL     1       6.197   7.647  -0.035  0.00  0.00    +0.068 A 
ATOM      5  C   UNL     1       7.571   7.933  -0.063  0.00  0.00    +0.079 A 
ATOM      6  C   UNL     1       8.227   6.742  -0.046  0.00  0.00    +0.204 A 
ATOM      7  O   UNL     1       7.318   5.753  -0.004  0.00  0.00    -0.439 OA
ATOM      8 BR   UNL     1       8.362   9.650  -0.115  0.00  0.00    -0.045 Br
BRANCH   6   9
ATOM      9  N   UNL     1       9.604   6.575  -0.064  0.00  0.00    -0.296 N 
ATOM     10  C   UNL     1      10.383   6.575   1.184  0.00  0.00    +0.136 C 
ATOM     11  C   UNL     1      11.282   5.333   1.194  0.00  0.00    +0.179 C 
ATOM     12  O   UNL     1      12.032   5.286  -0.023  0.00  0.00    -0.377 OA
ATOM     13  C   UNL     1      11.230   5.159  -1.200  0.00  0.00    +0.179 C 
ATOM     14  C   UNL     1      10.328   6.386  -1.331  0.00  0.00    +0.136 C 
ENDBRANCH   6   9
ENDBRANCH   2   3
BRANCH   1  17
ATOM     15  C   UNL     1       3.658   2.170   0.142  0.00  0.00    +0.263 C 
ATOM     16  O   UNL     1       4.720   1.577   0.144  0.00  0.00    -0.268 OA
ATOM     17  N   UNL     1       3.638   3.517   0.106  0.00  0.00    -0.203 N 
ATOM     18  H   UNL     1       2.791   3.990   0.105  0.00  0.00    +0.178 HD
BRANCH  15  21
ATOM     19  C   UNL     1      -0.014   1.380   0.213  0.00  0.00    +0.004 A 
ATOM     20  C   UNL     1       1.169   2.090   0.178  0.00  0.00    +0.013 A 
ATOM     21  C   UNL     1       2.389   1.413   0.180  0.00  0.00    +0.042 A 
ATOM     22  C   UNL     1       2.407   0.018   0.217  0.00  0.00    +0.058 A 
ATOM     23  C   UNL     1       1.215  -0.685   0.251  0.00  0.00    +0.118 A 
ATOM     24  C   UNL     1       0.005  -0.002   0.249  0.00  0.00    +0.045 A 
BRANCH  23  25
ATOM     25  O   UNL     1       1.228  -2.043   0.287  0.00  0.00    -0.507 OA
ATOM     26  H   UNL     1       1.243  -2.413   1.181  0.00  0.00    +0.292 HD
ENDBRANCH  23  25
ENDBRANCH  15  21
ENDBRANCH   1  17
TORSDOF 5
