REMARK  Name = ZINC60198148
REMARK  12 active torsions:
REMARK  status: ('A' for Active; 'I' for Inactive)
REMARK    1  A    between atoms: C_1  and  C_2
REMARK    2  A    between atoms: C_4  and  C_28
REMARK    3  A    between atoms: C_6  and  N_8
REMARK    4  A    between atoms: C_9  and  C_11
REMARK    5  A    between atoms: C_11  and  N_12
REMARK    6  A    between atoms: C_17  and  C_19
REMARK    7  A    between atoms: C_19  and  N_20
REMARK    8  A    between atoms: C_21  and  O_23
REMARK    9  A    between atoms: O_23  and  C_24
REMARK   10  A    between atoms: C_24  and  C_25
REMARK   11  A    between atoms: C_24  and  C_26
REMARK   12  A    between atoms: C_24  and  C_27
REMARK                            x       y       z     vdW  Elec       q    Type
REMARK                         _______ _______ _______ _____ _____    ______ ____
ROOT
ATOM      1  N   UNL     1       0.319  -2.038   5.944  0.00  0.00    +0.388 N 
ATOM      2  C   UNL     1      -0.978  -1.377   6.131  0.00  0.00    -0.078 C 
ATOM      3  C   UNL     1      -0.843  -0.266   7.174  0.00  0.00    -0.019 C 
ATOM      4  C   UNL     1      -0.381  -0.873   8.502  0.00  0.00    -0.003 C 
ATOM      5  C   UNL     1       0.935  -1.623   8.279  0.00  0.00    -0.014 C 
ATOM      6  C   UNL     1       0.734  -2.684   7.196  0.00  0.00    -0.050 C 
ATOM      7  H   UNL     1       1.008  -1.352   5.677  0.00  0.00    -0.081 HD
ENDROOT
BRANCH   1   8
ATOM      8  C   UNL     1       0.203  -3.051   4.887  0.00  0.00    +0.019 C 
BRANCH   8  10
ATOM      9  N   UNL     1      -0.212  -3.109   2.449  0.00  0.00    -0.287 N 
ATOM     10  C   UNL     1      -0.067  -2.373   3.569  0.00  0.00    +0.201 C 
ATOM     11  O   UNL     1      -0.153  -1.165   3.515  0.00  0.00    -0.278 OA
ATOM     12  H   UNL     1      -0.218  -4.078   2.503  0.00  0.00    +0.155 HD
BRANCH   9  18
ATOM     13  C   UNL     1      -1.904  -3.174  -2.166  0.00  0.00    +0.044 C 
ATOM     14  C   UNL     1      -1.168  -2.485  -1.046  0.00  0.00    -0.048 A 
ATOM     15  C   UNL     1      -0.631  -1.226  -1.243  0.00  0.00    +0.006 A 
ATOM     16  C   UNL     1       0.045  -0.591  -0.218  0.00  0.00    -0.048 A 
ATOM     17  C   UNL     1       0.185  -1.213   1.008  0.00  0.00    +0.026 A 
ATOM     18  C   UNL     1      -0.353  -2.477   1.209  0.00  0.00    +0.034 A 
ATOM     19  C   UNL     1      -1.036  -3.110   0.179  0.00  0.00    +0.026 A 
ATOM     20  C   UNL     1       0.629   0.780  -0.438  0.00  0.00    +0.044 C 
ENDBRANCH   9  18
ENDBRANCH   8  10
ENDBRANCH   1   8
BRANCH   6  21
ATOM     21  C   UNL     1       2.046  -3.437   6.970  0.00  0.00    +0.092 C 
BRANCH  21  22
ATOM     22  N   UNL     1       3.043  -2.522   6.406  0.00  0.00    -0.283 N 
ATOM     23  C   UNL     1       4.249  -2.990   6.028  0.00  0.00    +0.401 C 
ATOM     24  O   UNL     1       4.510  -4.170   6.154  0.00  0.00    -0.226 OA
ATOM     25  H   UNL     1       2.835  -1.580   6.306  0.00  0.00    +0.152 HD
BRANCH  23  26
ATOM     26  O   UNL     1       5.165  -2.150   5.510  0.00  0.00    -0.445 OA
BRANCH  26  27
ATOM     27  C   UNL     1       6.421  -2.714   5.130  0.00  0.00    +0.107 C 
ATOM     28  C   UNL     1       6.197  -3.786   4.062  0.00  0.00    +0.055 C 
ATOM     29  C   UNL     1       7.325  -1.614   4.568  0.00  0.00    +0.055 C 
ATOM     30  C   UNL     1       7.088  -3.345   6.355  0.00  0.00    +0.055 C 
ENDBRANCH  26  27
ENDBRANCH  23  26
ENDBRANCH  21  22
ENDBRANCH   6  21
TORSDOF 7
