REMARK  Name = ZINC62378497
REMARK  5 active torsions:
REMARK  status: ('A' for Active; 'I' for Inactive)
REMARK    1  A    between atoms: C_1  and  C_2
REMARK    2  A    between atoms: C_2  and  C_3
REMARK    3  A    between atoms: C_2  and  C_4
REMARK    4  A    between atoms: N_6  and  C_7
REMARK    5  A    between atoms: C_10  and  N_13
REMARK                            x       y       z     vdW  Elec       q    Type
REMARK                         _______ _______ _______ _____ _____    ______ ____
ROOT
ATOM      1  N   UNL     1      -7.505  -2.015  -0.620  0.00  0.00    -0.269 N 
ATOM      2  C   UNL     1      -8.387  -1.750  -1.604  0.00  0.00    +0.307 C 
ATOM      3  O   UNL     1      -8.058  -1.053  -2.544  0.00  0.00    -0.252 OA
ATOM      4  N   UNL     1      -9.634  -2.259  -1.546  0.00  0.00    -0.282 N 
ATOM      5  C   UNL     1     -10.055  -2.898  -0.333  0.00  0.00    +0.113 C 
ATOM      6  C   UNL     1     -11.512  -2.701  -0.041  0.00  0.00    +0.007 C 
ATOM      7  C   UNL     1     -11.962  -1.261  -0.227  0.00  0.00    +0.008 C 
ATOM      8  C   UNL     1     -12.395  -0.921  -1.639  0.00  0.00    -0.009 C 
ATOM      9  C   UNL     1     -13.393  -1.952  -2.172  0.00  0.00    +0.007 C 
ATOM     10  C   UNL     1     -12.694  -3.314  -2.145  0.00  0.00    -0.009 C 
ATOM     11  C   UNL     1     -12.438  -3.693  -0.686  0.00  0.00    +0.008 C 
ATOM     12  C   UNL     1     -11.411  -3.297  -2.942  0.00  0.00    +0.026 C 
ATOM     13  C   UNL     1     -10.489  -2.127  -2.713  0.00  0.00    +0.078 C 
ATOM     14  C   UNL     1     -11.238  -0.804  -2.621  0.00  0.00    +0.026 C 
ATOM     15  H   UNL     1      -7.794  -2.492   0.174  0.00  0.00    +0.156 HD
ENDROOT
BRANCH   1  19
ATOM     16  C   UNL     1      -3.538  -0.787  -0.989  0.00  0.00    +0.034 A 
ATOM     17  C   UNL     1      -3.865  -1.826  -0.129  0.00  0.00    +0.025 A 
ATOM     18  C   UNL     1      -5.179  -2.233  -0.006  0.00  0.00    +0.025 A 
ATOM     19  C   UNL     1      -6.172  -1.602  -0.744  0.00  0.00    +0.035 A 
ATOM     20  C   UNL     1      -5.845  -0.563  -1.605  0.00  0.00    +0.025 A 
ATOM     21  C   UNL     1      -4.532  -0.152  -1.722  0.00  0.00    +0.025 A 
BRANCH  16  24
ATOM     22  C   UNL     1      -1.916   0.931  -1.283  0.00  0.00    +0.220 C 
ATOM     23  O   UNL     1      -2.811   1.748  -1.341  0.00  0.00    -0.275 OA
ATOM     24  N   UNL     1      -2.204  -0.374  -1.114  0.00  0.00    -0.285 N 
ATOM     25  H   UNL     1      -1.489  -1.028  -1.078  0.00  0.00    +0.155 HD
BRANCH  22  27
ATOM     26  C   UNL     1       0.168   0.696  -2.607  0.00  0.00    +0.017 C 
ATOM     27  C   UNL     1      -0.481   1.377  -1.400  0.00  0.00    +0.069 C 
ATOM     28  C   UNL     1      -0.432   2.895  -1.585  0.00  0.00    +0.017 C 
ENDBRANCH  22  27
ENDBRANCH  16  24
ENDBRANCH   1  19
TORSDOF 3
