REMARK  Name = ZINC12981550
REMARK  4 active torsions:
REMARK  status: ('A' for Active; 'I' for Inactive)
REMARK    1  A    between atoms: C_3  and  N_11
REMARK    2  A    between atoms: C_4  and  N_8
REMARK    3  A    between atoms: N_11  and  C_12
REMARK    4  A    between atoms: C_12  and  C_13
REMARK                            x       y       z     vdW  Elec       q    Type
REMARK                         _______ _______ _______ _____ _____    ______ ____
ROOT
ATOM      1  C   UNL     1       2.362   1.414   0.218  0.00  0.00    +0.040 A 
ATOM      2  C   UNL     1       1.145   2.063   0.284  0.00  0.00    +0.028 A 
ATOM      3  C   UNL     1      -0.030   1.357   0.061  0.00  0.00    +0.058 A 
ATOM      4  C   UNL     1       0.022  -0.000  -0.229  0.00  0.00    +0.150 A 
ATOM      5  C   UNL     1       1.242  -0.645  -0.295  0.00  0.00    +0.073 A 
ATOM      6  C   UNL     1       2.412   0.061  -0.071  0.00  0.00    +0.126 A 
ATOM      7  F   UNL     1       3.604  -0.572  -0.136  0.00  0.00    -0.205 F 
ENDROOT
BRANCH   4   8
ATOM      8  N   UNL     1      -1.228  -0.755  -0.467  0.00  0.00    +0.058 N 
ATOM      9  O   UNL     1      -1.335  -1.900  -0.065  0.00  0.00    -0.126 OA
ATOM     10  O   UNL     1      -2.151  -0.232  -1.066  0.00  0.00    -0.126 OA
ENDBRANCH   4   8
BRANCH   3  11
ATOM     11  N   UNL     1      -1.264   2.013   0.123  0.00  0.00    -0.342 N 
ATOM     12  H   UNL     1      -2.087   1.505   0.052  0.00  0.00    +0.146 HD
BRANCH  11  13
ATOM     13  C   UNL     1      -1.312   3.467   0.294  0.00  0.00    +0.106 C 
BRANCH  13  14
ATOM     14  C   UNL     1      -2.771   3.928   0.330  0.00  0.00    +0.028 C 
ATOM     15  C   UNL     1      -3.462   3.338   1.570  0.00  0.00    +0.029 C 
ATOM     16  C   UNL     1      -4.827   4.061   1.754  0.00  0.00    +0.166 C 
ATOM     17  S   UNL     1      -4.344   5.795   1.361  0.00  0.00    -0.031 S 
ATOM     18  O   UNL     1      -3.990   6.461   2.566  0.00  0.00    -0.174 OA
ATOM     19  O   UNL     1      -5.327   6.367   0.509  0.00  0.00    -0.174 OA
ATOM     20  C   UNL     1      -2.820   5.474   0.384  0.00  0.00    +0.171 C 
ENDBRANCH  13  14
ENDBRANCH  11  13
ENDBRANCH   3  11
TORSDOF 4
