REMARK  Name = ZINC39780806
REMARK  6 active torsions:
REMARK  status: ('A' for Active; 'I' for Inactive)
REMARK    1  A    between atoms: C_1  and  C_2
REMARK    2  A    between atoms: C_2  and  C_4
REMARK    3  A    between atoms: C_2  and  O_21
REMARK    4  A    between atoms: C_9  and  C_12
REMARK    5  A    between atoms: O_21  and  C_22
REMARK    6  A    between atoms: C_25  and  C_28
REMARK                            x       y       z     vdW  Elec       q    Type
REMARK                         _______ _______ _______ _____ _____    ______ ____
ROOT
ATOM      1  C   UNL     1       0.471  -0.567   1.127  0.00  0.00    +0.256 C 
ATOM      2  O   UNL     1       1.548  -1.125   1.145  0.00  0.00    -0.272 OA
ATOM      3  N   UNL     1      -0.229  -0.416   2.268  0.00  0.00    -0.294 N 
ATOM      4  C   UNL     1       0.235  -1.008   3.534  0.00  0.00    +0.113 C 
ATOM      5  C   UNL     1       0.515   0.132   4.516  0.00  0.00    +0.054 C 
ATOM      6  C   UNL     1      -0.610   1.125   4.499  0.00  0.00    -0.043 C 
ATOM      7  C   UNL     1      -1.495   1.231   3.515  0.00  0.00    -0.004 C 
ATOM      8  C   UNL     1      -1.482   0.352   2.300  0.00  0.00    +0.135 C 
ENDROOT
BRANCH   6   9
ATOM      9  C   UNL     1      -0.734   2.001   5.596  0.00  0.00    -0.016 C 
ATOM     10  C   UNL     1       0.154   2.155   6.653  0.00  0.00    +0.003 A 
ATOM     11  C   UNL     1       1.387   1.534   6.963  0.00  0.00    +0.010 A 
ATOM     12  C   UNL     1       2.054   1.889   8.088  0.00  0.00    +0.001 A 
ATOM     13  C   UNL     1       1.554   2.860   8.962  0.00  0.00    +0.002 A 
ATOM     14  C   UNL     1       0.381   3.496   8.730  0.00  0.00    +0.026 A 
ATOM     15  C   UNL     1      -0.377   3.179   7.571  0.00  0.00    +0.043 A 
ATOM     16  N   UNL     1      -1.524   3.644   7.126  0.00  0.00    -0.380 N 
ATOM     17  C   UNL     1      -1.860   2.975   5.866  0.00  0.00    +0.149 C 
ATOM     18  H   UNL     1      -2.061   4.325   7.562  0.00  0.00    +0.160 HD
ENDBRANCH   6   9
BRANCH   1  20
ATOM     19  C   UNL     1       0.116   1.471  -0.241  0.00  0.00    +0.062 C 
ATOM     20  C   UNL     1      -0.085  -0.044  -0.173  0.00  0.00    +0.256 C 
BRANCH  20  21
ATOM     21  O   UNL     1       0.596  -0.664  -1.266  0.00  0.00    -0.480 OA
BRANCH  21  22
ATOM     22  C   UNL     1      -0.069  -0.731  -2.448  0.00  0.00    +0.122 A 
ATOM     23  C   UNL     1       0.483  -1.430  -3.515  0.00  0.00    +0.047 A 
ATOM     24  C   UNL     1      -0.188  -1.500  -4.715  0.00  0.00    +0.022 A 
ATOM     25  C   UNL     1      -1.426  -0.868  -4.860  0.00  0.00    +0.052 A 
ATOM     26  C   UNL     1      -1.978  -0.166  -3.784  0.00  0.00    +0.022 A 
ATOM     27  C   UNL     1      -1.302  -0.105  -2.586  0.00  0.00    +0.047 A 
BRANCH  25  28
ATOM     28  C   UNL     1      -2.127  -0.939  -6.106  0.00  0.00    +0.099 C 
ATOM     29  N   UNL     1      -2.683  -0.994  -7.095  0.00  0.00    -0.191 NA
ENDBRANCH  25  28
ENDBRANCH  21  22
ENDBRANCH  20  21
ENDBRANCH   1  20
TORSDOF 5
