REMARK  Name = ZINC36543578
REMARK  8 active torsions:
REMARK  status: ('A' for Active; 'I' for Inactive)
REMARK    1  A    between atoms: C_1  and  C_2
REMARK    2  A    between atoms: C_3  and  C_4
REMARK    3  A    between atoms: C_4  and  C_6
REMARK    4  A    between atoms: C_4  and  N_15
REMARK    5  A    between atoms: N_8  and  C_9
REMARK    6  A    between atoms: N_15  and  C_16
REMARK    7  A    between atoms: C_23  and  C_25
REMARK    8  A    between atoms: C_30  and  O_31
REMARK                            x       y       z     vdW  Elec       q    Type
REMARK                         _______ _______ _______ _____ _____    ______ ____
ROOT
ATOM      1  N   UNL     1       0.849   1.557   2.360  0.00  0.00    -0.250 N 
ATOM      2  C   UNL     1       1.805   2.428   1.980  0.00  0.00    +0.255 C 
ATOM      3  O   UNL     1       2.909   2.022   1.671  0.00  0.00    -0.269 OA
ENDROOT
BRANCH   1   4
ATOM      4  C   UNL     1      -0.452   2.009   2.606  0.00  0.00    +0.056 A 
ATOM      5  C   UNL     1      -0.816   2.422   3.881  0.00  0.00    +0.025 A 
ATOM      6  C   UNL     1      -2.100   2.869   4.120  0.00  0.00    +0.002 A 
ATOM      7  C   UNL     1      -3.025   2.905   3.093  0.00  0.00    +0.002 A 
ATOM      8  C   UNL     1      -2.667   2.495   1.822  0.00  0.00    +0.022 A 
ATOM      9  C   UNL     1      -1.381   2.052   1.573  0.00  0.00    +0.062 A 
ATOM     10 CL   UNL     1      -0.930   1.543  -0.024  0.00  0.00    -0.082 Cl
ENDBRANCH   1   4
BRANCH   2  11
ATOM     11  C   UNL     1       1.512   3.873   1.941  0.00  0.00    +0.079 A 
ATOM     12  C   UNL     1       1.008   4.519   3.072  0.00  0.00    +0.017 A 
ATOM     13  C   UNL     1       0.737   5.870   3.028  0.00  0.00    +0.001 A 
ATOM     14  C   UNL     1       0.962   6.591   1.867  0.00  0.00    +0.004 A 
ATOM     15  C   UNL     1       1.460   5.965   0.742  0.00  0.00    +0.046 A 
ATOM     16  C   UNL     1       1.744   4.607   0.769  0.00  0.00    +0.129 A 
BRANCH  16  17
ATOM     17  O   UNL     1       2.239   3.992  -0.334  0.00  0.00    -0.506 OA
ATOM     18  H   UNL     1       1.560   3.639  -0.925  0.00  0.00    +0.292 HD
ENDBRANCH  16  17
ENDBRANCH   2  11
BRANCH   1  19
ATOM     19  C   UNL     1       1.172   0.137   2.515  0.00  0.00    +0.190 C 
BRANCH  19  20
ATOM     20  C   UNL     1       1.052  -0.251   3.966  0.00  0.00    +0.238 C 
ATOM     21  O   UNL     1       0.728   0.578   4.790  0.00  0.00    -0.273 OA
ATOM     22  N   UNL     1       1.304  -1.518   4.349  0.00  0.00    -0.311 N 
ATOM     23  H   UNL     1       1.563  -2.181   3.690  0.00  0.00    +0.149 HD
BRANCH  22  24
ATOM     24  C   UNL     1       1.186  -1.895   5.760  0.00  0.00    +0.073 C 
ATOM     25  C   UNL     1       2.494  -1.571   6.484  0.00  0.00    +0.022 C 
ATOM     26  C   UNL     1       2.372  -1.964   7.958  0.00  0.00    +0.002 C 
ATOM     27  C   UNL     1       2.088  -3.464   8.064  0.00  0.00    +0.000 C 
ATOM     28  C   UNL     1       0.780  -3.787   7.339  0.00  0.00    +0.002 C 
ATOM     29  C   UNL     1       0.902  -3.394   5.866  0.00  0.00    +0.022 C 
ENDBRANCH  22  24
ENDBRANCH  19  20
BRANCH  19  32
ATOM     30  C   UNL     1       2.157  -1.646   0.564  0.00  0.00    +0.035 C 
ATOM     31  C   UNL     1       0.671  -1.474   0.749  0.00  0.00    -0.032 C 
ATOM     32  C   UNL     1       0.215  -0.689   1.694  0.00  0.00    +0.000 C 
ENDBRANCH  19  32
ENDBRANCH   1  19
TORSDOF 7
