REMARK  Name = ZINC12876735
REMARK  9 active torsions:
REMARK  status: ('A' for Active; 'I' for Inactive)
REMARK    1  A    between atoms: C_1  and  C_2
REMARK    2  A    between atoms: C_5  and  C_39
REMARK    3  A    between atoms: C_9  and  C_10
REMARK    4  A    between atoms: C_9  and  N_80
REMARK    5  A    between atoms: C_10  and  C_11
REMARK    6  A    between atoms: C_11  and  O_13
REMARK    7  A    between atoms: O_13  and  C_14
REMARK    8  A    between atoms: C_20  and  C_38
REMARK    9  A    between atoms: C_31  and  C_37
REMARK                            x       y       z     vdW  Elec       q    Type
REMARK                         _______ _______ _______ _____ _____    ______ ____
ROOT
ATOM      1  C   UNL     1      -5.475  -1.354  -0.169  0.00  0.00    +0.183 C 
ATOM      2  C   UNL     1      -5.161  -2.671   0.584  0.00  0.00    +0.045 C 
ATOM      3  C   UNL     1      -3.723  -2.519   1.151  0.00  0.00    +0.008 C 
ATOM      4  C   UNL     1      -3.549  -0.999   1.241  0.00  0.00    +0.002 C 
ATOM      5  C   UNL     1      -4.202  -0.510  -0.080  0.00  0.00    +0.008 C 
ATOM      6  C   UNL     1      -4.369   0.993   0.025  0.00  0.00    +0.011 C 
ATOM      7  C   UNL     1      -2.961   1.606   0.109  0.00  0.00    +0.005 C 
ATOM      8  C   UNL     1      -2.159   1.041   1.278  0.00  0.00    -0.001 C 
ATOM      9  C   UNL     1      -2.119  -0.495   1.241  0.00  0.00    -0.004 C 
ATOM     10  C   UNL     1      -1.369  -1.009   2.470  0.00  0.00    +0.004 C 
ATOM     11  C   UNL     1       0.060  -0.461   2.465  0.00  0.00    +0.005 C 
ATOM     12  C   UNL     1       0.014   1.070   2.504  0.00  0.00    +0.002 C 
ATOM     13  C   UNL     1      -0.729   1.579   1.267  0.00  0.00    -0.025 C 
ATOM     14  C   UNL     1      -0.760   3.107   1.264  0.00  0.00    +0.015 C 
ATOM     15  C   UNL     1      -1.526   3.620   2.471  0.00  0.00    +0.075 C 
ATOM     16  C   UNL     1      -0.922   3.012   3.718  0.00  0.00    +0.134 C 
ATOM     17  O   UNL     1      -0.597   3.706   4.651  0.00  0.00    -0.297 OA
ATOM     18  C   UNL     1      -0.737   1.512   3.765  0.00  0.00    +0.078 C 
ATOM     19  C   UNL     1      -0.013   1.086   0.008  0.00  0.00    +0.012 C 
ATOM     20  C   UNL     1      -3.292  -0.847  -1.262  0.00  0.00    +0.015 C 
ENDROOT
BRANCH   1  21
ATOM     21  O   UNL     1      -6.567  -0.652   0.481  0.00  0.00    -0.461 OA
BRANCH  21  22
ATOM     22  C   UNL     1      -7.808  -0.917   0.043  0.00  0.00    +0.306 C 
ATOM     23  O   UNL     1      -7.976  -1.709  -0.854  0.00  0.00    -0.251 OA
BRANCH  22  24
ATOM     24  C   UNL     1      -8.992  -0.226   0.670  0.00  0.00    +0.102 C 
BRANCH  24  25
ATOM     25  C   UNL     1     -10.278  -0.703  -0.008  0.00  0.00    -0.068 C 
BRANCH  25  33
ATOM     26  C   UNL     1     -12.901  -0.050   4.101  0.00  0.00    +0.005 C 
ATOM     27  C   UNL     1     -12.714   0.389   2.648  0.00  0.00    -0.031 C 
ATOM     28  C   UNL     1     -14.017   0.168   1.875  0.00  0.00    +0.003 C 
ATOM     29  C   UNL     1     -13.803   0.553   0.409  0.00  0.00    -0.031 C 
ATOM     30  C   UNL     1     -12.656  -0.277  -0.170  0.00  0.00    -0.076 C 
ATOM     31  C   UNL     1     -11.598  -0.436   2.004  0.00  0.00    -0.076 C 
ATOM     32  C   UNL     1     -15.083   0.279  -0.383  0.00  0.00    +0.005 C 
ATOM     33  N   UNL     1     -11.426  -0.000   0.602  0.00  0.00    +0.380 N 
ATOM     34  H   UNL     1     -11.244   1.010   0.587  0.00  0.00    -0.082 HD
ENDBRANCH  25  33
ENDBRANCH  24  25
ENDBRANCH  22  24
ENDBRANCH  21  22
ENDBRANCH   1  21
TORSDOF 5
