REMARK  Name = ZINC05605767
REMARK  7 active torsions:
REMARK  status: ('A' for Active; 'I' for Inactive)
REMARK    1  A    between atoms: C_3  and  O_25
REMARK    2  A    between atoms: C_4  and  N_8
REMARK    3  A    between atoms: C_9  and  C_11
REMARK    4  A    between atoms: C_11  and  S_12
REMARK    5  A    between atoms: S_12  and  C_13
REMARK    6  A    between atoms: C_16  and  C_19
REMARK    7  A    between atoms: N_17  and  N_18
REMARK                            x       y       z     vdW  Elec       q    Type
REMARK                         _______ _______ _______ _____ _____    ______ ____
ROOT
ATOM      1  S   UNL     1       0.262  -1.061  -6.263  0.00  0.00    -0.075 S 
ENDROOT
BRANCH   1   2
ATOM      2  C   UNL     1       0.346   0.069  -7.613  0.00  0.00    +0.209 A 
ATOM      3  N   UNL     1       0.323   1.379  -7.537  0.00  0.00    -0.121 NA
ATOM      4  N   UNL     1       0.402   1.887  -8.715  0.00  0.00    -0.132 NA
ATOM      5  C   UNL     1       0.479   0.939  -9.606  0.00  0.00    +0.154 A 
ATOM      6  N   UNL     1       0.452  -0.253  -8.936  0.00  0.00    -0.228 N 
BRANCH   5   7
ATOM      7  C   UNL     1       0.586   1.122 -11.098  0.00  0.00    +0.059 C 
ATOM      8  C   UNL     1       1.851   1.917 -11.425  0.00  0.00    +0.011 C 
ATOM      9  C   UNL     1       1.959   2.103 -12.940  0.00  0.00    +0.001 C 
ATOM     10  C   UNL     1       0.733   2.864 -13.449  0.00  0.00    +0.000 C 
ATOM     11  C   UNL     1      -0.532   2.070 -13.121  0.00  0.00    +0.001 C 
ATOM     12  C   UNL     1      -0.640   1.883 -11.607  0.00  0.00    +0.011 C 
ENDBRANCH   5   7
BRANCH   6  13
ATOM     13  N   UNL     1       0.515  -1.505  -9.477  0.00  0.00    -0.295 N 
ATOM     14  H   UNL     1      -0.408  -1.853  -9.693  0.00  0.00    +0.163 HD
ATOM     15  H   UNL     1       1.105  -1.516 -10.295  0.00  0.00    +0.163 HD
ENDBRANCH   6  13
ENDBRANCH   1   2
BRANCH   1  16
ATOM     16  C   UNL     1       0.146   0.105  -4.884  0.00  0.00    +0.173 C 
BRANCH  16  18
ATOM     17  N   UNL     1      -0.033   0.008  -2.419  0.00  0.00    -0.282 N 
ATOM     18  C   UNL     1       0.061  -0.657  -3.587  0.00  0.00    +0.228 C 
ATOM     19  O   UNL     1       0.078  -1.870  -3.595  0.00  0.00    -0.275 OA
ATOM     20  H   UNL     1      -0.111   0.975  -2.416  0.00  0.00    +0.155 HD
BRANCH  17  24
ATOM     21  C   UNL     1       0.008  -2.087   1.188  0.00  0.00    +0.023 A 
ATOM     22  C   UNL     1       0.599  -0.839   1.112  0.00  0.00    +0.049 A 
ATOM     23  C   UNL     1       0.591  -0.141  -0.084  0.00  0.00    +0.138 A 
ATOM     24  C   UNL     1      -0.017  -0.697  -1.208  0.00  0.00    +0.077 A 
ATOM     25  C   UNL     1      -0.603  -1.951  -1.126  0.00  0.00    +0.047 A 
ATOM     26  C   UNL     1      -0.592  -2.642   0.072  0.00  0.00    +0.043 A 
ATOM     27 CL   UNL     1      -1.331  -4.210   0.175  0.00  0.00    -0.083 Cl
BRANCH  23  28
ATOM     28  O   UNL     1       1.171   1.087  -0.160  0.00  0.00    -0.505 OA
ATOM     29  H   UNL     1       2.106   1.065  -0.407  0.00  0.00    +0.292 HD
ENDBRANCH  23  28
ENDBRANCH  17  24
ENDBRANCH  16  18
ENDBRANCH   1  16
TORSDOF 7
