REMARK  Name = ZINC54726314
REMARK  9 active torsions:
REMARK  status: ('A' for Active; 'I' for Inactive)
REMARK    1  A    between atoms: C_1  and  C_2
REMARK    2  A    between atoms: C_5  and  C_29
REMARK    3  A    between atoms: N_8  and  C_10
REMARK    4  A    between atoms: C_10  and  C_11
REMARK    5  A    between atoms: C_10  and  C_12
REMARK    6  A    between atoms: C_10  and  C_13
REMARK    7  A    between atoms: C_13  and  N_14
REMARK    8  A    between atoms: N_17  and  N_18
REMARK    9  A    between atoms: C_19  and  C_21
REMARK                            x       y       z     vdW  Elec       q    Type
REMARK                         _______ _______ _______ _____ _____    ______ ____
ROOT
ATOM      1  N   UNL     1       3.386  -1.184   0.533  0.00  0.00    -0.300 N 
ATOM      2  C   UNL     1       4.650  -0.879   0.180  0.00  0.00    +0.316 C 
ATOM      3  O   UNL     1       5.376  -0.298   0.963  0.00  0.00    -0.251 OA
ATOM      4  N   UNL     1       5.110  -1.220  -1.040  0.00  0.00    -0.218 N 
ATOM      5  H   UNL     1       2.829  -1.710  -0.062  0.00  0.00    +0.150 HD
ATOM      6  H   UNL     1       6.041  -1.070  -1.268  0.00  0.00    +0.174 HD
ENDROOT
BRANCH   4   7
ATOM      7  N   UNL     1       4.242  -1.791  -1.981  0.00  0.00    -0.233 N 
ATOM      8  C   UNL     1       4.720  -2.214  -3.168  0.00  0.00    +0.234 C 
ATOM      9  O   UNL     1       5.913  -2.184  -3.388  0.00  0.00    -0.274 OA
ATOM     10  H   UNL     1       3.298  -1.882  -1.778  0.00  0.00    +0.173 HD
BRANCH   8  11
ATOM     11  C   UNL     1       3.773  -2.724  -4.223  0.00  0.00    +0.099 C 
ATOM     12  C   UNL     1       3.191  -4.079  -3.787  0.00  0.00    +0.037 C 
ATOM     13  C   UNL     1       2.479  -4.757  -4.982  0.00  0.00    +0.166 C 
ATOM     14  S   UNL     1       3.390  -4.083  -6.430  0.00  0.00    -0.030 S 
ATOM     15  O   UNL     1       2.493  -3.322  -7.228  0.00  0.00    -0.174 OA
ATOM     16  O   UNL     1       4.145  -5.127  -7.029  0.00  0.00    -0.174 OA
ATOM     17  C   UNL     1       4.539  -2.935  -5.560  0.00  0.00    +0.178 C 
ENDBRANCH   8  11
ENDBRANCH   4   7
BRANCH   1  18
ATOM     18  C   UNL     1       2.851  -0.720   1.816  0.00  0.00    +0.093 C 
BRANCH  18  19
ATOM     19  C   UNL     1       1.367  -1.081   1.911  0.00  0.00    -0.055 C 
ATOM     20  C   UNL     1       0.777  -0.481   3.189  0.00  0.00    -0.008 C 
ATOM     21  C   UNL     1       1.214  -2.603   1.944  0.00  0.00    -0.008 C 
BRANCH  19  27
ATOM     22  C   UNL     1       0.199   3.010  -0.511  0.00  0.00    +0.005 C 
ATOM     23  C   UNL     1       0.091   1.484  -0.514  0.00  0.00    -0.031 C 
ATOM     24  C   UNL     1      -1.384   1.075  -0.526  0.00  0.00    +0.003 C 
ATOM     25  C   UNL     1      -1.481  -0.452  -0.450  0.00  0.00    -0.031 C 
ATOM     26  C   UNL     1      -0.754  -0.942   0.804  0.00  0.00    -0.075 C 
ATOM     27  N   UNL     1       0.657  -0.542   0.744  0.00  0.00    +0.384 N 
ATOM     28  C   UNL     1       0.761   0.922   0.742  0.00  0.00    -0.075 C 
ATOM     29  C   UNL     1      -2.952  -0.868  -0.384  0.00  0.00    +0.005 C 
ATOM     30  H   UNL     1       1.073  -0.908  -0.100  0.00  0.00    -0.081 HD
ENDBRANCH  19  27
ENDBRANCH  18  19
ENDBRANCH   1  18
TORSDOF 5
