REMARK  Name = ZINC51649027
REMARK  8 active torsions:
REMARK  status: ('A' for Active; 'I' for Inactive)
REMARK    1  A    between atoms: C_1  and  C_2
REMARK    2  A    between atoms: C_4  and  N_23
REMARK    3  A    between atoms: C_7  and  N_8
REMARK    4  A    between atoms: N_11  and  C_12
REMARK    5  A    between atoms: C_12  and  C_14
REMARK    6  A    between atoms: C_12  and  C_15
REMARK    7  A    between atoms: C_15  and  C_16
REMARK    8  A    between atoms: C_19  and  O_22
REMARK                            x       y       z     vdW  Elec       q    Type
REMARK                         _______ _______ _______ _____ _____    ______ ____
ROOT
ATOM      1  N   UNL     1       0.024  -0.011   2.418  0.00  0.00    -0.269 N 
ATOM      2  C   UNL     1       0.123  -0.570   3.640  0.00  0.00    +0.304 C 
ATOM      3  O   UNL     1       0.320  -1.765   3.748  0.00  0.00    -0.253 OA
ATOM      4  N   UNL     1       0.005   0.195   4.744  0.00  0.00    -0.296 N 
ATOM      5  H   UNL     1      -0.077   0.950   2.331  0.00  0.00    +0.156 HD
ATOM      6  H   UNL     1      -0.152   1.149   4.658  0.00  0.00    +0.151 HD
ENDROOT
BRANCH   1  13
ATOM      7  C   UNL     1      -1.254   0.937   0.061  0.00  0.00    +0.046 C 
ATOM      8  C   UNL     1      -0.545  -0.392   0.101  0.00  0.00    -0.027 A 
ATOM      9  C   UNL     1      -0.498  -1.184  -1.029  0.00  0.00    +0.028 A 
ATOM     10  C   UNL     1       0.155  -2.408  -0.993  0.00  0.00    +0.030 A 
ATOM     11  C   UNL     1       0.762  -2.836   0.181  0.00  0.00    +0.025 A 
ATOM     12  C   UNL     1       0.716  -2.044   1.311  0.00  0.00    +0.025 A 
ATOM     13  C   UNL     1       0.067  -0.818   1.272  0.00  0.00    +0.038 A 
BRANCH  10  14
ATOM     14  N   UNL     1       0.202  -3.211  -2.138  0.00  0.00    -0.328 N 
ATOM     15  C   UNL     1       0.994  -4.442  -2.125  0.00  0.00    +0.116 C 
ATOM     16  C   UNL     1       0.060  -5.651  -2.253  0.00  0.00    +0.088 C 
ATOM     17  S   UNL     1      -0.915  -5.474  -3.778  0.00  0.00    -0.158 S 
ATOM     18  C   UNL     1      -1.658  -3.824  -3.604  0.00  0.00    +0.088 C 
ATOM     19  C   UNL     1      -0.546  -2.812  -3.331  0.00  0.00    +0.116 C 
ENDBRANCH  10  14
ENDBRANCH   1  13
BRANCH   4  20
ATOM     20  C   UNL     1       0.113  -0.413   6.072  0.00  0.00    +0.076 C 
ATOM     21  C   UNL     1      -1.250  -0.970   6.490  0.00  0.00    +0.028 C 
BRANCH  20  22
ATOM     22  C   UNL     1       0.564   0.644   7.082  0.00  0.00    +0.057 C 
BRANCH  22  23
ATOM     23  C   UNL     1       1.958   1.104   6.739  0.00  0.00    -0.045 A 
ATOM     24  C   UNL     1       3.051   0.450   7.276  0.00  0.00    +0.007 A 
ATOM     25  C   UNL     1       4.330   0.869   6.964  0.00  0.00    +0.045 A 
ATOM     26  C   UNL     1       4.516   1.948   6.111  0.00  0.00    +0.117 A 
ATOM     27  C   UNL     1       3.417   2.602   5.574  0.00  0.00    +0.045 A 
ATOM     28  C   UNL     1       2.141   2.175   5.885  0.00  0.00    +0.007 A 
BRANCH  26  29
ATOM     29  O   UNL     1       5.773   2.362   5.803  0.00  0.00    -0.507 OA
ATOM     30  H   UNL     1       6.149   1.933   5.022  0.00  0.00    +0.292 HD
ENDBRANCH  26  29
ENDBRANCH  22  23
ENDBRANCH  20  22
ENDBRANCH   4  20
TORSDOF 6
