REMARK  Name = ZINC36571440
REMARK  16 active torsions:
REMARK  status: ('A' for Active; 'I' for Inactive)
REMARK    1  A    between atoms: C_1  and  C_2
REMARK    2  A    between atoms: C_2  and  C_3
REMARK    3  A    between atoms: C_3  and  N_4
REMARK    4  A    between atoms: N_4  and  C_5
REMARK    5  A    between atoms: C_5  and  C_7
REMARK    6  A    between atoms: C_5  and  C_16
REMARK    7  A    between atoms: C_10  and  N_13
REMARK    8  A    between atoms: N_13  and  C_14
REMARK    9  A    between atoms: N_13  and  C_15
REMARK   10  A    between atoms: N_18  and  C_19
REMARK   11  A    between atoms: C_19  and  C_20
REMARK   12  A    between atoms: C_19  and  C_21
REMARK   13  A    between atoms: C_19  and  C_22
REMARK   14  A    between atoms: C_23  and  C_25
REMARK   15  A    between atoms: C_29  and  O_32
REMARK   16  A    between atoms: C_30  and  O_31
REMARK                            x       y       z     vdW  Elec       q    Type
REMARK                         _______ _______ _______ _____ _____    ______ ____
ROOT
ATOM      1  C   UNL     1      -1.456  -2.835   1.432  0.00  0.00    +0.192 C 
ENDROOT
BRANCH   1   2
ATOM      2  C   UNL     1      -0.317  -2.244   2.222  0.00  0.00    -0.018 A 
ATOM      3  C   UNL     1      -0.175  -0.871   2.306  0.00  0.00    +0.008 A 
ATOM      4  C   UNL     1       0.867  -0.325   3.029  0.00  0.00    +0.023 A 
ATOM      5  C   UNL     1       1.774  -1.157   3.673  0.00  0.00    +0.029 A 
ATOM      6  C   UNL     1       1.628  -2.536   3.587  0.00  0.00    +0.023 A 
ATOM      7  C   UNL     1       0.581  -3.075   2.867  0.00  0.00    +0.008 A 
BRANCH   5   8
ATOM      8  N   UNL     1       2.829  -0.609   4.406  0.00  0.00    -0.336 N 
ATOM      9  C   UNL     1       2.919   0.842   4.587  0.00  0.00    +0.129 C 
ATOM     10  C   UNL     1       3.846  -1.485   4.992  0.00  0.00    +0.129 C 
ENDBRANCH   5   8
ENDBRANCH   1   2
BRANCH   1  11
ATOM     11  C   UNL     1      -2.738  -2.686   2.209  0.00  0.00    +0.238 C 
ATOM     12  O   UNL     1      -3.693  -2.134   1.704  0.00  0.00    -0.273 OA
ATOM     13  N   UNL     1      -2.823  -3.165   3.466  0.00  0.00    -0.309 N 
ATOM     14  H   UNL     1      -2.060  -3.607   3.870  0.00  0.00    +0.149 HD
BRANCH  13  15
ATOM     15  C   UNL     1      -4.070  -3.020   4.222  0.00  0.00    +0.026 C 
ATOM     16  C   UNL     1      -5.203  -3.730   3.478  0.00  0.00    +0.031 C 
ATOM     17  C   UNL     1      -3.901  -3.645   5.609  0.00  0.00    +0.031 C 
ATOM     18  C   UNL     1      -4.407  -1.535   4.369  0.00  0.00    +0.031 C 
ENDBRANCH  13  15
ENDBRANCH   1  11
BRANCH   1  19
ATOM     19  N   UNL     1      -1.577  -2.134   0.151  0.00  0.00    -0.282 N 
ATOM     20  C   UNL     1      -0.636  -2.300  -0.800  0.00  0.00    +0.251 C 
ATOM     21  O   UNL     1      -0.780  -1.788  -1.893  0.00  0.00    -0.270 OA
BRANCH  20  22
ATOM     22  C   UNL     1       0.568  -3.103  -0.514  0.00  0.00    +0.082 A 
ATOM     23  C   UNL     1       0.683  -3.789   0.699  0.00  0.00    +0.017 A 
ATOM     24  C   UNL     1       1.809  -4.538   0.962  0.00  0.00    +0.005 A 
ATOM     25  C   UNL     1       2.832  -4.616   0.031  0.00  0.00    +0.049 A 
ATOM     26  C   UNL     1       2.733  -3.941  -1.174  0.00  0.00    +0.159 A 
ATOM     27  C   UNL     1       1.599  -3.186  -1.457  0.00  0.00    +0.171 A 
BRANCH  27  28
ATOM     28  O   UNL     1       1.495  -2.528  -2.640  0.00  0.00    -0.503 OA
ATOM     29  H   UNL     1       1.851  -1.629  -2.623  0.00  0.00    +0.292 HD
ENDBRANCH  27  28
BRANCH  26  30
ATOM     30  O   UNL     1       3.740  -4.022  -2.084  0.00  0.00    -0.503 OA
ATOM     31  H   UNL     1       3.647  -4.753  -2.711  0.00  0.00    +0.292 HD
ENDBRANCH  26  30
ENDBRANCH  20  22
BRANCH  19  32
ATOM     32  C   UNL     1      -2.721  -1.253  -0.096  0.00  0.00    +0.109 C 
BRANCH  32  34
ATOM     33  C   UNL     1      -5.132  -1.183  -0.747  0.00  0.00    +0.005 C 
ATOM     34  C   UNL     1      -3.901  -2.081  -0.608  0.00  0.00    +0.016 C 
ENDBRANCH  32  34
ENDBRANCH  19  32
ENDBRANCH   1  19
TORSDOF 10
