REMARK  Name = ZINC34747660
REMARK  6 active torsions:
REMARK  status: ('A' for Active; 'I' for Inactive)
REMARK    1  A    between atoms: C_1  and  C_2
REMARK    2  A    between atoms: C_2  and  N_3
REMARK    3  A    between atoms: N_21  and  C_22
REMARK    4  A    between atoms: C_22  and  C_23
REMARK    5  A    between atoms: C_26  and  C_30
REMARK    6  A    between atoms: C_28  and  C_29
REMARK                            x       y       z     vdW  Elec       q    Type
REMARK                         _______ _______ _______ _____ _____    ______ ____
ROOT
ATOM      1  N   UNL     1      -2.939   0.062   1.306  0.00  0.00    +0.382 N 
ATOM      2  C   UNL     1      -3.907  -0.983   1.666  0.00  0.00    -0.060 C 
ATOM      3  C   UNL     1      -3.580  -2.267   0.896  0.00  0.00    +0.089 C 
ATOM      4  N   UNL     1      -3.533  -1.951  -0.540  0.00  0.00    -0.304 N 
ATOM      5  C   UNL     1      -2.712  -0.810  -0.972  0.00  0.00    +0.089 C 
ATOM      6  C   UNL     1      -3.080   0.406  -0.115  0.00  0.00    -0.060 C 
ATOM      7  C   UNL     1      -4.235  -2.701  -1.450  0.00  0.00    +0.202 A 
ATOM      8  N   UNL     1      -4.937  -2.095  -2.386  0.00  0.00    -0.208 NA
ATOM      9  C   UNL     1      -5.625  -2.796  -3.280  0.00  0.00    +0.117 A 
ATOM     10  C   UNL     1      -5.641  -4.198  -3.275  0.00  0.00    +0.076 A 
ATOM     11  C   UNL     1      -6.448  -4.839  -4.326  0.00  0.00    -0.023 A 
ATOM     12  C   UNL     1      -7.085  -4.026  -5.183  0.00  0.00    -0.004 A 
ATOM     13  S   UNL     1      -6.663  -2.381  -4.656  0.00  0.00    -0.073 S 
ATOM     14  C   UNL     1      -7.872  -4.790  -6.214  0.00  0.00    +0.043 C 
ATOM     15  C   UNL     1      -7.300  -6.223  -6.154  0.00  0.00    +0.010 C 
ATOM     16  C   UNL     1      -6.767  -6.287  -4.709  0.00  0.00    +0.037 C 
ATOM     17  C   UNL     1      -4.870  -4.830  -2.249  0.00  0.00    +0.264 A 
ATOM     18  O   UNL     1      -4.825  -6.046  -2.168  0.00  0.00    -0.267 OA
ATOM     19  N   UNL     1      -4.191  -4.061  -1.376  0.00  0.00    -0.276 N 
ATOM     20  H   UNL     1      -2.004  -0.276   1.478  0.00  0.00    -0.082 HD
ENDROOT
BRANCH   1  22
ATOM     21  C   UNL     1      -2.918   0.932   3.595  0.00  0.00    -0.017 C 
ATOM     22  C   UNL     1      -3.185   1.257   2.124  0.00  0.00    -0.082 C 
ENDBRANCH   1  22
BRANCH  19  23
ATOM     23  C   UNL     1      -3.395  -4.699  -0.325  0.00  0.00    +0.163 C 
BRANCH  23  24
ATOM     24  C   UNL     1      -2.312  -5.537  -0.953  0.00  0.00    -0.025 A 
ATOM     25  C   UNL     1      -2.467  -6.908  -1.048  0.00  0.00    +0.006 A 
ATOM     26  C   UNL     1      -1.473  -7.677  -1.624  0.00  0.00    +0.004 A 
ATOM     27  C   UNL     1      -0.326  -7.076  -2.107  0.00  0.00    -0.050 A 
ATOM     28  C   UNL     1      -0.172  -5.705  -2.013  0.00  0.00    +0.007 A 
ATOM     29  C   UNL     1      -1.167  -4.936  -1.440  0.00  0.00    -0.045 A 
ATOM     30  C   UNL     1      -1.002  -3.441  -1.342  0.00  0.00    +0.044 C 
ATOM     31  C   UNL     1       0.758  -7.915  -2.734  0.00  0.00    +0.044 C 
ENDBRANCH  23  24
ENDBRANCH  19  23
TORSDOF 3
