REMARK  Name = ZINC40547694
REMARK  3 active torsions:
REMARK  status: ('A' for Active; 'I' for Inactive)
REMARK    1  A    between atoms: C_5  and  C_8
REMARK    2  A    between atoms: C_8  and  C_9
REMARK    3  A    between atoms: C_18  and  C_21
REMARK                            x       y       z     vdW  Elec       q    Type
REMARK                         _______ _______ _______ _____ _____    ______ ____
ROOT
ATOM      1  C   UNL     1      -0.457   0.900  -3.057  0.00  0.00    +0.003 C 
ATOM      2  C   UNL     1       0.694   1.859  -2.743  0.00  0.00    +0.019 C 
ATOM      3  C   UNL     1       2.028   1.130  -2.937  0.00  0.00    +0.109 C 
ATOM      4  N   UNL     1       2.021  -0.093  -2.123  0.00  0.00    -0.282 N 
ATOM      5  C   UNL     1       0.910  -1.041  -2.281  0.00  0.00    +0.088 C 
ATOM      6  C   UNL     1      -0.411  -0.288  -2.094  0.00  0.00    +0.023 C 
ATOM      7  C   UNL     1       3.016  -0.341  -1.248  0.00  0.00    +0.305 C 
ATOM      8  O   UNL     1       2.892  -1.223  -0.420  0.00  0.00    -0.252 OA
ATOM      9  N   UNL     1       4.148   0.389  -1.291  0.00  0.00    -0.285 N 
ATOM     10  C   UNL     1       4.099   1.854  -1.186  0.00  0.00    +0.109 C 
ATOM     11  C   UNL     1       5.035   2.299  -0.058  0.00  0.00    +0.020 C 
ATOM     12  C   UNL     1       6.435   1.734  -0.309  0.00  0.00    +0.016 C 
ATOM     13  C   UNL     1       6.376   0.205  -0.312  0.00  0.00    +0.092 C 
ATOM     14  C   UNL     1       5.456  -0.265  -1.437  0.00  0.00    +0.122 C 
ENDROOT
BRANCH  13  15
ATOM     15  C   UNL     1       7.760  -0.351  -0.526  0.00  0.00    +0.215 C 
ATOM     16  O   UNL     1       7.989  -1.056  -1.487  0.00  0.00    -0.276 OA
ATOM     17  N   UNL     1       8.744  -0.066   0.349  0.00  0.00    -0.329 N 
ATOM     18  H   UNL     1       8.561   0.498   1.117  0.00  0.00    +0.145 HD
ATOM     19  H   UNL     1       9.635  -0.424   0.211  0.00  0.00    +0.145 HD
ENDBRANCH  13  15
BRANCH   5  20
ATOM     20  C   UNL     1       1.026  -2.147  -1.230  0.00  0.00    +0.147 C 
BRANCH  20  21
ATOM     21  C   UNL     1       2.209  -3.023  -1.552  0.00  0.00    +0.358 C 
ATOM     22  O   UNL     1       2.896  -2.785  -2.531  0.00  0.00    -0.246 OA
ATOM     23  O   UNL     1       2.480  -3.970  -0.833  0.00  0.00    -0.246 OA
ENDBRANCH  20  21
ENDBRANCH   5  20
TORSDOF 3
