REMARK  Name = ZINC65265845
REMARK  5 active torsions:
REMARK  status: ('A' for Active; 'I' for Inactive)
REMARK    1  A    between atoms: C_1  and  C_2
REMARK    2  A    between atoms: N_4  and  C_5
REMARK    3  A    between atoms: C_5  and  C_6
REMARK    4  A    between atoms: N_23  and  C_24
REMARK    5  A    between atoms: C_24  and  C_25
REMARK                            x       y       z     vdW  Elec       q    Type
REMARK                         _______ _______ _______ _____ _____    ______ ____
ROOT
ATOM      1  C   UNL     1      -2.550  -2.680   0.012  0.00  0.00    +0.233 C 
ATOM      2  O   UNL     1      -3.482  -1.905   0.025  0.00  0.00    -0.274 OA
ATOM      3  N   UNL     1      -2.778  -4.008   0.007  0.00  0.00    -0.298 N 
ATOM      4  C   UNL     1      -1.744  -5.055  -0.002  0.00  0.00    +0.110 C 
ATOM      5  C   UNL     1      -2.471  -6.420   0.021  0.00  0.00    +0.050 C 
ATOM      6  C   UNL     1      -3.858  -6.058   0.576  0.00  0.00    +0.091 C 
ATOM      7  C   UNL     1      -4.107  -4.653   0.016  0.00  0.00    +0.137 C 
ATOM      8  C   UNL     1      -4.905  -7.030   0.150  0.00  0.00    +0.095 C 
ATOM      9  N   UNL     1      -5.988  -7.169   0.984  0.00  0.00    -0.303 N 
ATOM     10  C   UNL     1      -5.934  -8.113   2.006  0.00  0.00    +0.037 A 
ATOM     11  C   UNL     1      -7.017  -8.950   2.235  0.00  0.00    +0.023 A 
ATOM     12  C   UNL     1      -6.973  -9.877   3.257  0.00  0.00    +0.002 A 
ATOM     13  C   UNL     1      -5.842  -9.962   4.049  0.00  0.00    +0.000 A 
ATOM     14  C   UNL     1      -4.765  -9.134   3.818  0.00  0.00    +0.007 A 
ATOM     15  C   UNL     1      -4.789  -8.199   2.787  0.00  0.00    -0.012 A 
ATOM     16  C   UNL     1      -3.547  -7.367   2.595  0.00  0.00    +0.119 C 
ATOM     17  N   UNL     1      -3.838  -6.032   2.055  0.00  0.00    -0.299 NA
ATOM     18  N   UNL     1      -4.800  -7.707  -0.947  0.00  0.00    -0.371 N 
ATOM     19  H   UNL     1      -3.175  -5.351   2.395  0.00  0.00    +0.123 HD
ATOM     20  H   UNL     1      -4.024  -7.589  -1.516  0.00  0.00    +0.161 HD
ATOM     21  H   UNL     1      -6.777  -6.618   0.863  0.00  0.00    +0.153 HD
ENDROOT
BRANCH   1  22
ATOM     22  C   UNL     1      -1.136  -2.159   0.001  0.00  0.00    +0.200 C 
BRANCH  22  26
ATOM     23  C   UNL     1      -0.018   1.503   0.010  0.00  0.00    +0.109 C 
ATOM     24  C   UNL     1       0.002  -0.004   0.002  0.00  0.00    +0.210 C 
ATOM     25  O   UNL     1       1.060  -0.596  -0.011  0.00  0.00    -0.276 OA
ATOM     26  N   UNL     1      -1.156  -0.694   0.009  0.00  0.00    -0.307 N 
ATOM     27  H   UNL     1      -2.002  -0.220   0.020  0.00  0.00    +0.149 HD
ENDBRANCH  22  26
ENDBRANCH   1  22
BRANCH  18  28
ATOM     28  C   UNL     1      -5.852  -8.652  -1.328  0.00  0.00    +0.149 C 
BRANCH  28  29
ATOM     29  C   UNL     1      -5.490  -9.306  -2.636  0.00  0.00    -0.028 A 
ATOM     30  C   UNL     1      -5.887  -8.732  -3.829  0.00  0.00    +0.005 A 
ATOM     31  C   UNL     1      -5.554  -9.331  -5.030  0.00  0.00    +0.000 A 
ATOM     32  C   UNL     1      -4.825 -10.505  -5.037  0.00  0.00    +0.000 A 
ATOM     33  C   UNL     1      -4.427 -11.079  -3.844  0.00  0.00    +0.000 A 
ATOM     34  C   UNL     1      -4.756 -10.477  -2.644  0.00  0.00    +0.005 A 
ENDBRANCH  28  29
ENDBRANCH  18  28
TORSDOF 4
