REMARK  Name = ZINC16929459
REMARK  6 active torsions:
REMARK  status: ('A' for Active; 'I' for Inactive)
REMARK    1  A    between atoms: C_3  and  O_25
REMARK    2  A    between atoms: C_4  and  O_24
REMARK    3  A    between atoms: C_6  and  C_7
REMARK    4  A    between atoms: N_11  and  C_15
REMARK    5  A    between atoms: C_18  and  O_23
REMARK    6  A    between atoms: C_19  and  C_21
REMARK                            x       y       z     vdW  Elec       q    Type
REMARK                         _______ _______ _______ _____ _____    ______ ____
ROOT
ATOM      1  C   UNL     1      -0.106  -7.192  -2.160  0.00  0.00    +0.028 C 
ATOM      2  C   UNL     1       0.009  -6.294  -1.149  0.00  0.00    +0.078 C 
ATOM      3  C   UNL     1       0.237  -4.837  -1.205  0.00  0.00    +0.263 C 
ATOM      4  O   UNL     1       0.354  -4.248  -2.264  0.00  0.00    -0.269 OA
ATOM      5  N   UNL     1       0.312  -4.203  -0.046  0.00  0.00    -0.224 N 
ATOM      6  C   UNL     1       0.175  -4.858   1.125  0.00  0.00    +0.125 C 
ATOM      7  S   UNL     1       0.234  -4.221   2.713  0.00  0.00    -0.027 S 
ATOM      8  S   UNL     1      -0.080  -6.551   0.618  0.00  0.00    -0.061 S 
ENDROOT
BRANCH   1  14
ATOM      9  C   UNL     1      -0.761  -9.509  -2.776  0.00  0.00    +0.012 A 
ATOM     10  C   UNL     1      -0.817 -10.857  -2.495  0.00  0.00    +0.050 A 
ATOM     11  C   UNL     1      -0.286 -11.345  -1.309  0.00  0.00    +0.158 A 
ATOM     12  C   UNL     1       0.307 -10.475  -0.395  0.00  0.00    +0.159 A 
ATOM     13  C   UNL     1       0.372  -9.123  -0.670  0.00  0.00    +0.057 A 
ATOM     14  C   UNL     1      -0.168  -8.629  -1.864  0.00  0.00    -0.020 A 
BRANCH  12  15
ATOM     15  O   UNL     1       0.826 -10.958   0.765  0.00  0.00    -0.503 OA
ATOM     16  H   UNL     1       1.757 -11.213   0.704  0.00  0.00    +0.292 HD
ENDBRANCH  12  15
BRANCH  11  17
ATOM     17  O   UNL     1      -0.344 -12.675  -1.039  0.00  0.00    -0.503 OA
ATOM     18  H   UNL     1       0.420 -13.175  -1.357  0.00  0.00    +0.292 HD
ENDBRANCH  11  17
ENDBRANCH   1  14
BRANCH   5  19
ATOM     19  C   UNL     1       0.532  -2.818  -0.035  0.00  0.00    +0.044 A 
ATOM     20  C   UNL     1      -0.486  -1.956   0.360  0.00  0.00    +0.027 A 
ATOM     21  C   UNL     1      -0.278  -0.593   0.380  0.00  0.00    +0.048 A 
ATOM     22  C   UNL     1       0.948  -0.070  -0.006  0.00  0.00    +0.131 A 
ATOM     23  C   UNL     1       1.979  -0.931  -0.406  0.00  0.00    +0.106 A 
ATOM     24  C   UNL     1       1.761  -2.311  -0.418  0.00  0.00    +0.042 A 
BRANCH  23  25
ATOM     25  C   UNL     1       3.286  -0.384  -0.812  0.00  0.00    +0.390 C 
ATOM     26  O   UNL     1       3.472   0.817  -0.801  0.00  0.00    -0.240 OA
ATOM     27  O   UNL     1       4.275  -1.215  -1.196  0.00  0.00    -0.240 OA
ENDBRANCH  23  25
BRANCH  22  28
ATOM     28  O   UNL     1       1.150   1.272   0.009  0.00  0.00    -0.506 OA
ATOM     29  H   UNL     1       0.928   1.713  -0.822  0.00  0.00    +0.292 HD
ENDBRANCH  22  28
ENDBRANCH   5  19
TORSDOF 6
