REMARK  Name = ZINC16027898
REMARK  15 active torsions:
REMARK  status: ('A' for Active; 'I' for Inactive)
REMARK    1  A    between atoms: C_1  and  C_2
REMARK    2  A    between atoms: C_2  and  C_3
REMARK    3  A    between atoms: C_13  and  O_41
REMARK    4  A    between atoms: C_17  and  C_40
REMARK    5  A    between atoms: C_22  and  C_39
REMARK    6  A    between atoms: C_25  and  C_38
REMARK    7  A    between atoms: C_26  and  C_28
REMARK    8  A    between atoms: C_28  and  C_29
REMARK    9  A    between atoms: C_29  and  C_30
REMARK   10  A    between atoms: C_30  and  C_32
REMARK   11  A    between atoms: C_30  and  C_33
REMARK   12  A    between atoms: C_33  and  N_34
REMARK   13  A    between atoms: C_35  and  C_37
REMARK   14  A    between atoms: O_41  and  C_42
REMARK   15  A    between atoms: C_42  and  C_44
REMARK                            x       y       z     vdW  Elec       q    Type
REMARK                         _______ _______ _______ _____ _____    ______ ____
ROOT
ATOM      1  C   UNL     1       2.210   7.905   5.899  0.00  0.00    +0.117 C 
ATOM      2  C   UNL     1       2.239   6.365   5.713  0.00  0.00    +0.053 C 
ATOM      3  C   UNL     1       1.448   6.157   4.422  0.00  0.00    +0.003 C 
ATOM      4  C   UNL     1       1.478   4.823   3.747  0.00  0.00    +0.000 C 
ATOM      5  C   UNL     1       2.865   4.250   3.506  0.00  0.00    +0.031 C 
ATOM      6  C   UNL     1       2.728   2.921   2.812  0.00  0.00    -0.027 C 
ATOM      7  C   UNL     1       1.735   2.640   2.033  0.00  0.00    -0.064 C 
ATOM      8  C   UNL     1       1.732   1.289   1.337  0.00  0.00    +0.075 C 
ATOM      9  C   UNL     1       0.333   0.688   1.497  0.00  0.00    +0.180 C 
ATOM     10  C   UNL     1      -0.423   1.411   2.610  0.00  0.00    +0.046 C 
ATOM     11  C   UNL     1      -0.707   2.861   2.230  0.00  0.00    +0.015 C 
ATOM     12  C   UNL     1       0.577   3.562   1.762  0.00  0.00    -0.008 C 
ATOM     13  C   UNL     1       0.692   4.913   2.430  0.00  0.00    +0.003 C 
ATOM     14  C   UNL     1       1.163   6.053   1.552  0.00  0.00    +0.005 C 
ATOM     15  C   UNL     1       1.062   7.394   2.304  0.00  0.00    +0.008 C 
ATOM     16  C   UNL     1       1.928   7.330   3.546  0.00  0.00    -0.019 C 
ATOM     17  C   UNL     1       1.724   8.497   4.533  0.00  0.00    +0.068 C 
ATOM     18  C   UNL     1       2.729   9.601   4.296  0.00  0.00    -0.028 C 
ATOM     19  C   UNL     1       3.704   9.464   5.171  0.00  0.00    +0.098 C 
ATOM     20  O   UNL     1       3.554   8.397   5.989  0.00  0.00    -0.489 OA
ATOM     21  C   UNL     1       2.628  10.693   3.258  0.00  0.00    +0.043 C 
ATOM     22  C   UNL     1       3.403   7.260   3.162  0.00  0.00    +0.012 C 
ATOM     23  C   UNL     1       0.457   3.739   0.246  0.00  0.00    +0.016 C 
ENDROOT
BRANCH   1  25
ATOM     24  C   UNL     1       1.885   7.712   8.369  0.00  0.00    +0.008 C 
ATOM     25  C   UNL     1       1.339   8.334   7.082  0.00  0.00    +0.045 C 
ENDBRANCH   1  25
BRANCH  19  26
ATOM     26  C   UNL     1       4.870  10.415   5.253  0.00  0.00    +0.074 C 
BRANCH  26  27
ATOM     27  C   UNL     1       4.585  11.481   6.313  0.00  0.00    +0.012 C 
BRANCH  27  28
ATOM     28  C   UNL     1       5.769  12.447   6.396  0.00  0.00    +0.003 C 
ATOM     29  C   UNL     1       5.897  13.212   5.077  0.00  0.00    +0.009 C 
BRANCH  28  30
ATOM     30  C   UNL     1       5.541  13.437   7.540  0.00  0.00    +0.107 C 
BRANCH  30  31
ATOM     31  N   UNL     1       6.726  14.284   7.696  0.00  0.00    -0.315 N 
ATOM     32  C   UNL     1       6.752  15.236   8.650  0.00  0.00    +0.210 C 
ATOM     33  O   UNL     1       5.795  15.392   9.378  0.00  0.00    -0.276 OA
ATOM     34  C   UNL     1       7.971  16.108   8.811  0.00  0.00    +0.109 C 
ATOM     35  H   UNL     1       7.491  14.160   7.114  0.00  0.00    +0.149 HD
ENDBRANCH  30  31
ENDBRANCH  28  30
ENDBRANCH  27  28
ENDBRANCH  26  27
ENDBRANCH  19  26
BRANCH   9  36
ATOM     36  O   UNL     1       0.442  -0.725   1.824  0.00  0.00    -0.461 OA
BRANCH  36  37
ATOM     37  C   UNL     1       0.472  -1.588   0.797  0.00  0.00    +0.304 C 
ATOM     38  O   UNL     1       0.408  -1.179  -0.338  0.00  0.00    -0.251 OA
ATOM     39  C   UNL     1       0.583  -3.068   1.058  0.00  0.00    +0.136 C 
ENDBRANCH  36  37
ENDBRANCH   9  36
TORSDOF 8
