REMARK  Name = ZINC09122744
REMARK  14 active torsions:
REMARK  status: ('A' for Active; 'I' for Inactive)
REMARK    1  A    between atoms: C_1  and  C_2
REMARK    2  A    between atoms: C_2  and  N_64
REMARK    3  A    between atoms: C_3  and  C_4
REMARK    4  A    between atoms: C_3  and  N_64
REMARK    5  A    between atoms: C_5  and  C_6
REMARK    6  A    between atoms: C_5  and  N_64
REMARK    7  A    between atoms: C_6  and  N_7
REMARK    8  A    between atoms: C_8  and  C_23
REMARK    9  A    between atoms: C_11  and  C_12
REMARK   10  A    between atoms: C_11  and  O_18
REMARK   11  A    between atoms: C_26  and  O_29
REMARK   12  A    between atoms: O_29  and  C_30
REMARK   13  A    between atoms: C_30  and  C_31
REMARK   14  A    between atoms: C_30  and  C_32
REMARK                            x       y       z     vdW  Elec       q    Type
REMARK                         _______ _______ _______ _____ _____    ______ ____
ROOT
ATOM      1  N   UNL     1      -2.929   5.671   3.336  0.00  0.00    -0.285 N 
ATOM      2  C   UNL     1      -2.521   6.683   4.314  0.00  0.00    +0.144 C 
ATOM      3  C   UNL     1      -3.751   7.025   5.122  0.00  0.00    +0.071 C 
ATOM      4  C   UNL     1      -3.837   7.933   6.157  0.00  0.00    +0.133 C 
ATOM      5  C   UNL     1      -4.790   6.232   4.606  0.00  0.00    +0.249 C 
ATOM      6  O   UNL     1      -5.943   6.223   4.997  0.00  0.00    -0.282 OA
ATOM      7  C   UNL     1      -4.237   5.411   3.495  0.00  0.00    +0.288 C 
ATOM      8  O   UNL     1      -4.875   4.619   2.832  0.00  0.00    -0.266 OA
ENDROOT
BRANCH   4   9
ATOM      9  C   UNL     1      -5.149   8.258   6.745  0.00  0.00    +0.017 A 
ATOM     10  C   UNL     1      -6.215   8.632   5.920  0.00  0.00    +0.011 A 
ATOM     11  C   UNL     1      -7.440   8.931   6.476  0.00  0.00    +0.001 A 
ATOM     12  C   UNL     1      -7.614   8.872   7.848  0.00  0.00    +0.000 A 
ATOM     13  C   UNL     1      -6.563   8.508   8.672  0.00  0.00    +0.001 A 
ATOM     14  C   UNL     1      -5.333   8.201   8.130  0.00  0.00    +0.011 A 
ENDBRANCH   4   9
BRANCH   2  15
ATOM     15  C   UNL     1      -2.012   7.911   3.605  0.00  0.00    -0.022 A 
ATOM     16  C   UNL     1      -2.646   8.361   2.462  0.00  0.00    +0.009 A 
ATOM     17  C   UNL     1      -2.185   9.490   1.813  0.00  0.00    +0.046 A 
ATOM     18  C   UNL     1      -1.077  10.166   2.303  0.00  0.00    +0.121 A 
ATOM     19  C   UNL     1      -0.438   9.709   3.447  0.00  0.00    +0.046 A 
ATOM     20  C   UNL     1      -0.907   8.583   4.095  0.00  0.00    +0.009 A 
BRANCH  18  21
ATOM     21  O   UNL     1      -0.618  11.274   1.664  0.00  0.00    -0.489 OA
BRANCH  21  22
ATOM     22  C   UNL     1       0.474  11.968   2.271  0.00  0.00    +0.167 C 
ATOM     23  C   UNL     1       1.216  12.780   1.208  0.00  0.00    +0.051 C 
ATOM     24  C   UNL     1      -0.059  12.909   3.353  0.00  0.00    +0.051 C 
ENDBRANCH  21  22
ENDBRANCH  18  21
ENDBRANCH   2  15
BRANCH   4  25
ATOM     25  O   UNL     1      -2.720   8.522   6.633  0.00  0.00    -0.506 OA
ATOM     26  H   UNL     1      -2.962   9.147   7.375  0.00  0.00    +0.292 HD
ENDBRANCH   4  25
BRANCH   1  27
ATOM     27  C   UNL     1      -2.053   5.049   2.340  0.00  0.00    +0.090 C 
BRANCH  27  28
ATOM     28  C   UNL     1      -1.419   3.789   2.934  0.00  0.00    -0.060 C 
BRANCH  28  29
ATOM     29  N   UNL     1      -0.556   3.162   1.911  0.00  0.00    +0.380 N 
ATOM     30  H   UNL     1      -1.096   3.044   1.046  0.00  0.00    -0.082 HD
BRANCH  29  32
ATOM     31  C   UNL     1      -1.250   0.838   2.214  0.00  0.00    -0.017 C 
ATOM     32  C   UNL     1      -0.102   1.835   2.378  0.00  0.00    -0.082 C 
ENDBRANCH  29  32
BRANCH  29  33
ATOM     33  C   UNL     1       0.610   4.027   1.635  0.00  0.00    -0.082 C 
ATOM     34  C   UNL     1       1.218   3.616   0.292  0.00  0.00    -0.017 C 
ENDBRANCH  29  33
ENDBRANCH  28  29
ENDBRANCH  27  28
ENDBRANCH   1  27
TORSDOF 10
