REMARK  Name = ZINC39666557
REMARK  8 active torsions:
REMARK  status: ('A' for Active; 'I' for Inactive)
REMARK    1  A    between atoms: C_1  and  C_2
REMARK    2  A    between atoms: C_7  and  C_8
REMARK    3  A    between atoms: C_12  and  C_21
REMARK    4  A    between atoms: N_23  and  C_24
REMARK    5  A    between atoms: C_24  and  C_25
REMARK    6  A    between atoms: C_25  and  C_27
REMARK    7  A    between atoms: C_25  and  O_28
REMARK    8  A    between atoms: O_28  and  C_29
REMARK                            x       y       z     vdW  Elec       q    Type
REMARK                         _______ _______ _______ _____ _____    ______ ____
ROOT
ATOM      1  C   UNL     1       0.118   0.142   2.334  0.00  0.00    +0.247 C 
ATOM      2  O   UNL     1      -0.022   1.347   2.263  0.00  0.00    -0.270 OA
ATOM      3  N   UNL     1       0.322  -0.444   3.530  0.00  0.00    -0.296 N 
ATOM      4  C   UNL     1       0.603  -1.873   3.807  0.00  0.00    +0.121 C 
ATOM      5  C   UNL     1       1.657  -1.852   4.936  0.00  0.00    +0.100 C 
ATOM      6  C   UNL     1       1.462  -0.493   5.630  0.00  0.00    -0.004 C 
ATOM      7  C   UNL     1       0.322   0.197   4.867  0.00  0.00    +0.115 C 
ATOM      8  C   UNL     1       2.736   0.339   5.528  0.00  0.00    -0.010 C 
ATOM      9  C   UNL     1       2.537   1.662   6.274  0.00  0.00    -0.082 C 
ATOM     10  N   UNL     1       2.217   1.389   7.681  0.00  0.00    +0.379 N 
ATOM     11  C   UNL     1       0.942   0.668   7.774  0.00  0.00    -0.082 C 
ATOM     12  C   UNL     1       1.074  -0.697   7.091  0.00  0.00    -0.010 C 
ATOM     13  H   UNL     1       2.950   0.827   8.088  0.00  0.00    -0.086 HD
ATOM     14  H   UNL     1       2.147   2.261   8.184  0.00  0.00    -0.086 HD
ENDROOT
BRANCH   1  21
ATOM     15  C   UNL     1      -2.150   0.371   0.554  0.00  0.00    +0.044 C 
ATOM     16  C   UNL     1      -1.024  -0.580   0.241  0.00  0.00    -0.038 A 
ATOM     17  C   UNL     1      -1.066  -1.347  -0.906  0.00  0.00    +0.007 A 
ATOM     18  C   UNL     1      -0.033  -2.220  -1.196  0.00  0.00    +0.038 A 
ATOM     19  C   UNL     1       1.049  -2.332  -0.337  0.00  0.00    +0.124 A 
ATOM     20  C   UNL     1       1.102  -1.569   0.814  0.00  0.00    +0.051 A 
ATOM     21  C   UNL     1       0.066  -0.682   1.107  0.00  0.00    +0.043 A 
ATOM     22  F   UNL     1       2.054  -3.187  -0.627  0.00  0.00    -0.205 F 
ENDBRANCH   1  21
BRANCH   5  23
ATOM     23  C   UNL     1       1.409  -2.979   5.906  0.00  0.00    +0.218 C 
ATOM     24  O   UNL     1       0.274  -3.333   6.147  0.00  0.00    -0.275 OA
ATOM     25  N   UNL     1       2.448  -3.594   6.504  0.00  0.00    -0.312 N 
ATOM     26  H   UNL     1       3.356  -3.312   6.310  0.00  0.00    +0.149 HD
BRANCH  25  27
ATOM     27  C   UNL     1       2.208  -4.690   7.446  0.00  0.00    +0.148 C 
BRANCH  27  28
ATOM     28  C   UNL     1       3.545  -5.209   7.977  0.00  0.00    +0.187 C 
ATOM     29  C   UNL     1       3.294  -6.353   8.961  0.00  0.00    +0.053 C 
BRANCH  28  30
ATOM     30  O   UNL     1       4.339  -5.683   6.888  0.00  0.00    -0.486 OA
BRANCH  30  31
ATOM     31  C   UNL     1       5.687  -5.689   7.063  0.00  0.00    +0.139 A 
ATOM     32  C   UNL     1       6.229  -5.360   8.297  0.00  0.00    +0.047 A 
ATOM     33  C   UNL     1       7.599  -5.367   8.473  0.00  0.00    +0.004 A 
ATOM     34  C   UNL     1       8.431  -5.701   7.420  0.00  0.00    +0.002 A 
ATOM     35  C   UNL     1       7.894  -6.029   6.189  0.00  0.00    +0.023 A 
ATOM     36  C   UNL     1       6.523  -6.029   6.009  0.00  0.00    +0.083 A 
ATOM     37 CL   UNL     1       5.849  -6.448   4.465  0.00  0.00    -0.080 Cl
ENDBRANCH  30  31
ENDBRANCH  28  30
ENDBRANCH  27  28
ENDBRANCH  25  27
ENDBRANCH   5  23
TORSDOF 6
