REMARK  Name = ZINC10386381
REMARK  8 active torsions:
REMARK  status: ('A' for Active; 'I' for Inactive)
REMARK    1  A    between atoms: C_1  and  C_2
REMARK    2  A    between atoms: N_13  and  C_14
REMARK    3  A    between atoms: C_14  and  C_15
REMARK    4  A    between atoms: C_15  and  C_17
REMARK    5  A    between atoms: C_15  and  O_27
REMARK    6  A    between atoms: C_17  and  O_18
REMARK    7  A    between atoms: O_18  and  C_19
REMARK    8  A    between atoms: N_34  and  C_35
REMARK                            x       y       z     vdW  Elec       q    Type
REMARK                         _______ _______ _______ _____ _____    ______ ____
ROOT
ATOM      1  C   UNL     1      -4.381  -2.629   3.735  0.00  0.00    +0.009 C 
ATOM      2  C   UNL     1      -3.432  -2.204   2.614  0.00  0.00    +0.003 C 
ATOM      3  C   UNL     1      -4.147  -2.320   1.265  0.00  0.00    +0.006 C 
ATOM      4  C   UNL     1      -3.210  -1.836   0.155  0.00  0.00    +0.019 C 
ATOM      5  C   UNL     1      -2.786  -0.394   0.446  0.00  0.00    +0.108 C 
ATOM      6  N   UNL     1      -2.106  -0.336   1.746  0.00  0.00    -0.301 N 
ATOM      7  C   UNL     1      -3.001  -0.751   2.833  0.00  0.00    +0.111 C 
ATOM      8  C   UNL     1      -1.597   0.921   1.979  0.00  0.00    +0.201 A 
ATOM      9  N   UNL     1      -2.106   1.806   2.812  0.00  0.00    -0.196 NA
ATOM     10  C   UNL     1      -1.371   2.919   2.800  0.00  0.00    +0.170 A 
ATOM     11  C   UNL     1      -0.325   2.721   1.905  0.00  0.00    +0.153 A 
ATOM     12  N   UNL     1      -0.490   1.443   1.387  0.00  0.00    -0.304 N 
ATOM     13  C   UNL     1       0.606   3.755   1.696  0.00  0.00    +0.280 A 
ATOM     14  O   UNL     1       1.527   3.604   0.913  0.00  0.00    -0.265 OA
ATOM     15  N   UNL     1       0.470   4.912   2.376  0.00  0.00    -0.273 N 
ATOM     16  H   UNL     1       1.133   5.647   2.233  0.00  0.00    +0.173 HD
ATOM     17  C   UNL     1      -0.541   5.091   3.243  0.00  0.00    +0.331 A 
ATOM     18  O   UNL     1      -0.632   6.148   3.838  0.00  0.00    -0.246 OA
ATOM     19  N   UNL     1      -1.457   4.130   3.468  0.00  0.00    -0.280 N 
ATOM     20  C   UNL     1      -2.545   4.364   4.421  0.00  0.00    +0.155 C 
ENDROOT
BRANCH  12  21
ATOM     21  C   UNL     1       0.367   0.782   0.400  0.00  0.00    +0.160 C 
BRANCH  21  22
ATOM     22  C   UNL     1       1.401  -0.086   1.121  0.00  0.00    +0.172 C 
BRANCH  22  23
ATOM     23  O   UNL     1       2.276   0.749   1.881  0.00  0.00    -0.387 OA
ATOM     24  H   UNL     1       2.712   1.438   1.362  0.00  0.00    +0.210 HD
ENDBRANCH  22  23
BRANCH  22  25
ATOM     25  C   UNL     1       2.213  -0.873   0.090  0.00  0.00    +0.262 C 
BRANCH  25  26
ATOM     26  O   UNL     1       3.098  -1.769   0.765  0.00  0.00    -0.488 OA
BRANCH  26  27
ATOM     27  C   UNL     1       3.898  -2.548  -0.011  0.00  0.00    +0.139 A 
ATOM     28  C   UNL     1       3.827  -2.455  -1.393  0.00  0.00    +0.048 A 
ATOM     29  C   UNL     1       4.644  -3.245  -2.180  0.00  0.00    +0.023 A 
ATOM     30  C   UNL     1       5.524  -4.135  -1.590  0.00  0.00    +0.043 A 
ATOM     31  C   UNL     1       5.593  -4.233  -0.212  0.00  0.00    +0.043 A 
ATOM     32  C   UNL     1       4.781  -3.441   0.579  0.00  0.00    +0.084 A 
ATOM     33 CL   UNL     1       4.868  -3.564   2.309  0.00  0.00    -0.080 Cl
ATOM     34 CL   UNL     1       6.544  -5.130  -2.582  0.00  0.00    -0.083 Cl
ENDBRANCH  26  27
ENDBRANCH  25  26
ENDBRANCH  22  25
ENDBRANCH  21  22
ENDBRANCH  12  21
TORSDOF 6
