REMARK  Name = ZINC37558791
REMARK  4 active torsions:
REMARK  status: ('A' for Active; 'I' for Inactive)
REMARK    1  A    between atoms: C_5  and  N_8
REMARK    2  A    between atoms: N_8  and  S_9
REMARK    3  A    between atoms: S_9  and  C_12
REMARK    4  A    between atoms: C_17  and  N_18
REMARK                            x       y       z     vdW  Elec       q    Type
REMARK                         _______ _______ _______ _____ _____    ______ ____
ROOT
ATOM      1  S   UNL     1      -0.182  -2.932  -0.013  0.00  0.00    +0.096 S 
ATOM      2  O   UNL     1      -0.801  -2.676   1.241  0.00  0.00    -0.148 OA
ATOM      3  O   UNL     1      -0.826  -2.661  -1.250  0.00  0.00    -0.148 OA
ENDROOT
BRANCH   1   4
ATOM      4  C   UNL     1       0.236  -4.644  -0.027  0.00  0.00    +0.166 A 
ATOM      5  C   UNL     1      -0.023  -5.563   0.994  0.00  0.00    +0.133 A 
ATOM      6  N   UNL     1       0.432  -6.732   0.620  0.00  0.00    -0.304 N 
ATOM      7  H   UNL     1       1.410  -7.307  -1.173  0.00  0.00    +0.188 HD
ATOM      8  N   UNL     1       0.998  -6.598  -0.655  0.00  0.00    -0.286 N 
ATOM      9  C   UNL     1       0.862  -5.308  -1.037  0.00  0.00    +0.137 A 
ATOM     10  H   UNL     1       0.386  -7.551   1.137  0.00  0.00    +0.186 HD
BRANCH   9  11
ATOM     11  N   UNL     1       1.289  -4.758  -2.243  0.00  0.00    -0.342 N 
ATOM     12  H   UNL     1       1.147  -3.816  -2.424  0.00  0.00    +0.144 HD
ATOM     13  H   UNL     1       1.728  -5.318  -2.902  0.00  0.00    +0.144 HD
ENDBRANCH   9  11
ENDBRANCH   1   4
BRANCH   1  14
ATOM     14  N   UNL     1       1.239  -2.082  -0.022  0.00  0.00    -0.094 NA
BRANCH  14  19
ATOM     15  C   UNL     1      -0.017   1.379   0.010  0.00  0.00    +0.078 A 
ATOM     16  C   UNL     1       1.173   2.088   0.002  0.00  0.00    +0.127 A 
ATOM     17  C   UNL     1       2.382   1.416  -0.013  0.00  0.00    +0.055 A 
ATOM     18  C   UNL     1       2.407   0.033  -0.022  0.00  0.00    +0.048 A 
ATOM     19  C   UNL     1       1.216  -0.681  -0.014  0.00  0.00    +0.123 A 
ATOM     20  C   UNL     1       0.002  -0.004   0.002  0.00  0.00    +0.152 A 
ATOM     21  F   UNL     1      -1.158  -0.696   0.009  0.00  0.00    -0.203 F 
ATOM     22 BR   UNL     1       4.060  -0.884  -0.044  0.00  0.00    -0.048 Br
ATOM     23  F   UNL     1       1.152   3.439   0.009  0.00  0.00    -0.205 F 
ENDBRANCH  14  19
ENDBRANCH   1  14
TORSDOF 4
