REMARK  Name = ZINC64480246
REMARK  6 active torsions:
REMARK  status: ('A' for Active; 'I' for Inactive)
REMARK    1  A    between atoms: C_1  and  N_2
REMARK    2  A    between atoms: C_9  and  N_13
REMARK    3  A    between atoms: C_14  and  C_16
REMARK    4  A    between atoms: N_18  and  C_19
REMARK    5  A    between atoms: C_19  and  C_20
REMARK    6  A    between atoms: C_20  and  C_21
REMARK                            x       y       z     vdW  Elec       q    Type
REMARK                         _______ _______ _______ _____ _____    ______ ____
ROOT
ATOM      1  C   UNL     1       2.897  -4.146  -2.458  0.00  0.00    +0.299 C 
ATOM      2  O   UNL     1       2.212  -4.162  -3.459  0.00  0.00    -0.265 OA
ATOM      3  N   UNL     1       4.105  -4.744  -2.458  0.00  0.00    -0.307 N 
ATOM      4  H   UNL     1       4.653  -4.731  -1.658  0.00  0.00    +0.149 HD
ENDROOT
BRANCH   1   6
ATOM      5  N   UNL     1       1.196  -2.864  -1.224  0.00  0.00    -0.292 N 
ATOM      6  C   UNL     1       2.403  -3.462  -1.224  0.00  0.00    +0.300 C 
ATOM      7  O   UNL     1       3.089  -3.446  -0.223  0.00  0.00    -0.265 OA
ATOM      8  H   UNL     1       0.647  -2.877  -2.024  0.00  0.00    +0.150 HD
BRANCH   5  17
ATOM      9  C   UNL     1      -0.018   1.461   0.010  0.00  0.00    +0.138 C 
ATOM     10  N   UNL     1       0.002  -0.004   0.002  0.00  0.00    -0.272 N 
ATOM     11  C   UNL     1      -1.146  -0.797   0.003  0.00  0.00    +0.041 A 
ATOM     12  C   UNL     1      -2.495  -0.448   0.012  0.00  0.00    +0.024 A 
ATOM     13  C   UNL     1      -3.464  -1.429   0.011  0.00  0.00    +0.002 A 
ATOM     14  C   UNL     1      -3.107  -2.765   0.002  0.00  0.00    +0.000 A 
ATOM     15  C   UNL     1      -1.769  -3.120  -0.007  0.00  0.00    +0.008 A 
ATOM     16  C   UNL     1      -0.800  -2.143  -0.007  0.00  0.00    +0.003 A 
ATOM     17  C   UNL     1       0.711  -2.193  -0.015  0.00  0.00    +0.192 C 
ATOM     18  C   UNL     1       1.128  -0.738  -0.013  0.00  0.00    +0.244 C 
ATOM     19  O   UNL     1       2.264  -0.314  -0.022  0.00  0.00    -0.273 OA
ENDBRANCH   5  17
ENDBRANCH   1   6
BRANCH   3  20
ATOM     20  C   UNL     1       4.590  -5.415  -3.668  0.00  0.00    +0.109 C 
BRANCH  20  21
ATOM     21  C   UNL     1       5.975  -6.007  -3.402  0.00  0.00    +0.052 C 
BRANCH  21  22
ATOM     22  C   UNL     1       6.474  -6.696  -4.646  0.00  0.00    -0.040 C 
ATOM     23  C   UNL     1       7.282  -6.174  -5.596  0.00  0.00    +0.000 A 
ATOM     24  C   UNL     1       7.914  -4.859  -5.751  0.00  0.00    +0.030 A 
ATOM     25  C   UNL     1       8.688  -4.626  -6.836  0.00  0.00    +0.042 A 
ATOM     26  C   UNL     1       8.901  -5.608  -7.815  0.00  0.00    +0.022 A 
ATOM     27  C   UNL     1       8.354  -6.840  -7.741  0.00  0.00    +0.027 A 
ATOM     28  C   UNL     1       7.523  -7.194  -6.643  0.00  0.00    +0.043 A 
ATOM     29  N   UNL     1       6.888  -8.303  -6.350  0.00  0.00    -0.380 N 
ATOM     30  C   UNL     1       6.177  -8.114  -5.080  0.00  0.00    +0.144 C 
ATOM     31 CL   UNL     1       9.438  -3.071  -7.023  0.00  0.00    -0.084 Cl
ATOM     32  H   UNL     1       6.890  -9.114  -6.882  0.00  0.00    +0.160 HD
ENDBRANCH  21  22
ENDBRANCH  20  21
ENDBRANCH   3  20
TORSDOF 5
