REMARK  Name = ZINC12158339
REMARK  8 active torsions:
REMARK  status: ('A' for Active; 'I' for Inactive)
REMARK    1  A    between atoms: C_1  and  C_2
REMARK    2  A    between atoms: C_2  and  C_3
REMARK    3  A    between atoms: C_2  and  C_4
REMARK    4  A    between atoms: C_4  and  C_5
REMARK    5  A    between atoms: C_5  and  C_7
REMARK    6  A    between atoms: C_5  and  N_10
REMARK    7  A    between atoms: C_11  and  C_13
REMARK    8  A    between atoms: C_17  and  C_18
REMARK                            x       y       z     vdW  Elec       q    Type
REMARK                         _______ _______ _______ _____ _____    ______ ____
ROOT
ATOM      1  C   UNL     1       5.313  -2.950  -2.929  0.00  0.00    +0.078 A 
ATOM      2  C   UNL     1       3.956  -2.933  -3.324  0.00  0.00    +0.148 A 
ATOM      3  N   UNL     1       3.310  -2.133  -2.523  0.00  0.00    -0.171 NA
ATOM      4  N   UNL     1       4.208  -1.604  -1.589  0.00  0.00    -0.201 N 
ATOM      5  C   UNL     1       5.433  -2.103  -1.846  0.00  0.00    +0.063 A 
ATOM      6  C   UNL     1       3.891  -0.708  -0.568  0.00  0.00    +0.252 A 
ATOM      7  N   UNL     1       4.867  -0.194   0.163  0.00  0.00    -0.219 NA
ATOM      8  C   UNL     1       4.613   0.652   1.151  0.00  0.00    +0.120 A 
ATOM      9  C   UNL     1       3.301   0.995   1.410  0.00  0.00    -0.003 A 
ATOM     10  C   UNL     1       2.295   0.453   0.607  0.00  0.00    +0.080 A 
ATOM     11  N   UNL     1       2.621  -0.395  -0.359  0.00  0.00    -0.210 NA
ATOM     12  C   UNL     1       0.892   0.850   0.860  0.00  0.00    +0.004 A 
ATOM     13  C   UNL     1      -0.115  -0.100   0.987  0.00  0.00    +0.010 A 
ATOM     14  C   UNL     1      -1.409   0.306   1.247  0.00  0.00    +0.001 A 
ATOM     15  C   UNL     1      -1.697   1.650   1.402  0.00  0.00    +0.000 A 
ATOM     16  C   UNL     1      -0.698   2.599   1.276  0.00  0.00    +0.004 A 
ATOM     17  C   UNL     1       0.594   2.207   0.995  0.00  0.00    -0.038 A 
ATOM     18  C   UNL     1       1.687   3.223   0.812  0.00  0.00    +0.036 C 
ATOM     19  C   UNL     1       2.585   3.301   2.043  0.00  0.00    +0.009 C 
ATOM     20  C   UNL     1       2.933   1.903   2.548  0.00  0.00    +0.039 C 
ENDROOT
BRANCH   1  22
ATOM     21  N   UNL     1       6.137  -4.509  -4.622  0.00  0.00    -0.300 N 
ATOM     22  C   UNL     1       6.399  -3.721  -3.561  0.00  0.00    +0.248 C 
ATOM     23  O   UNL     1       7.532  -3.647  -3.123  0.00  0.00    -0.270 OA
ATOM     24  H   UNL     1       5.234  -4.567  -4.971  0.00  0.00    +0.150 HD
BRANCH  21  25
ATOM     25  C   UNL     1       7.216  -5.276  -5.250  0.00  0.00    +0.159 C 
BRANCH  25  26
ATOM     26  C   UNL     1       7.932  -4.408  -6.253  0.00  0.00    +0.231 C 
ATOM     27  O   UNL     1       7.576  -3.261  -6.426  0.00  0.00    -0.274 OA
ATOM     28  N   UNL     1       8.968  -4.905  -6.957  0.00  0.00    -0.328 N 
ATOM     29  H   UNL     1       9.253  -5.822  -6.818  0.00  0.00    +0.145 HD
ATOM     30  H   UNL     1       9.429  -4.347  -7.602  0.00  0.00    +0.145 HD
ENDBRANCH  25  26
BRANCH  25  31
ATOM     31  C   UNL     1       6.628  -6.497  -5.960  0.00  0.00    +0.034 C 
BRANCH  31  33
ATOM     32  C   UNL     1       5.313  -8.597  -5.643  0.00  0.00    +0.007 C 
ATOM     33  C   UNL     1       6.010  -7.439  -4.926  0.00  0.00    -0.015 C 
ATOM     34  C   UNL     1       7.110  -7.991  -4.016  0.00  0.00    +0.007 C 
ENDBRANCH  31  33
ENDBRANCH  25  31
ENDBRANCH  21  25
ENDBRANCH   1  22
BRANCH   5  35
ATOM     35  C   UNL     1       6.699  -1.796  -1.089  0.00  0.00    +0.039 C 
ATOM     36  C   UNL     1       7.553  -2.980  -0.631  0.00  0.00    +0.010 C 
ATOM     37  C   UNL     1       6.746  -2.178   0.392  0.00  0.00    +0.010 C 
ENDBRANCH   5  35
TORSDOF 6
