REMARK  Name = ZINC41618071
REMARK  10 active torsions:
REMARK  status: ('A' for Active; 'I' for Inactive)
REMARK    1  A    between atoms: C_1  and  C_2
REMARK    2  A    between atoms: C_2  and  O_3
REMARK    3  A    between atoms: O_3  and  C_4
REMARK    4  A    between atoms: C_5  and  O_25
REMARK    5  A    between atoms: C_7  and  C_11
REMARK    6  A    between atoms: N_13  and  C_14
REMARK    7  A    between atoms: C_19  and  C_20
REMARK    8  A    between atoms: C_20  and  C_21
REMARK    9  A    between atoms: N_23  and  C_24
REMARK   10  A    between atoms: O_25  and  C_26
REMARK                            x       y       z     vdW  Elec       q    Type
REMARK                         _______ _______ _______ _____ _____    ______ ____
ROOT
ATOM      1  C   UNL     1       1.147  -6.035   1.762  0.00  0.00    +0.248 C 
ATOM      2  O   UNL     1       0.284  -6.656   2.352  0.00  0.00    -0.270 OA
ATOM      3  N   UNL     1       2.208  -6.683   1.242  0.00  0.00    -0.281 N 
ATOM      4  H   UNL     1       2.854  -6.201   0.703  0.00  0.00    +0.155 HD
ENDROOT
BRANCH   1   8
ATOM      5  C   UNL     1       0.821  -1.818   1.337  0.00  0.00    +0.180 A 
ATOM      6  C   UNL     1      -0.170  -2.527   2.014  0.00  0.00    +0.164 A 
ATOM      7  C   UNL     1      -0.067  -3.897   2.153  0.00  0.00    +0.062 A 
ATOM      8  C   UNL     1       1.032  -4.571   1.615  0.00  0.00    +0.042 A 
ATOM      9  C   UNL     1       2.023  -3.856   0.938  0.00  0.00    +0.037 A 
ATOM     10  C   UNL     1       1.912  -2.488   0.797  0.00  0.00    +0.087 A 
ATOM     11 CL   UNL     1       3.140  -1.602  -0.051  0.00  0.00    -0.080 Cl
BRANCH   6  12
ATOM     12  O   UNL     1      -1.239  -1.868   2.537  0.00  0.00    -0.491 OA
ATOM     13  C   UNL     1      -2.217  -2.657   3.218  0.00  0.00    +0.277 C 
ENDBRANCH   6  12
BRANCH   5  14
ATOM     14  O   UNL     1       0.718  -0.471   1.200  0.00  0.00    -0.487 OA
BRANCH  14  16
ATOM     15  C   UNL     1       0.017   1.543   0.064  0.00  0.00    +0.048 C 
ATOM     16  C   UNL     1       0.031   0.013   0.045  0.00  0.00    +0.226 C 
ENDBRANCH  14  16
ENDBRANCH   5  14
ENDBRANCH   1   8
BRANCH   3  17
ATOM     17  C   UNL     1       2.376  -8.051   1.480  0.00  0.00    +0.037 A 
ATOM     18  C   UNL     1       1.812  -8.637   2.606  0.00  0.00    +0.023 A 
ATOM     19  C   UNL     1       1.981  -9.988   2.838  0.00  0.00    +0.002 A 
ATOM     20  C   UNL     1       2.710 -10.757   1.950  0.00  0.00    +0.000 A 
ATOM     21  C   UNL     1       3.273 -10.178   0.828  0.00  0.00    +0.006 A 
ATOM     22  C   UNL     1       3.103  -8.828   0.587  0.00  0.00    -0.017 A 
BRANCH  22  23
ATOM     23  C   UNL     1       3.712  -8.198  -0.639  0.00  0.00    +0.132 C 
BRANCH  23  24
ATOM     24  C   UNL     1       5.052  -7.606  -0.288  0.00  0.00    +0.217 C 
ATOM     25  O   UNL     1       5.472  -7.688   0.847  0.00  0.00    -0.275 OA
ATOM     26  N   UNL     1       5.784  -6.986  -1.234  0.00  0.00    -0.318 N 
ATOM     27  C   UNL     1       7.087  -6.410  -0.892  0.00  0.00    +0.128 C 
ATOM     28  H   UNL     1       5.448  -6.921  -2.142  0.00  0.00    +0.148 HD
ENDBRANCH  23  24
ENDBRANCH  22  23
ENDBRANCH   3  17
TORSDOF 7
