REMARK  Name = ZINC39154517
REMARK  12 active torsions:
REMARK  status: ('A' for Active; 'I' for Inactive)
REMARK    1  A    between atoms: C_1  and  C_2
REMARK    2  A    between atoms: C_2  and  O_3
REMARK    3  A    between atoms: O_3  and  C_4
REMARK    4  A    between atoms: C_4  and  C_6
REMARK    5  A    between atoms: C_8  and  C_40
REMARK    6  A    between atoms: C_10  and  C_38
REMARK    7  A    between atoms: C_12  and  N_15
REMARK    8  A    between atoms: C_16  and  C_18
REMARK    9  A    between atoms: C_18  and  S_19
REMARK   10  A    between atoms: S_19  and  C_20
REMARK   11  A    between atoms: C_23  and  C_32
REMARK   12  A    between atoms: C_24  and  C_26
REMARK                            x       y       z     vdW  Elec       q    Type
REMARK                         _______ _______ _______ _____ _____    ______ ____
ROOT
ATOM      1  S   UNL     1       7.434  -7.398  -3.571  0.00  0.00    -0.079 S 
ENDROOT
BRANCH   1   2
ATOM      2  C   UNL     1       8.531  -8.366  -2.589  0.00  0.00    +0.168 A 
ATOM      3  N   UNL     1       9.696  -8.922  -3.023  0.00  0.00    -0.332 N 
ATOM      4  H   UNL     1      10.066  -8.858  -3.917  0.00  0.00    +0.168 HD
ATOM      5  C   UNL     1      10.251  -9.596  -1.951  0.00  0.00    +0.075 A 
ATOM      6  C   UNL     1       9.385  -9.418  -0.890  0.00  0.00    +0.098 A 
ATOM      7  N   UNL     1       8.358  -8.660  -1.322  0.00  0.00    -0.221 NA
BRANCH   6   8
ATOM      8  C   UNL     1       9.557  -9.958   0.479  0.00  0.00    +0.002 A 
ATOM      9  C   UNL     1      10.808  -9.921   1.094  0.00  0.00    +0.010 A 
ATOM     10  C   UNL     1      10.962 -10.426   2.369  0.00  0.00    +0.001 A 
ATOM     11  C   UNL     1       9.879 -10.968   3.037  0.00  0.00    +0.000 A 
ATOM     12  C   UNL     1       8.635 -11.008   2.432  0.00  0.00    +0.001 A 
ATOM     13  C   UNL     1       8.467 -10.501   1.159  0.00  0.00    +0.010 A 
ENDBRANCH   6   8
BRANCH   5  14
ATOM     14  C   UNL     1      11.517 -10.354  -1.942  0.00  0.00    +0.000 A 
ATOM     15  C   UNL     1      11.563 -11.636  -1.389  0.00  0.00    +0.010 A 
ATOM     16  C   UNL     1      12.749 -12.340  -1.384  0.00  0.00    +0.001 A 
ATOM     17  C   UNL     1      13.892 -11.778  -1.926  0.00  0.00    +0.000 A 
ATOM     18  C   UNL     1      13.854 -10.508  -2.475  0.00  0.00    +0.001 A 
ATOM     19  C   UNL     1      12.673  -9.796  -2.492  0.00  0.00    +0.010 A 
ENDBRANCH   5  14
ENDBRANCH   1   2
BRANCH   1  20
ATOM     20  C   UNL     1       6.097  -6.955  -2.427  0.00  0.00    +0.173 C 
BRANCH  20  22
ATOM     21  N   UNL     1       3.987  -5.665  -2.495  0.00  0.00    -0.302 N 
ATOM     22  C   UNL     1       5.076  -6.114  -3.150  0.00  0.00    +0.224 C 
ATOM     23  O   UNL     1       5.235  -5.840  -4.321  0.00  0.00    -0.275 OA
ATOM     24  H   UNL     1       3.860  -5.884  -1.558  0.00  0.00    +0.150 HD
BRANCH  21  28
ATOM     25  C   UNL     1       1.154  -2.779  -2.874  0.00  0.00    +0.161 C 
ATOM     26  C   UNL     1       0.557  -4.178  -3.123  0.00  0.00    +0.029 C 
ATOM     27  C   UNL     1       1.547  -5.316  -2.878  0.00  0.00    +0.126 C 
ATOM     28  C   UNL     1       2.995  -4.848  -3.197  0.00  0.00    +0.149 C 
ATOM     29  S   UNL     1       2.925  -3.130  -2.513  0.00  0.00    -0.122 S 
ATOM     30  C   UNL     1       0.076  -4.255  -4.574  0.00  0.00    +0.010 C 
BRANCH  25  31
ATOM     31  C   UNL     1       0.490  -2.120  -1.693  0.00  0.00    +0.321 C 
ATOM     32  O   UNL     1       0.100  -2.791  -0.767  0.00  0.00    -0.250 OA
BRANCH  31  33
ATOM     33  O   UNL     1       0.332  -0.787  -1.669  0.00  0.00    -0.464 OA
BRANCH  33  35
ATOM     34  C   UNL     1      -0.396   1.290  -0.671  0.00  0.00    +0.048 C 
ATOM     35  C   UNL     1      -0.305  -0.230  -0.518  0.00  0.00    +0.229 C 
ENDBRANCH  33  35
ENDBRANCH  31  33
ENDBRANCH  25  31
BRANCH  27  36
ATOM     36  C   UNL     1       1.471  -5.732  -1.468  0.00  0.00    +0.069 C 
ATOM     37  N   UNL     1       1.413  -6.053  -0.380  0.00  0.00    -0.196 NA
ENDBRANCH  27  36
ENDBRANCH  21  28
ENDBRANCH  20  22
ENDBRANCH   1  20
TORSDOF 10
