REMARK  Name = ZINC45582938
REMARK  6 active torsions:
REMARK  status: ('A' for Active; 'I' for Inactive)
REMARK    1  A    between atoms: C_1  and  N_2
REMARK    2  A    between atoms: N_2  and  C_3
REMARK    3  A    between atoms: C_3  and  C_5
REMARK    4  A    between atoms: C_3  and  C_17
REMARK    5  A    between atoms: C_5  and  S_6
REMARK    6  A    between atoms: S_6  and  C_7
REMARK                            x       y       z     vdW  Elec       q    Type
REMARK                         _______ _______ _______ _____ _____    ______ ____
ROOT
ATOM      1  C   UNL     1       0.821  -2.001  -1.155  0.00  0.00    +0.071 C 
ENDROOT
BRANCH   1   2
ATOM      2  C   UNL     1       0.690  -0.478  -1.207  0.00  0.00    +0.026 C 
BRANCH   2   3
ATOM      3  C   UNL     1      -0.106  -0.083  -2.424  0.00  0.00    +0.197 C 
ATOM      4  O   UNL     1      -1.143   0.532  -2.298  0.00  0.00    -0.278 OA
ATOM      5  N   UNL     1       0.336  -0.414  -3.654  0.00  0.00    -0.331 N 
ATOM      6  H   UNL     1       1.166  -0.906  -3.755  0.00  0.00    +0.145 HD
ATOM      7  H   UNL     1      -0.176  -0.160  -4.438  0.00  0.00    +0.145 HD
ENDBRANCH   2   3
BRANCH   2   9
ATOM      8  C   UNL     1      -0.018   1.465   0.010  0.00  0.00    -0.099 C 
ATOM      9  N   UNL     1       0.002  -0.004   0.002  0.00  0.00    +0.385 N 
ATOM     10  H   UNL     1       0.490  -0.338   0.820  0.00  0.00    -0.085 HD
ATOM     11  H   UNL     1      -0.945  -0.353   0.009  0.00  0.00    -0.085 HD
ENDBRANCH   2   9
ENDBRANCH   1   2
BRANCH   1  12
ATOM     12  S   UNL     1       1.778  -2.476   0.311  0.00  0.00    -0.087 S 
BRANCH  12  13
ATOM     13  C   UNL     1       1.839  -4.235   0.229  0.00  0.00    +0.192 A 
ATOM     14  N   UNL     1       1.306  -4.995  -0.703  0.00  0.00    -0.123 NA
ATOM     15  N   UNL     1       1.552  -6.233  -0.451  0.00  0.00    -0.134 NA
ATOM     16  C   UNL     1       2.251  -6.334   0.640  0.00  0.00    +0.134 A 
ATOM     17  N   UNL     1       2.452  -5.068   1.113  0.00  0.00    -0.306 N 
ATOM     18  C   UNL     1       3.168  -4.699   2.334  0.00  0.00    +0.125 C 
ATOM     19  C   UNL     1       4.228  -5.761   2.640  0.00  0.00    +0.022 C 
ATOM     20  C   UNL     1       3.621  -6.859   3.510  0.00  0.00    +0.002 C 
ATOM     21  C   UNL     1       2.476  -7.553   2.780  0.00  0.00    +0.008 C 
ATOM     22  C   UNL     1       2.767  -7.596   1.282  0.00  0.00    +0.076 C 
ENDBRANCH  12  13
ENDBRANCH   1  12
TORSDOF 5
