REMARK  Name = ZINC39983032
REMARK  8 active torsions:
REMARK  status: ('A' for Active; 'I' for Inactive)
REMARK    1  A    between atoms: C_1  and  C_2
REMARK    2  A    between atoms: C_5  and  S_8
REMARK    3  A    between atoms: S_8  and  N_11
REMARK    4  A    between atoms: N_11  and  C_12
REMARK    5  A    between atoms: C_12  and  C_13
REMARK    6  A    between atoms: N_15  and  C_16
REMARK    7  A    between atoms: C_18  and  C_29
REMARK    8  A    between atoms: C_21  and  C_28
REMARK                            x       y       z     vdW  Elec       q    Type
REMARK                         _______ _______ _______ _____ _____    ______ ____
ROOT
ATOM      1  C   UNL     1       5.870  -6.036   1.972  0.00  0.00    +0.191 C 
ATOM      2  C   UNL     1       6.428  -6.464   3.316  0.00  0.00    -0.002 C 
ATOM      3  C   UNL     1       7.780  -6.202   3.554  0.00  0.00    +0.002 A 
ATOM      4  C   UNL     1       8.380  -6.568   4.777  0.00  0.00    +0.013 A 
ATOM      5  C   UNL     1       9.698  -6.302   4.982  0.00  0.00    -0.050 A 
ATOM      6  C   UNL     1      10.472  -5.676   4.008  0.00  0.00    +0.005 A 
ATOM      7  C   UNL     1       9.949  -5.300   2.808  0.00  0.00    +0.024 A 
ATOM      8  C   UNL     1       8.593  -5.542   2.526  0.00  0.00    +0.041 A 
ATOM      9  N   UNL     1       8.081  -5.173   1.347  0.00  0.00    -0.283 N 
ATOM     10  C   UNL     1       6.822  -5.365   1.008  0.00  0.00    +0.242 C 
ATOM     11  O   UNL     1       6.425  -5.002  -0.084  0.00  0.00    -0.273 OA
ATOM     12  C   UNL     1      10.335  -6.694   6.291  0.00  0.00    +0.044 C 
ATOM     13  H   UNL     1       8.668  -4.739   0.708  0.00  0.00    +0.155 HD
ENDROOT
BRANCH   2  14
ATOM     14  C   UNL     1       5.614  -7.099   4.287  0.00  0.00    -0.019 A 
ATOM     15  C   UNL     1       5.353  -6.468   5.514  0.00  0.00    +0.008 A 
ATOM     16  C   UNL     1       4.561  -7.094   6.450  0.00  0.00    +0.001 A 
ATOM     17  C   UNL     1       4.023  -8.343   6.186  0.00  0.00    +0.000 A 
ATOM     18  C   UNL     1       4.274  -8.975   4.979  0.00  0.00    +0.001 A 
ATOM     19  C   UNL     1       5.058  -8.363   4.026  0.00  0.00    +0.008 A 
ENDBRANCH   2  14
BRANCH   1  22
ATOM     20  C   UNL     1       3.744  -5.030   1.335  0.00  0.00    +0.229 C 
ATOM     21  O   UNL     1       3.752  -5.716   0.335  0.00  0.00    -0.274 OA
ATOM     22  N   UNL     1       4.757  -5.115   2.219  0.00  0.00    -0.299 N 
ATOM     23  H   UNL     1       4.750  -4.567   3.019  0.00  0.00    +0.150 HD
BRANCH  20  24
ATOM     24  C   UNL     1       2.599  -4.083   1.589  0.00  0.00    +0.201 C 
BRANCH  24  25
ATOM     25  N   UNL     1       1.635  -4.176   0.491  0.00  0.00    -0.181 NA
ATOM     26  H   UNL     1       1.886  -4.610  -0.340  0.00  0.00    +0.149 HD
BRANCH  25  27
ATOM     27  S   UNL     1       0.115  -3.543   0.667  0.00  0.00    +0.059 S 
ATOM     28  O   UNL     1      -0.383  -4.021   1.909  0.00  0.00    -0.153 OA
ATOM     29  O   UNL     1      -0.563  -3.765  -0.562  0.00  0.00    -0.153 OA
BRANCH  27  34
ATOM     30  C   UNL     1       0.726   2.432   1.243  0.00  0.00    +0.044 C 
ATOM     31  C   UNL     1       0.574   0.940   1.099  0.00  0.00    -0.050 A 
ATOM     32  C   UNL     1       0.418   0.379  -0.155  0.00  0.00    +0.005 A 
ATOM     33  C   UNL     1       0.278  -0.990  -0.286  0.00  0.00    +0.029 A 
ATOM     34  C   UNL     1       0.294  -1.798   0.835  0.00  0.00    +0.105 A 
ATOM     35  C   UNL     1       0.451  -1.237   2.089  0.00  0.00    +0.029 A 
ATOM     36  C   UNL     1       0.595   0.132   2.220  0.00  0.00    +0.005 A 
ENDBRANCH  27  34
ENDBRANCH  25  27
ENDBRANCH  24  25
ENDBRANCH  20  24
ENDBRANCH   1  22
TORSDOF 6
