REMARK  Name = ZINC09195605
REMARK  6 active torsions:
REMARK  status: ('A' for Active; 'I' for Inactive)
REMARK    1  A    between atoms: C_6  and  C_11
REMARK    2  A    between atoms: C_11  and  N_12
REMARK    3  A    between atoms: C_15  and  O_35
REMARK    4  A    between atoms: C_17  and  C_19
REMARK    5  A    between atoms: N_22  and  S_25
REMARK    6  A    between atoms: S_25  and  C_28
REMARK                            x       y       z     vdW  Elec       q    Type
REMARK                         _______ _______ _______ _____ _____    ______ ____
ROOT
ATOM      1  N   UNL     1       2.879   4.159  -1.385  0.00  0.00    -0.222 N 
ATOM      2  C   UNL     1       3.652   3.345  -2.165  0.00  0.00    +0.186 A 
ATOM      3  C   UNL     1       3.774   3.997  -3.406  0.00  0.00    +0.192 A 
ATOM      4  C   UNL     1       4.528   3.365  -4.412  0.00  0.00    +0.246 A 
ATOM      5  N   UNL     1       5.081   2.190  -4.146  0.00  0.00    -0.196 NA
ATOM      6  C   UNL     1       4.934   1.614  -2.966  0.00  0.00    +0.138 A 
ATOM      7  N   UNL     1       4.239   2.164  -1.994  0.00  0.00    -0.211 NA
ATOM      8  N   UNL     1       3.095   5.155  -3.331  0.00  0.00    -0.122 NA
ATOM      9  N   UNL     1       2.561   5.280  -2.166  0.00  0.00    -0.063 NA
ENDROOT
BRANCH   6  10
ATOM     10  C   UNL     1       5.586   0.277  -2.725  0.00  0.00    +0.060 C 
ATOM     11  C   UNL     1       7.100   0.409  -2.904  0.00  0.00    +0.028 C 
ATOM     12  C   UNL     1       7.763  -0.943  -2.624  0.00  0.00    +0.110 C 
ATOM     13  N   UNL     1       7.141  -1.962  -3.481  0.00  0.00    -0.177 NA
ATOM     14  C   UNL     1       5.679  -2.110  -3.454  0.00  0.00    +0.110 C 
ATOM     15  C   UNL     1       5.040  -0.745  -3.725  0.00  0.00    +0.028 C 
BRANCH  13  16
ATOM     16  S   UNL     1       8.069  -2.923  -4.460  0.00  0.00    +0.061 S 
ATOM     17  O   UNL     1       9.368  -2.954  -3.884  0.00  0.00    -0.153 OA
ATOM     18  O   UNL     1       7.315  -4.103  -4.702  0.00  0.00    -0.153 OA
BRANCH  16  19
ATOM     19  C   UNL     1       8.223  -2.096  -6.008  0.00  0.00    +0.106 A 
ATOM     20  C   UNL     1       7.300  -2.329  -7.010  0.00  0.00    +0.031 A 
ATOM     21  C   UNL     1       7.417  -1.677  -8.223  0.00  0.00    +0.040 A 
ATOM     22  C   UNL     1       8.466  -0.798  -8.438  0.00  0.00    +0.124 A 
ATOM     23  C   UNL     1       9.393  -0.570  -7.435  0.00  0.00    +0.040 A 
ATOM     24  C   UNL     1       9.271  -1.219  -6.221  0.00  0.00    +0.031 A 
ATOM     25  F   UNL     1       8.584  -0.164  -9.625  0.00  0.00    -0.205 F 
ENDBRANCH  16  19
ENDBRANCH  13  16
ENDBRANCH   6  10
BRANCH   4  26
ATOM     26  O   UNL     1       4.686   3.945  -5.626  0.00  0.00    -0.491 OA
ATOM     27  H   UNL     1       5.460   4.521  -5.688  0.00  0.00    +0.294 HD
ENDBRANCH   4  26
BRANCH   1  28
ATOM     28  C   UNL     1       2.467   3.911  -0.001  0.00  0.00    +0.182 C 
BRANCH  28  34
ATOM     29  C   UNL     1      -3.628   1.779   0.047  0.00  0.00    +0.001 A 
ATOM     30  C   UNL     1      -3.627   3.172   0.055  0.00  0.00    +0.001 A 
ATOM     31  C   UNL     1      -2.460   3.873   0.047  0.00  0.00    +0.008 A 
ATOM     32  C   UNL     1      -1.236   3.183   0.031  0.00  0.00    -0.018 A 
ATOM     33  C   UNL     1      -0.011   3.871   0.023  0.00  0.00    +0.014 A 
ATOM     34  C   UNL     1       1.155   3.170   0.008  0.00  0.00    -0.025 A 
ATOM     35  C   UNL     1       1.155   1.776   0.001  0.00  0.00    +0.006 A 
ATOM     36  C   UNL     1      -0.013   1.076   0.008  0.00  0.00    +0.009 A 
ATOM     37  C   UNL     1      -1.237   1.766   0.018  0.00  0.00    -0.018 A 
ATOM     38  C   UNL     1      -2.462   1.077   0.031  0.00  0.00    +0.008 A 
ENDBRANCH  28  34
ENDBRANCH   1  28
TORSDOF 6
