REMARK  Name = ZINC11839444
REMARK  9 active torsions:
REMARK  status: ('A' for Active; 'I' for Inactive)
REMARK    1  A    between atoms: C_1  and  C_2
REMARK    2  A    between atoms: C_3  and  C_7
REMARK    3  A    between atoms: C_7  and  N_8
REMARK    4  A    between atoms: C_9  and  C_11
REMARK    5  A    between atoms: C_14  and  S_25
REMARK    6  A    between atoms: C_17  and  C_18
REMARK    7  A    between atoms: C_17  and  N_54
REMARK    8  A    between atoms: C_23  and  O_24
REMARK    9  A    between atoms: S_25  and  C_26
REMARK                            x       y       z     vdW  Elec       q    Type
REMARK                         _______ _______ _______ _____ _____    ______ ____
ROOT
ATOM      1  C   UNL     1       1.128   2.063  -0.081  0.00  0.00    +0.021 C 
ATOM      2  C   UNL     1       1.300   2.806  -1.418  0.00  0.00    +0.006 C 
ATOM      3  C   UNL     1       2.672   2.347  -1.962  0.00  0.00    +0.034 C 
ATOM      4  C   UNL     1       3.404   1.859  -0.686  0.00  0.00    -0.063 C 
ATOM      5  N   UNL     1       2.322   1.224   0.075  0.00  0.00    +0.391 N 
ATOM      6  H   UNL     1       2.139   0.286  -0.301  0.00  0.00    -0.080 HD
ENDROOT
BRANCH   1   8
ATOM      7  N   UNL     1      -1.321   1.778  -0.290  0.00  0.00    -0.311 N 
ATOM      8  C   UNL     1      -0.111   1.206  -0.126  0.00  0.00    +0.200 C 
ATOM      9  O   UNL     1      -0.020   0.002  -0.019  0.00  0.00    -0.278 OA
ATOM     10  H   UNL     1      -1.394   2.742  -0.375  0.00  0.00    +0.149 HD
BRANCH   7  11
ATOM     11  C   UNL     1      -2.525   0.945  -0.339  0.00  0.00    +0.165 C 
BRANCH  11  14
ATOM     12  C   UNL     1      -4.243   2.201   1.984  0.00  0.00    +0.071 C 
ATOM     13  C   UNL     1      -4.504   2.384   0.510  0.00  0.00    +0.106 A 
ATOM     14  C   UNL     1      -3.735   1.822  -0.528  0.00  0.00    +0.124 A 
ATOM     15  N   UNL     1      -4.237   2.174  -1.675  0.00  0.00    -0.052 NA
ATOM     16  O   UNL     1      -5.363   2.995  -1.411  0.00  0.00    -0.242 OA
ATOM     17  N   UNL     1      -5.470   3.088   0.000  0.00  0.00    -0.054 NA
ENDBRANCH  11  14
ENDBRANCH   7  11
ENDBRANCH   1   8
BRANCH   5  18
ATOM     18  C   UNL     1       2.690   1.111   1.518  0.00  0.00    -0.038 C 
BRANCH  18  19
ATOM     19  C   UNL     1       3.748   0.052   1.690  0.00  0.00    -0.022 A 
ATOM     20  C   UNL     1       3.398  -1.209   2.134  0.00  0.00    +0.005 A 
ATOM     21  C   UNL     1       4.368  -2.181   2.291  0.00  0.00    +0.000 A 
ATOM     22  C   UNL     1       5.690  -1.895   2.006  0.00  0.00    +0.004 A 
ATOM     23  C   UNL     1       6.045  -0.635   1.563  0.00  0.00    +0.045 A 
ATOM     24  C   UNL     1       5.073   0.341   1.398  0.00  0.00    +0.118 A 
BRANCH  24  25
ATOM     25  O   UNL     1       5.419   1.578   0.957  0.00  0.00    -0.507 OA
ATOM     26  H   UNL     1       5.646   2.199   1.663  0.00  0.00    +0.292 HD
ENDBRANCH  24  25
ENDBRANCH  18  19
ENDBRANCH   5  18
BRANCH   3  27
ATOM     27  S   UNL     1       3.563   3.733  -2.722  0.00  0.00    -0.124 S 
BRANCH  27  28
ATOM     28  C   UNL     1       5.035   2.998  -3.353  0.00  0.00    +0.008 A 
ATOM     29  C   UNL     1       6.031   3.796  -3.903  0.00  0.00    +0.017 A 
ATOM     30  C   UNL     1       7.186   3.219  -4.391  0.00  0.00    +0.039 A 
ATOM     31  C   UNL     1       7.348   1.844  -4.344  0.00  0.00    +0.123 A 
ATOM     32  C   UNL     1       6.355   1.046  -3.802  0.00  0.00    +0.039 A 
ATOM     33  C   UNL     1       5.200   1.619  -3.307  0.00  0.00    +0.017 A 
ATOM     34  F   UNL     1       8.477   1.281  -4.828  0.00  0.00    -0.205 F 
ENDBRANCH  27  28
ENDBRANCH   3  27
TORSDOF 8
