REMARK  Name = ZINC39678581
REMARK  11 active torsions:
REMARK  status: ('A' for Active; 'I' for Inactive)
REMARK    1  A    between atoms: C_1  and  C_2
REMARK    2  A    between atoms: C_2  and  C_3
REMARK    3  A    between atoms: C_2  and  C_4
REMARK    4  A    between atoms: C_4  and  C_6
REMARK    5  A    between atoms: C_4  and  O_33
REMARK    6  A    between atoms: C_10  and  C_19
REMARK    7  A    between atoms: N_21  and  C_22
REMARK    8  A    between atoms: C_22  and  C_23
REMARK    9  A    between atoms: C_27  and  O_29
REMARK   10  A    between atoms: O_29  and  C_30
REMARK   11  A    between atoms: O_33  and  C_34
REMARK                            x       y       z     vdW  Elec       q    Type
REMARK                         _______ _______ _______ _____ _____    ______ ____
ROOT
ATOM      1  C   UNL     1      -0.277  -2.188  -2.117  0.00  0.00    +0.257 C 
ATOM      2  O   UNL     1       0.564  -3.049  -1.964  0.00  0.00    -0.272 OA
ATOM      3  N   UNL     1      -1.579  -2.526  -2.205  0.00  0.00    -0.297 N 
ATOM      4  C   UNL     1      -2.728  -1.641  -2.509  0.00  0.00    +0.121 C 
ATOM      5  C   UNL     1      -3.640  -2.487  -3.425  0.00  0.00    +0.100 C 
ATOM      6  C   UNL     1      -3.280  -3.946  -3.098  0.00  0.00    -0.004 C 
ATOM      7  C   UNL     1      -2.184  -3.867  -2.026  0.00  0.00    +0.115 C 
ATOM      8  C   UNL     1      -4.501  -4.681  -2.553  0.00  0.00    -0.010 C 
ATOM      9  C   UNL     1      -4.134  -6.144  -2.290  0.00  0.00    -0.082 C 
ATOM     10  N   UNL     1      -3.678  -6.769  -3.538  0.00  0.00    +0.379 N 
ATOM     11  C   UNL     1      -2.450  -6.114  -4.005  0.00  0.00    -0.082 C 
ATOM     12  C   UNL     1      -2.746  -4.650  -4.341  0.00  0.00    -0.010 C 
ATOM     13  H   UNL     1      -3.494  -7.747  -3.375  0.00  0.00    -0.086 HD
ATOM     14  H   UNL     1      -4.395  -6.676  -4.241  0.00  0.00    -0.086 HD
ENDROOT
BRANCH   5  15
ATOM     15  C   UNL     1      -3.354  -2.186  -4.874  0.00  0.00    +0.218 C 
ATOM     16  O   UNL     1      -2.229  -1.895  -5.222  0.00  0.00    -0.275 OA
ATOM     17  N   UNL     1      -4.348  -2.239  -5.782  0.00  0.00    -0.311 N 
ATOM     18  H   UNL     1      -5.247  -2.472  -5.504  0.00  0.00    +0.149 HD
BRANCH  17  19
ATOM     19  C   UNL     1      -4.069  -1.947  -7.191  0.00  0.00    +0.139 C 
BRANCH  19  20
ATOM     20  C   UNL     1      -5.340  -2.076  -7.991  0.00  0.00    -0.027 A 
ATOM     21  C   UNL     1      -5.685  -3.294  -8.547  0.00  0.00    +0.005 A 
ATOM     22  C   UNL     1      -6.850  -3.416  -9.281  0.00  0.00    +0.004 A 
ATOM     23  C   UNL     1      -7.671  -2.320  -9.463  0.00  0.00    +0.046 A 
ATOM     24  C   UNL     1      -7.327  -1.097  -8.907  0.00  0.00    +0.127 A 
ATOM     25  C   UNL     1      -6.160  -0.979  -8.165  0.00  0.00    +0.051 A 
BRANCH  24  26
ATOM     26  O   UNL     1      -8.133  -0.017  -9.084  0.00  0.00    -0.434 OA
BRANCH  26  27
ATOM     27  C   UNL     1      -9.320  -0.213  -9.854  0.00  0.00    +0.541 C 
ATOM     28  F   UNL     1      -8.976  -0.640 -11.141  0.00  0.00    -0.166 F 
ATOM     29  F   UNL     1     -10.120  -1.183  -9.240  0.00  0.00    -0.166 F 
ENDBRANCH  26  27
ENDBRANCH  24  26
ENDBRANCH  19  20
ENDBRANCH  17  19
ENDBRANCH   5  15
BRANCH   1  30
ATOM     30  C   UNL     1       0.135  -0.741  -2.208  0.00  0.00    +0.261 C 
BRANCH  30  32
ATOM     31  C   UNL     1       0.343   1.403  -0.944  0.00  0.00    +0.011 C 
ATOM     32  C   UNL     1      -0.020  -0.079  -0.838  0.00  0.00    +0.033 C 
ATOM     33  C   UNL     1      -1.468  -0.218  -0.365  0.00  0.00    +0.011 C 
ENDBRANCH  30  32
BRANCH  30  34
ATOM     34  O   UNL     1       1.499  -0.659  -2.626  0.00  0.00    -0.479 OA
BRANCH  34  35
ATOM     35  C   UNL     1       1.808   0.298  -3.539  0.00  0.00    +0.122 A 
ATOM     36  C   UNL     1       3.083   0.353  -4.083  0.00  0.00    +0.045 A 
ATOM     37  C   UNL     1       3.395   1.327  -5.012  0.00  0.00    +0.004 A 
ATOM     38  C   UNL     1       2.438   2.247  -5.399  0.00  0.00    +0.000 A 
ATOM     39  C   UNL     1       1.167   2.195  -4.858  0.00  0.00    +0.004 A 
ATOM     40  C   UNL     1       0.848   1.218  -3.933  0.00  0.00    +0.045 A 
ENDBRANCH  34  35
ENDBRANCH  30  34
ENDBRANCH   1  30
TORSDOF 9
