REMARK  Name = ZINC05458700
REMARK  8 active torsions:
REMARK  status: ('A' for Active; 'I' for Inactive)
REMARK    1  A    between atoms: C_1  and  C_2
REMARK    2  A    between atoms: C_2  and  C_3
REMARK    3  A    between atoms: C_2  and  C_4
REMARK    4  A    between atoms: C_4  and  N_5
REMARK    5  A    between atoms: N_5  and  C_6
REMARK    6  A    between atoms: C_14  and  C_16
REMARK    7  A    between atoms: C_16  and  O_17
REMARK    8  A    between atoms: O_17  and  N_18
REMARK                            x       y       z     vdW  Elec       q    Type
REMARK                         _______ _______ _______ _____ _____    ______ ____
ROOT
ATOM      1  N   UNL     1      -3.190   2.357   1.906  0.00  0.00    -0.294 N 
ATOM      2  C   UNL     1      -3.084   3.679   2.146  0.00  0.00    +0.256 C 
ATOM      3  O   UNL     1      -2.265   4.341   1.544  0.00  0.00    -0.272 OA
ENDROOT
BRANCH   1   4
ATOM      4  C   UNL     1      -2.317   1.720   0.917  0.00  0.00    +0.099 C 
ATOM      5  C   UNL     1      -0.848   2.007   1.272  0.00  0.00    +0.046 C 
ATOM      6  C   UNL     1       0.032   1.598   0.057  0.00  0.00    +0.168 C 
ATOM      7  S   UNL     1      -1.009   2.210  -1.335  0.00  0.00    -0.029 S 
ATOM      8  O   UNL     1      -0.605   3.531  -1.668  0.00  0.00    -0.174 OA
ATOM      9  O   UNL     1      -1.054   1.216  -2.350  0.00  0.00    -0.174 OA
ATOM     10  C   UNL     1      -2.640   2.279  -0.489  0.00  0.00    +0.188 C 
ENDBRANCH   1   4
BRANCH   1  11
ATOM     11  C   UNL     1      -4.179   1.558   2.634  0.00  0.00    +0.111 C 
BRANCH  11  13
ATOM     12  C   UNL     1      -4.685   0.449   4.815  0.00  0.00    +0.009 C 
ATOM     13  C   UNL     1      -3.599   1.136   3.986  0.00  0.00    +0.000 C 
ATOM     14  C   UNL     1      -2.437   0.166   3.762  0.00  0.00    +0.009 C 
ENDBRANCH  11  13
ENDBRANCH   1  11
BRANCH   2  15
ATOM     15  C   UNL     1      -3.982   4.335   3.163  0.00  0.00    +0.358 C 
BRANCH  15  16
ATOM     16  O   UNL     1      -3.679   5.730   3.237  0.00  0.00    -0.383 OA
BRANCH  16  17
ATOM     17  N   UNL     1      -4.471   6.442   4.169  0.00  0.00    -0.076 N 
ATOM     18  C   UNL     1      -4.402   7.786   4.450  0.00  0.00    +0.132 A 
ATOM     19  C   UNL     1      -3.617   8.832   3.977  0.00  0.00    +0.053 A 
ATOM     20  C   UNL     1      -3.800  10.103   4.478  0.00  0.00    +0.043 A 
ATOM     21  C   UNL     1      -4.764  10.344   5.450  0.00  0.00    +0.022 A 
ATOM     22  C   UNL     1      -5.543   9.332   5.925  0.00  0.00    +0.033 A 
ATOM     23  C   UNL     1      -5.377   8.030   5.433  0.00  0.00    +0.116 A 
ATOM     24  N   UNL     1      -5.985   6.858   5.705  0.00  0.00    -0.127 NA
ATOM     25  N   UNL     1      -5.486   5.918   4.984  0.00  0.00    -0.029 NA
ATOM     26 CL   UNL     1      -2.820  11.410   3.891  0.00  0.00    -0.083 Cl
ENDBRANCH  16  17
ENDBRANCH  15  16
ENDBRANCH   2  15
TORSDOF 6
