REMARK  Name = ZINC09848513
REMARK  8 active torsions:
REMARK  status: ('A' for Active; 'I' for Inactive)
REMARK    1  A    between atoms: C_1  and  C_2
REMARK    2  A    between atoms: C_7  and  N_8
REMARK    3  A    between atoms: C_13  and  C_14
REMARK    4  A    between atoms: C_13  and  N_61
REMARK    5  A    between atoms: C_14  and  N_15
REMARK    6  A    between atoms: C_16  and  C_18
REMARK    7  A    between atoms: C_18  and  N_19
REMARK    8  A    between atoms: C_27  and  C_29
REMARK                            x       y       z     vdW  Elec       q    Type
REMARK                         _______ _______ _______ _____ _____    ______ ____
ROOT
ATOM      1  N   UNL     1       0.002  -0.004   0.002  0.00  0.00    -0.316 N 
ATOM      2  C   UNL     1      -0.016   1.344   0.009  0.00  0.00    +0.235 C 
ATOM      3  O   UNL     1       1.026   1.964   0.003  0.00  0.00    -0.274 OA
ATOM      4  H   UNL     1      -0.831  -0.500   0.007  0.00  0.00    +0.149 HD
ENDROOT
BRANCH   1   5
ATOM      5  C   UNL     1       1.281  -0.719  -0.014  0.00  0.00    +0.086 C 
BRANCH   5   6
ATOM      6  C   UNL     1       1.021  -2.227  -0.020  0.00  0.00    -0.060 C 
BRANCH   6  12
ATOM      7  N   UNL     1       4.185  -4.846  -1.009  0.00  0.00    -0.333 N 
ATOM      8  C   UNL     1       3.467  -5.079   0.252  0.00  0.00    +0.086 C 
ATOM      9  C   UNL     1       2.106  -4.382   0.197  0.00  0.00    -0.060 C 
ATOM     10  C   UNL     1       3.021  -2.711  -1.297  0.00  0.00    -0.060 C 
ATOM     11  C   UNL     1       4.383  -3.409  -1.242  0.00  0.00    +0.086 C 
ATOM     12  N   UNL     1       2.320  -2.935  -0.015  0.00  0.00    +0.383 N 
ATOM     13  H   UNL     1       2.897  -2.567   0.750  0.00  0.00    -0.082 HD
BRANCH   7  20
ATOM     14  C   UNL     1       4.608  -6.791  -3.041  0.00  0.00    +0.045 C 
ATOM     15  C   UNL     1       5.653  -6.486  -1.999  0.00  0.00    -0.029 A 
ATOM     16  C   UNL     1       6.861  -7.156  -2.014  0.00  0.00    +0.006 A 
ATOM     17  C   UNL     1       7.818  -6.881  -1.056  0.00  0.00    +0.020 A 
ATOM     18  C   UNL     1       7.572  -5.930  -0.080  0.00  0.00    +0.043 A 
ATOM     19  C   UNL     1       6.367  -5.253  -0.062  0.00  0.00    +0.043 A 
ATOM     20  C   UNL     1       5.404  -5.528  -1.025  0.00  0.00    +0.034 A 
ATOM     21 CL   UNL     1       8.777  -5.588   1.122  0.00  0.00    -0.083 Cl
ENDBRANCH   7  20
ENDBRANCH   6  12
ENDBRANCH   5   6
ENDBRANCH   1   5
BRANCH   2  22
ATOM     22  C   UNL     1      -1.331   2.079   0.020  0.00  0.00    +0.243 C 
BRANCH  22  23
ATOM     23  N   UNL     1      -1.083   3.523   0.026  0.00  0.00    -0.217 N 
ATOM     24  C   UNL     1      -0.975   4.195  -1.142  0.00  0.00    +0.292 A 
ATOM     25  O   UNL     1      -1.080   3.618  -2.210  0.00  0.00    -0.264 OA
ATOM     26  C   UNL     1      -0.726   5.638  -1.084  0.00  0.00    +0.116 A 
ATOM     27  C   UNL     1      -0.566   6.601  -2.051  0.00  0.00    +0.048 A 
ATOM     28  C   UNL     1      -0.355   7.808  -1.401  0.00  0.00    +0.038 A 
ATOM     29  C   UNL     1      -0.383   7.600  -0.016  0.00  0.00    +0.063 A 
ATOM     30  N   UNL     1      -0.616   6.240   0.158  0.00  0.00    -0.291 N 
ATOM     31  C   UNL     1      -0.740   5.474   1.300  0.00  0.00    +0.132 A 
ATOM     32  N   UNL     1      -0.965   4.205   1.241  0.00  0.00    -0.154 NA
ATOM     33  C   UNL     1      -0.618   6.137   2.648  0.00  0.00    +0.088 C 
ATOM     34  C   UNL     1      -0.182   8.741   0.776  0.00  0.00    +0.034 A 
ATOM     35  C   UNL     1       0.021   9.941   0.195  0.00  0.00    +0.048 A 
ATOM     36  S   UNL     1      -0.056   9.551  -1.545  0.00  0.00    -0.095 S 
ENDBRANCH  22  23
ENDBRANCH   2  22
TORSDOF 6
