REMARK  Name = ZINC36539673
REMARK  11 active torsions:
REMARK  status: ('A' for Active; 'I' for Inactive)
REMARK    1  A    between atoms: C_1  and  C_2
REMARK    2  A    between atoms: C_5  and  S_8
REMARK    3  A    between atoms: S_8  and  C_11
REMARK    4  A    between atoms: C_11  and  N_12
REMARK    5  A    between atoms: C_13  and  C_15
REMARK    6  A    between atoms: C_15  and  C_17
REMARK    7  A    between atoms: C_15  and  N_27
REMARK    8  A    between atoms: C_20  and  C_23
REMARK    9  A    between atoms: N_27  and  C_28
REMARK   10  A    between atoms: C_29  and  C_31
REMARK   11  A    between atoms: C_31  and  C_32
REMARK                            x       y       z     vdW  Elec       q    Type
REMARK                         _______ _______ _______ _____ _____    ______ ____
ROOT
ATOM      1  C   UNL     1       3.214  -4.926   3.539  0.00  0.00    +0.192 C 
ENDROOT
BRANCH   1   2
ATOM      2  C   UNL     1       2.464  -3.765   4.139  0.00  0.00    -0.018 A 
ATOM      3  C   UNL     1       1.122  -3.591   3.859  0.00  0.00    +0.006 A 
ATOM      4  C   UNL     1       0.434  -2.525   4.410  0.00  0.00    +0.013 A 
ATOM      5  C   UNL     1       1.088  -1.635   5.240  0.00  0.00    +0.055 A 
ATOM      6  C   UNL     1       2.431  -1.810   5.521  0.00  0.00    +0.013 A 
ATOM      7  C   UNL     1       3.117  -2.878   4.974  0.00  0.00    +0.006 A 
BRANCH   5   8
ATOM      8  C   UNL     1       0.339  -0.473   5.840  0.00  0.00    +0.417 C 
ATOM      9  F   UNL     1      -0.209  -0.856   7.069  0.00  0.00    -0.166 F 
ATOM     10  F   UNL     1       1.217   0.598   6.033  0.00  0.00    -0.166 F 
ATOM     11  F   UNL     1      -0.688  -0.084   4.973  0.00  0.00    -0.166 F 
ENDBRANCH   5   8
ENDBRANCH   1   2
BRANCH   1  13
ATOM     12  N   UNL     1       3.225  -3.970   1.258  0.00  0.00    -0.294 N 
ATOM     13  C   UNL     1       2.919  -5.006   2.063  0.00  0.00    +0.239 C 
ATOM     14  O   UNL     1       2.406  -6.003   1.600  0.00  0.00    -0.273 OA
ATOM     15  H   UNL     1       3.636  -3.172   1.628  0.00  0.00    +0.150 HD
BRANCH  12  16
ATOM     16  C   UNL     1       2.939  -4.047  -0.177  0.00  0.00    +0.278 C 
BRANCH  16  17
ATOM     17  S   UNL     1       1.333  -3.274  -0.515  0.00  0.00    +0.013 S 
ATOM     18  O   UNL     1       0.360  -3.742   0.409  0.00  0.00    -0.168 OA
ATOM     19  O   UNL     1       1.069  -3.285  -1.911  0.00  0.00    -0.168 OA
BRANCH  17  24
ATOM     20  C   UNL     1       2.090   2.551   0.863  0.00  0.00    +0.044 C 
ATOM     21  C   UNL     1       1.901   1.096   0.518  0.00  0.00    -0.050 A 
ATOM     22  C   UNL     1       2.159   0.650  -0.764  0.00  0.00    +0.005 A 
ATOM     23  C   UNL     1       1.986  -0.685  -1.080  0.00  0.00    +0.027 A 
ATOM     24  C   UNL     1       1.555  -1.573  -0.113  0.00  0.00    +0.090 A 
ATOM     25  C   UNL     1       1.298  -1.127   1.170  0.00  0.00    +0.027 A 
ATOM     26  C   UNL     1       1.476   0.206   1.487  0.00  0.00    +0.005 A 
ENDBRANCH  17  24
ENDBRANCH  16  17
ENDBRANCH  12  16
ENDBRANCH   1  13
BRANCH   1  27
ATOM     27  N   UNL     1       2.791  -6.169   4.189  0.00  0.00    -0.289 N 
ATOM     28  C   UNL     1       1.419  -6.653   4.022  0.00  0.00    +0.133 C 
ATOM     29  C   UNL     1       3.665  -6.868   4.940  0.00  0.00    +0.221 C 
ATOM     30  O   UNL     1       4.802  -6.468   5.078  0.00  0.00    -0.275 OA
BRANCH  29  31
ATOM     31  C   UNL     1       3.230  -8.146   5.609  0.00  0.00    +0.131 C 
BRANCH  31  32
ATOM     32  C   UNL     1       4.386  -8.727   6.383  0.00  0.00    -0.039 A 
ATOM     33  C   UNL     1       5.255  -9.609   5.769  0.00  0.00    +0.004 A 
ATOM     34  C   UNL     1       6.315 -10.142   6.478  0.00  0.00    +0.000 A 
ATOM     35  C   UNL     1       6.506  -9.792   7.802  0.00  0.00    +0.000 A 
ATOM     36  C   UNL     1       5.638  -8.909   8.416  0.00  0.00    +0.000 A 
ATOM     37  C   UNL     1       4.580  -8.373   7.705  0.00  0.00    +0.004 A 
ENDBRANCH  31  32
ENDBRANCH  29  31
ENDBRANCH   1  27
TORSDOF 9
