REMARK  Name = ZINC33051189
REMARK  11 active torsions:
REMARK  status: ('A' for Active; 'I' for Inactive)
REMARK    1  A    between atoms: C_1  and  C_2
REMARK    2  A    between atoms: C_2  and  O_3
REMARK    3  A    between atoms: O_3  and  C_4
REMARK    4  A    between atoms: C_4  and  C_6
REMARK    5  A    between atoms: C_6  and  C_7
REMARK    6  A    between atoms: C_7  and  N_8
REMARK    7  A    between atoms: C_14  and  C_39
REMARK    8  A    between atoms: N_16  and  C_33
REMARK    9  A    between atoms: C_23  and  C_25
REMARK   10  A    between atoms: C_28  and  S_31
REMARK   11  A    between atoms: S_31  and  C_32
REMARK                            x       y       z     vdW  Elec       q    Type
REMARK                         _______ _______ _______ _____ _____    ______ ____
ROOT
ATOM      1  N   UNL     1       3.269   4.581  -3.144  0.00  0.00    -0.299 N 
ATOM      2  C   UNL     1       2.737   4.941  -1.959  0.00  0.00    +0.303 C 
ATOM      3  O   UNL     1       2.741   6.108  -1.620  0.00  0.00    -0.253 OA
ATOM      4  N   UNL     1       2.200   4.006  -1.150  0.00  0.00    -0.269 N 
ATOM      5  C   UNL     1       2.173   2.571  -1.521  0.00  0.00    +0.151 C 
ATOM      6  C   UNL     1       2.457   1.691  -0.339  0.00  0.00    +0.035 A 
ATOM      7  C   UNL     1       3.571   0.897  -0.083  0.00  0.00    +0.067 A 
ATOM      8  N   UNL     1       3.360   0.235   1.030  0.00  0.00    -0.169 NA
ATOM      9  N   UNL     1       2.092   0.587   1.524  0.00  0.00    -0.215 N 
ATOM     10  C   UNL     1       1.572   1.501   0.685  0.00  0.00    +0.146 A 
ATOM     11  N   UNL     1       0.373   2.220   0.732  0.00  0.00    -0.303 N 
ATOM     12  C   UNL     1      -0.888   1.813   1.006  0.00  0.00    +0.093 A 
ATOM     13  C   UNL     1      -1.714   2.870   0.828  0.00  0.00    +0.020 A 
ATOM     14  C   UNL     1      -0.916   3.975   0.457  0.00  0.00    +0.025 A 
ATOM     15  C   UNL     1       0.360   3.559   0.428  0.00  0.00    +0.050 A 
ATOM     16  C   UNL     1       1.604   4.353   0.161  0.00  0.00    +0.155 C 
ATOM     17  C   UNL     1       4.808   0.813  -0.938  0.00  0.00    +0.068 C 
ATOM     18  H   UNL     1       3.265   3.525  -3.451  0.00  0.00    +0.150 HD
ENDROOT
BRANCH  16  19
ATOM     19  C   UNL     1       2.610   4.075   1.248  0.00  0.00    -0.021 A 
ATOM     20  C   UNL     1       2.188   3.938   2.558  0.00  0.00    +0.007 A 
ATOM     21  C   UNL     1       3.106   3.678   3.557  0.00  0.00    +0.015 A 
ATOM     22  C   UNL     1       4.456   3.564   3.245  0.00  0.00    +0.008 A 
ATOM     23  C   UNL     1       4.876   3.708   1.929  0.00  0.00    +0.015 A 
ATOM     24  C   UNL     1       3.952   3.963   0.934  0.00  0.00    +0.007 A 
BRANCH  22  25
ATOM     25  S   UNL     1       5.631   3.240   4.517  0.00  0.00    -0.129 S 
ATOM     26  C   UNL     1       4.628   3.136   6.025  0.00  0.00    +0.090 C 
ENDBRANCH  22  25
ENDBRANCH  16  19
BRANCH   9  27
ATOM     27  C   UNL     1       1.481   0.078   2.678  0.00  0.00    +0.068 A 
ATOM     28  C   UNL     1       0.681   0.899   3.461  0.00  0.00    +0.028 A 
ATOM     29  C   UNL     1       0.077   0.394   4.596  0.00  0.00    +0.002 A 
ATOM     30  C   UNL     1       0.276  -0.925   4.958  0.00  0.00    +0.000 A 
ATOM     31  C   UNL     1       1.076  -1.745   4.183  0.00  0.00    +0.002 A 
ATOM     32  C   UNL     1       1.679  -1.247   3.044  0.00  0.00    +0.028 A 
ENDBRANCH   9  27
BRANCH   1  33
ATOM     33  C   UNL     1       3.852   5.597  -4.024  0.00  0.00    +0.117 C 
BRANCH  33  34
ATOM     34  C   UNL     1       4.381   4.929  -5.295  0.00  0.00    +0.139 C 
BRANCH  34  35
ATOM     35  C   UNL     1       4.981   5.974  -6.199  0.00  0.00    +0.309 C 
ATOM     36  O   UNL     1       4.984   7.135  -5.863  0.00  0.00    -0.251 OA
BRANCH  35  37
ATOM     37  O   UNL     1       5.510   5.616  -7.380  0.00  0.00    -0.465 OA
BRANCH  37  39
ATOM     38  C   UNL     1       6.622   6.080  -9.496  0.00  0.00    +0.048 C 
ATOM     39  C   UNL     1       6.070   6.676  -8.200  0.00  0.00    +0.229 C 
ENDBRANCH  37  39
ENDBRANCH  35  37
ENDBRANCH  34  35
ENDBRANCH  33  34
ENDBRANCH   1  33
TORSDOF 8
