REMARK  Name = ZINC00951585
REMARK  9 active torsions:
REMARK  status: ('A' for Active; 'I' for Inactive)
REMARK    1  A    between atoms: C_1  and  C_2
REMARK    2  A    between atoms: C_2  and  O_3
REMARK    3  A    between atoms: O_3  and  C_4
REMARK    4  A    between atoms: C_4  and  C_6
REMARK    5  A    between atoms: C_10  and  N_11
REMARK    6  A    between atoms: C_12  and  C_14
REMARK    7  A    between atoms: C_14  and  C_16
REMARK    8  A    between atoms: C_14  and  N_17
REMARK    9  A    between atoms: C_29  and  C_33
REMARK                            x       y       z     vdW  Elec       q    Type
REMARK                         _______ _______ _______ _____ _____    ______ ____
ROOT
ATOM      1  N   UNL     1       4.526   0.945  -4.492  0.00  0.00    -0.278 N 
ATOM      2  C   UNL     1       5.816   1.151  -4.162  0.00  0.00    +0.238 C 
ATOM      3  O   UNL     1       6.112   1.433  -3.020  0.00  0.00    -0.273 OA
ATOM      4  H   UNL     1       4.289   0.719  -5.405  0.00  0.00    +0.155 HD
ENDROOT
BRANCH   1   9
ATOM      5  C   UNL     1       2.166   0.884  -3.672  0.00  0.00    +0.091 A 
ATOM      6  C   UNL     1       1.339   1.061  -2.490  0.00  0.00    -0.021 A 
ATOM      7  C   UNL     1       2.009   1.379  -1.361  0.00  0.00    -0.004 A 
ATOM      8  S   UNL     1       3.710   1.446  -1.848  0.00  0.00    -0.077 S 
ATOM      9  C   UNL     1       3.537   1.057  -3.527  0.00  0.00    +0.086 A 
ATOM     10  C   UNL     1       1.427   1.620  -0.003  0.00  0.00    +0.046 C 
ATOM     11  C   UNL     1      -0.013   1.086   0.008  0.00  0.00    -0.009 C 
ATOM     12  C   UNL     1      -0.738   1.596  -1.241  0.00  0.00    +0.008 C 
ATOM     13  C   UNL     1      -0.177   0.908  -2.486  0.00  0.00    +0.037 C 
ATOM     14  C   UNL     1      -0.735   1.582   1.262  0.00  0.00    +0.008 C 
BRANCH   5  15
ATOM     15  C   UNL     1       1.577   0.536  -4.967  0.00  0.00    +0.342 C 
ATOM     16  O   UNL     1       1.438  -0.631  -5.277  0.00  0.00    -0.245 OA
BRANCH  15  17
ATOM     17  O   UNL     1       1.189   1.511  -5.814  0.00  0.00    -0.461 OA
BRANCH  17  19
ATOM     18  C   UNL     1       0.236   2.327  -7.902  0.00  0.00    +0.048 C 
ATOM     19  C   UNL     1       0.613   1.093  -7.080  0.00  0.00    +0.229 C 
ENDBRANCH  17  19
ENDBRANCH  15  17
ENDBRANCH   5  15
ENDBRANCH   1   9
BRANCH   2  20
ATOM     20  C   UNL     1       6.891   1.029  -5.211  0.00  0.00    +0.168 C 
ATOM     21  C   UNL     1       6.879  -0.386  -5.792  0.00  0.00    +0.038 C 
BRANCH  20  22
ATOM     22  N   UNL     1       8.197   1.297  -4.604  0.00  0.00    -0.222 N 
ATOM     23  C   UNL     1       8.725   0.590  -3.589  0.00  0.00    +0.254 C 
ATOM     24  O   UNL     1       8.202  -0.357  -3.038  0.00  0.00    -0.270 OA
ATOM     25  C   UNL     1      10.049   1.158  -3.257  0.00  0.00    +0.049 A 
ATOM     26  C   UNL     1      11.028   0.851  -2.326  0.00  0.00    +0.014 A 
ATOM     27  C   UNL     1      12.188   1.608  -2.273  0.00  0.00    +0.001 A 
ATOM     28  C   UNL     1      12.373   2.667  -3.142  0.00  0.00    +0.001 A 
ATOM     29  C   UNL     1      11.403   2.986  -4.078  0.00  0.00    +0.014 A 
ATOM     30  C   UNL     1      10.238   2.238  -4.143  0.00  0.00    +0.049 A 
ATOM     31  C   UNL     1       9.025   2.287  -4.986  0.00  0.00    +0.254 C 
ATOM     32  O   UNL     1       8.812   3.086  -5.875  0.00  0.00    -0.270 OA
ENDBRANCH  20  22
ENDBRANCH   2  20
TORSDOF 6
