REMARK  Name = ZINC02421210
REMARK  9 active torsions:
REMARK  status: ('A' for Active; 'I' for Inactive)
REMARK    1  A    between atoms: C_1  and  C_2
REMARK    2  A    between atoms: C_2  and  N_55
REMARK    3  A    between atoms: C_3  and  C_4
REMARK    4  A    between atoms: C_3  and  N_55
REMARK    5  A    between atoms: C_5  and  C_6
REMARK    6  A    between atoms: C_5  and  N_55
REMARK    7  A    between atoms: C_6  and  C_7
REMARK    8  A    between atoms: C_7  and  N_8
REMARK    9  A    between atoms: C_9  and  C_24
REMARK                            x       y       z     vdW  Elec       q    Type
REMARK                         _______ _______ _______ _____ _____    ______ ____
ROOT
ATOM      1  N   UNL     1       2.437   7.791   0.019  0.00  0.00    -0.284 N 
ATOM      2  C   UNL     1       3.207   6.542   0.018  0.00  0.00    +0.144 C 
ATOM      3  C   UNL     1       2.192   5.428   0.012  0.00  0.00    +0.072 A 
ATOM      4  C   UNL     1       2.320   3.968   0.009  0.00  0.00    +0.199 A 
ATOM      5  O   UNL     1       3.408   3.421   0.011  0.00  0.00    -0.287 OA
ATOM      6  C   UNL     1       1.063   3.193   0.004  0.00  0.00    +0.064 A 
ATOM      7  C   UNL     1       1.068   1.800   0.000  0.00  0.00    +0.015 A 
ATOM      8  C   UNL     1      -0.118   1.119  -0.004  0.00  0.00    +0.001 A 
ATOM      9  C   UNL     1      -1.322   1.810  -0.011  0.00  0.00    +0.004 A 
ATOM     10  C   UNL     1      -1.346   3.187  -0.003  0.00  0.00    +0.047 A 
ATOM     11  C   UNL     1      -0.151   3.901   0.003  0.00  0.00    +0.139 A 
ATOM     12  O   UNL     1      -0.156   5.247   0.006  0.00  0.00    -0.450 OA
ATOM     13  C   UNL     1       0.962   5.998   0.011  0.00  0.00    +0.199 A 
ATOM     14  C   UNL     1       1.131   7.473   0.015  0.00  0.00    +0.283 C 
ATOM     15  O   UNL     1       0.220   8.277   0.015  0.00  0.00    -0.267 OA
ENDROOT
BRANCH   2  16
ATOM     16  C   UNL     1       4.063   6.458   1.256  0.00  0.00    -0.022 A 
ATOM     17  C   UNL     1       3.562   6.884   2.472  0.00  0.00    +0.008 A 
ATOM     18  C   UNL     1       4.344   6.803   3.608  0.00  0.00    +0.038 A 
ATOM     19  C   UNL     1       5.633   6.305   3.527  0.00  0.00    +0.123 A 
ATOM     20  C   UNL     1       6.135   5.883   2.308  0.00  0.00    +0.038 A 
ATOM     21  C   UNL     1       5.350   5.960   1.173  0.00  0.00    +0.008 A 
ATOM     22  F   UNL     1       6.400   6.229   4.636  0.00  0.00    -0.205 F 
ENDBRANCH   2  16
BRANCH   1  23
ATOM     23  C   UNL     1       2.993   9.146   0.024  0.00  0.00    +0.107 C 
BRANCH  23  24
ATOM     24  C   UNL     1       3.184   9.614   1.468  0.00  0.00    +0.000 C 
BRANCH  24  25
ATOM     25  C   UNL     1       3.765  11.030   1.473  0.00  0.00    -0.077 C 
BRANCH  25  26
ATOM     26  N   UNL     1       3.809  11.519   2.867  0.00  0.00    +0.379 N 
ATOM     27  H   UNL     1       2.939  11.251   3.342  0.00  0.00    -0.082 HD
BRANCH  26  29
ATOM     28  C   UNL     1       4.845  11.254   5.067  0.00  0.00    -0.017 C 
ATOM     29  C   UNL     1       4.952  10.911   3.580  0.00  0.00    -0.082 C 
ENDBRANCH  26  29
BRANCH  26  30
ATOM     30  C   UNL     1       3.930  12.992   2.882  0.00  0.00    -0.082 C 
ATOM     31  C   UNL     1       2.561  13.600   2.570  0.00  0.00    -0.017 C 
ENDBRANCH  26  30
ENDBRANCH  25  26
ENDBRANCH  24  25
ENDBRANCH  23  24
ENDBRANCH   1  23
TORSDOF 7
