REMARK  Name = ZINC10333546
REMARK  9 active torsions:
REMARK  status: ('A' for Active; 'I' for Inactive)
REMARK    1  A    between atoms: C_1  and  N_51
REMARK    2  A    between atoms: C_2  and  N_51
REMARK    3  A    between atoms: C_3  and  C_5
REMARK    4  A    between atoms: C_3  and  C_20
REMARK    5  A    between atoms: C_3  and  N_51
REMARK    6  A    between atoms: C_5  and  N_6
REMARK    7  A    between atoms: C_7  and  C_9
REMARK    8  A    between atoms: N_11  and  C_12
REMARK    9  A    between atoms: C_17  and  C_18
REMARK                            x       y       z     vdW  Elec       q    Type
REMARK                         _______ _______ _______ _____ _____    ______ ____
ROOT
ATOM      1  C   UNL     1       3.843   2.706   1.403  0.00  0.00    +0.094 C 
ENDROOT
BRANCH   1   2
ATOM      2  N   UNL     1       5.155   2.064   1.514  0.00  0.00    -0.309 N 
ATOM      3  C   UNL     1       5.454   1.326   2.601  0.00  0.00    +0.299 C 
ATOM      4  O   UNL     1       4.636   1.194   3.488  0.00  0.00    -0.265 OA
ATOM      5  H   UNL     1       5.808   2.170   0.805  0.00  0.00    +0.149 HD
BRANCH   3   6
ATOM      6  C   UNL     1       6.791   0.671   2.714  0.00  0.00    +0.303 C 
ATOM      7  O   UNL     1       7.609   0.803   1.827  0.00  0.00    -0.265 OA
ATOM      8  N   UNL     1       7.090  -0.067   3.802  0.00  0.00    -0.277 N 
ATOM      9  H   UNL     1       6.412  -0.237   4.474  0.00  0.00    +0.155 HD
BRANCH   8  10
ATOM     10  C   UNL     1       8.372  -0.587   3.960  0.00  0.00    +0.051 A 
ATOM     11  C   UNL     1       9.471   0.106   3.469  0.00  0.00    +0.024 A 
ATOM     12  C   UNL     1      10.742  -0.408   3.631  0.00  0.00    +0.002 A 
ATOM     13  C   UNL     1      10.931  -1.621   4.274  0.00  0.00    +0.001 A 
ATOM     14  C   UNL     1       9.851  -2.325   4.763  0.00  0.00    +0.021 A 
ATOM     15  C   UNL     1       8.560  -1.815   4.611  0.00  0.00    +0.073 A 
BRANCH  15  16
ATOM     16  C   UNL     1       7.434  -2.543   5.116  0.00  0.00    +0.101 C 
ATOM     17  N   UNL     1       6.542  -3.119   5.517  0.00  0.00    -0.191 NA
ENDBRANCH  15  16
ENDBRANCH   8  10
ENDBRANCH   3   6
ENDBRANCH   1   2
BRANCH   1  18
ATOM     18  C   UNL     1       3.746   3.441   0.064  0.00  0.00    -0.020 C 
BRANCH  18  19
ATOM     19  C   UNL     1       2.344   3.958  -0.125  0.00  0.00    -0.052 A 
ATOM     20  C   UNL     1       2.056   5.264   0.130  0.00  0.00    +0.003 A 
ATOM     21  C   UNL     1       0.766   5.761  -0.039  0.00  0.00    +0.001 A 
ATOM     22  C   UNL     1      -0.245   4.955  -0.465  0.00  0.00    +0.008 A 
ATOM     23  C   UNL     1       0.013   3.602  -0.739  0.00  0.00    -0.018 A 
ATOM     24  C   UNL     1       1.326   3.096  -0.567  0.00  0.00    -0.016 A 
ATOM     25  C   UNL     1       1.585   1.742  -0.841  0.00  0.00    +0.009 A 
ATOM     26  C   UNL     1       0.574   0.937  -1.268  0.00  0.00    +0.001 A 
ATOM     27  C   UNL     1      -0.716   1.435  -1.442  0.00  0.00    +0.001 A 
ATOM     28  C   UNL     1      -1.004   2.739  -1.181  0.00  0.00    +0.008 A 
ENDBRANCH  18  19
BRANCH  18  31
ATOM     29  C   UNL     1       4.854   5.128   1.402  0.00  0.00    -0.096 C 
ATOM     30  C   UNL     1       5.985   4.164  -0.510  0.00  0.00    -0.096 C 
ATOM     31  N   UNL     1       4.679   4.588   0.037  0.00  0.00    +0.382 N 
ATOM     32  H   UNL     1       4.287   5.322  -0.564  0.00  0.00    -0.082 HD
ENDBRANCH  18  31
ENDBRANCH   1  18
TORSDOF 7
