REMARK  Name = ZINC64502739
REMARK  9 active torsions:
REMARK  status: ('A' for Active; 'I' for Inactive)
REMARK    1  A    between atoms: C_1  and  O_2
REMARK    2  A    between atoms: O_2  and  C_3
REMARK    3  A    between atoms: C_3  and  C_4
REMARK    4  A    between atoms: C_8  and  C_11
REMARK    5  A    between atoms: N_13  and  C_14
REMARK    6  A    between atoms: C_17  and  C_20
REMARK    7  A    between atoms: N_22  and  C_23
REMARK    8  A    between atoms: C_23  and  C_24
REMARK    9  A    between atoms: C_24  and  C_25
REMARK                            x       y       z     vdW  Elec       q    Type
REMARK                         _______ _______ _______ _____ _____    ______ ____
ROOT
ATOM      1  C   UNL     1      -0.035  -7.661  -0.577  0.00  0.00    +0.034 A 
ATOM      2  C   UNL     1       1.203  -7.942  -0.007  0.00  0.00    +0.024 A 
ATOM      3  C   UNL     1       1.577  -9.247   0.221  0.00  0.00    +0.015 A 
ATOM      4  C   UNL     1       0.712 -10.290  -0.120  0.00  0.00    +0.037 A 
ATOM      5  C   UNL     1      -0.531 -10.004  -0.692  0.00  0.00    +0.015 A 
ATOM      6  C   UNL     1      -0.901  -8.697  -0.913  0.00  0.00    +0.024 A 
ENDROOT
BRANCH   1   9
ATOM      7  C   UNL     1       0.514  -5.429  -1.174  0.00  0.00    +0.254 C 
ATOM      8  O   UNL     1       1.685  -5.741  -1.224  0.00  0.00    -0.272 OA
ATOM      9  N   UNL     1      -0.411  -6.338  -0.806  0.00  0.00    -0.283 N 
ATOM     10  H   UNL     1      -1.337  -6.072  -0.701  0.00  0.00    +0.155 HD
BRANCH   7  14
ATOM     11  C   UNL     1       1.731  -2.150  -0.409  0.00  0.00    +0.213 C 
ATOM     12  N   UNL     1       0.402  -2.437   0.178  0.00  0.00    -0.174 NA
ATOM     13  N   UNL     1      -0.328  -3.273  -0.318  0.00  0.00    -0.167 NA
ATOM     14  C   UNL     1       0.093  -4.024  -1.522  0.00  0.00    +0.272 C 
ATOM     15  S   UNL     1       1.540  -2.996  -2.041  0.00  0.00    -0.093 S 
BRANCH  11  16
ATOM     16  C   UNL     1       1.950  -0.646  -0.583  0.00  0.00    +0.199 C 
BRANCH  16  18
ATOM     17  C   UNL     1       0.982   1.315  -1.566  0.00  0.00    +0.194 C 
ATOM     18  O   UNL     1       0.874  -0.093  -1.344  0.00  0.00    -0.380 OA
ENDBRANCH  16  18
ENDBRANCH  11  16
ENDBRANCH   7  14
ENDBRANCH   1   9
BRANCH   4  19
ATOM     19  C   UNL     1       1.110 -11.691   0.122  0.00  0.00    +0.244 C 
ATOM     20  O   UNL     1       2.192 -11.938   0.619  0.00  0.00    -0.270 OA
ATOM     21  N   UNL     1       0.274 -12.695  -0.207  0.00  0.00    -0.311 N 
ATOM     22  H   UNL     1      -0.589 -12.498  -0.604  0.00  0.00    +0.149 HD
BRANCH  21  23
ATOM     23  C   UNL     1       0.669 -14.086   0.033  0.00  0.00    +0.109 C 
BRANCH  23  24
ATOM     24  C   UNL     1      -0.451 -15.021  -0.427  0.00  0.00    +0.052 C 
BRANCH  24  25
ATOM     25  C   UNL     1      -0.044 -16.451  -0.179  0.00  0.00    -0.040 C 
ATOM     26  C   UNL     1      -0.352 -17.209   0.897  0.00  0.00    +0.000 A 
ATOM     27  C   UNL     1      -1.128 -16.939   2.114  0.00  0.00    +0.030 A 
ATOM     28  C   UNL     1      -1.264 -17.920   3.036  0.00  0.00    +0.042 A 
ATOM     29  C   UNL     1      -0.685 -19.185   2.858  0.00  0.00    +0.022 A 
ATOM     30  C   UNL     1       0.041 -19.507   1.767  0.00  0.00    +0.027 A 
ATOM     31  C   UNL     1       0.248 -18.552   0.734  0.00  0.00    +0.043 A 
ATOM     32  N   UNL     1       0.903 -18.621  -0.400  0.00  0.00    -0.380 N 
ATOM     33  C   UNL     1       0.785 -17.331  -1.088  0.00  0.00    +0.144 C 
ATOM     34 CL   UNL     1      -2.180 -17.605   4.477  0.00  0.00    -0.084 Cl
ATOM     35  H   UNL     1       1.381 -19.398  -0.731  0.00  0.00    +0.160 HD
ENDBRANCH  24  25
ENDBRANCH  23  24
ENDBRANCH  21  23
ENDBRANCH   4  19
TORSDOF 8
