REMARK  Name = ZINC12559652
REMARK  9 active torsions:
REMARK  status: ('A' for Active; 'I' for Inactive)
REMARK    1  A    between atoms: C_1  and  C_2
REMARK    2  A    between atoms: C_2  and  C_3
REMARK    3  A    between atoms: C_3  and  N_4
REMARK    4  A    between atoms: C_5  and  P_13
REMARK    5  A    between atoms: P_13  and  N_25
REMARK    6  A    between atoms: P_13  and  N_31
REMARK    7  A    between atoms: N_14  and  C_15
REMARK    8  A    between atoms: C_18  and  S_21
REMARK    9  A    between atoms: S_21  and  N_24
REMARK                            x       y       z     vdW  Elec       q    Type
REMARK                         _______ _______ _______ _____ _____    ______ ____
ROOT
ATOM      1  P   UNL     1       2.320  -3.032   0.548  0.00  0.00    +0.152 P 
ATOM      2  N   UNL     1       0.779  -3.195   0.662  0.00  0.00    -0.230 NA
ENDROOT
BRANCH   1   4
ATOM      3  N   UNL     1       2.918  -5.096  -1.275  0.00  0.00    -0.259 N 
ATOM      4  C   UNL     1       3.050  -4.583  -0.044  0.00  0.00    +0.115 A 
ATOM      5  C   UNL     1       3.835  -5.447   0.695  0.00  0.00    +0.031 A 
ATOM      6  C   UNL     1       4.315  -5.466   2.022  0.00  0.00    +0.012 A 
ATOM      7  C   UNL     1       5.088  -6.500   2.439  0.00  0.00    +0.001 A 
ATOM      8  C   UNL     1       5.426  -7.555   1.587  0.00  0.00    +0.002 A 
ATOM      9  C   UNL     1       4.998  -7.600   0.301  0.00  0.00    +0.030 A 
ATOM     10  C   UNL     1       4.190  -6.558  -0.202  0.00  0.00    +0.093 A 
ATOM     11  N   UNL     1       3.623  -6.302  -1.367  0.00  0.00    -0.171 NA
BRANCH   3  12
ATOM     12  C   UNL     1       2.153  -4.484  -2.364  0.00  0.00    +0.144 C 
BRANCH  12  14
ATOM     13  C   UNL     1       2.320  -3.223  -4.514  0.00  0.00    +0.005 C 
ATOM     14  C   UNL     1       3.116  -3.927  -3.414  0.00  0.00    +0.020 C 
ENDBRANCH  12  14
ENDBRANCH   3  12
ENDBRANCH   1   4
BRANCH   2  15
ATOM     15  C   UNL     1       0.086  -2.401   1.467  0.00  0.00    +0.066 A 
ATOM     16  C   UNL     1      -1.321  -2.294   1.329  0.00  0.00    +0.029 A 
ATOM     17  C   UNL     1      -2.019  -1.473   2.165  0.00  0.00    +0.030 A 
ATOM     18  C   UNL     1      -1.360  -0.745   3.147  0.00  0.00    +0.105 A 
ATOM     19  C   UNL     1       0.018  -0.839   3.294  0.00  0.00    +0.030 A 
ATOM     20  C   UNL     1       0.745  -1.651   2.474  0.00  0.00    +0.029 A 
BRANCH  18  21
ATOM     21  S   UNL     1      -2.281   0.310   4.216  0.00  0.00    +0.056 S 
ATOM     22  O   UNL     1      -1.375   1.297   4.691  0.00  0.00    -0.153 OA
ATOM     23  O   UNL     1      -3.478   0.642   3.527  0.00  0.00    -0.153 OA
BRANCH  21  24
ATOM     24  N   UNL     1      -2.727  -0.595   5.530  0.00  0.00    -0.204 NA
ATOM     25  H   UNL     1      -2.841  -0.171   6.395  0.00  0.00    +0.144 HD
ATOM     26  H   UNL     1      -2.875  -1.549   5.434  0.00  0.00    +0.144 HD
ENDBRANCH  21  24
ENDBRANCH  18  21
ENDBRANCH   2  15
BRANCH   1  27
ATOM     27  N   UNL     1       2.674  -1.794  -0.536  0.00  0.00    -0.252 NA
ATOM     28  C   UNL     1       4.062  -1.888  -1.006  0.00  0.00    +0.091 C 
ATOM     29  C   UNL     1       4.306  -0.841  -2.095  0.00  0.00    +0.016 C 
ATOM     30  C   UNL     1       4.033   0.554  -1.525  0.00  0.00    +0.002 C 
ATOM     31  C   UNL     1       2.596   0.610  -0.999  0.00  0.00    +0.016 C 
ATOM     32  C   UNL     1       2.402  -0.479   0.059  0.00  0.00    +0.091 C 
ENDBRANCH   1  27
BRANCH   1  33
ATOM     33  N   UNL     1       2.957  -2.653   2.059  0.00  0.00    -0.252 NA
ATOM     34  C   UNL     1       4.425  -2.680   2.033  0.00  0.00    +0.091 C 
ATOM     35  C   UNL     1       4.970  -2.192   3.377  0.00  0.00    +0.016 C 
ATOM     36  C   UNL     1       4.444  -3.097   4.495  0.00  0.00    +0.002 C 
ATOM     37  C   UNL     1       2.913  -3.088   4.470  0.00  0.00    +0.016 C 
ATOM     38  C   UNL     1       2.428  -3.551   3.094  0.00  0.00    +0.091 C 
ENDBRANCH   1  33
TORSDOF 8
