REMARK  Name = ZINC20797018
REMARK  5 active torsions:
REMARK  status: ('A' for Active; 'I' for Inactive)
REMARK    1  A    between atoms: C_1  and  C_2
REMARK    2  A    between atoms: N_9  and  C_10
REMARK    3  A    between atoms: C_13  and  O_16
REMARK    4  A    between atoms: O_16  and  C_17
REMARK    5  A    between atoms: N_18  and  C_19
REMARK                            x       y       z     vdW  Elec       q    Type
REMARK                         _______ _______ _______ _____ _____    ______ ____
ROOT
ATOM      1  C   UNL     1      -0.154   0.933  -2.478  0.00  0.00    +0.008 C 
ATOM      2  C   UNL     1      -0.764   1.577  -1.232  0.00  0.00    -0.001 C 
ATOM      3  C   UNL     1      -0.010   1.089   0.009  0.00  0.00    +0.060 C 
ATOM      4  C   UNL     1      -0.716   1.582   1.245  0.00  0.00    +0.058 A 
ATOM      5  C   UNL     1      -2.052   1.986   1.242  0.00  0.00    +0.080 A 
ATOM      6  C   UNL     1      -2.375   2.394   2.595  0.00  0.00    +0.156 A 
ATOM      7  N   UNL     1      -1.282   2.224   3.310  0.00  0.00    -0.150 NA
ATOM      8  N   UNL     1      -0.262   1.725   2.488  0.00  0.00    -0.234 N 
ATOM      9  N   UNL     1      -3.602   2.872   3.051  0.00  0.00    -0.297 N 
ATOM     10  C   UNL     1      -2.867   1.953   0.023  0.00  0.00    +0.169 C 
ATOM     11  O   UNL     1      -3.956   2.484  -0.047  0.00  0.00    -0.292 OA
ATOM     12  C   UNL     1      -2.247   1.203  -1.147  0.00  0.00    +0.083 C 
ATOM     13  H   UNL     1      -4.419   3.057   2.338  0.00  0.00    +0.154 HD
ENDROOT
BRANCH   9  14
ATOM     14  C   UNL     1      -3.795   3.115   4.412  0.00  0.00    +0.033 A 
ATOM     15  C   UNL     1      -4.754   4.050   4.821  0.00  0.00    +0.024 A 
ATOM     16  C   UNL     1      -4.963   4.306   6.139  0.00  0.00    +0.010 A 
ATOM     17  C   UNL     1      -4.210   3.627   7.113  0.00  0.00    -0.018 A 
ATOM     18  C   UNL     1      -4.406   3.870   8.483  0.00  0.00    +0.008 A 
ATOM     19  C   UNL     1      -3.661   3.195   9.401  0.00  0.00    +0.001 A 
ATOM     20  C   UNL     1      -2.705   2.263   9.004  0.00  0.00    +0.001 A 
ATOM     21  C   UNL     1      -2.487   2.000   7.686  0.00  0.00    +0.008 A 
ATOM     22  C   UNL     1      -3.237   2.678   6.709  0.00  0.00    -0.016 A 
ATOM     23  C   UNL     1      -3.043   2.428   5.341  0.00  0.00    +0.031 A 
ENDBRANCH   9  14
BRANCH   8  24
ATOM     24  C   UNL     1       1.039   1.422   2.911  0.00  0.00    +0.066 A 
ATOM     25  C   UNL     1       1.717   0.345   2.356  0.00  0.00    +0.031 A 
ATOM     26  C   UNL     1       3.001   0.050   2.769  0.00  0.00    +0.048 A 
ATOM     27  C   UNL     1       3.610   0.823   3.747  0.00  0.00    +0.120 A 
ATOM     28  C   UNL     1       2.931   1.896   4.307  0.00  0.00    +0.048 A 
ATOM     29  C   UNL     1       1.649   2.195   3.890  0.00  0.00    +0.031 A 
BRANCH  27  30
ATOM     30  O   UNL     1       4.872   0.529   4.158  0.00  0.00    -0.495 OA
ATOM     31  C   UNL     1       5.511  -0.590   3.539  0.00  0.00    +0.277 C 
ENDBRANCH  27  30
ENDBRANCH   8  24
TORSDOF 3
