REMARK  Name = ZINC35054766
REMARK  5 active torsions:
REMARK  status: ('A' for Active; 'I' for Inactive)
REMARK    1  A    between atoms: C_3  and  N_11
REMARK    2  A    between atoms: C_6  and  N_7
REMARK    3  A    between atoms: N_11  and  C_12
REMARK    4  A    between atoms: C_12  and  C_13
REMARK    5  A    between atoms: C_12  and  C_16
REMARK                            x       y       z     vdW  Elec       q    Type
REMARK                         _______ _______ _______ _____ _____    ______ ____
ROOT
ATOM      1  C   UNL     1       0.988   0.772   1.764  0.00  0.00    +0.034 A 
ATOM      2  C   UNL     1       1.849   1.677   1.175  0.00  0.00    +0.026 A 
ATOM      3  C   UNL     1       2.826   1.233   0.295  0.00  0.00    +0.046 A 
ATOM      4  C   UNL     1       2.935  -0.123   0.009  0.00  0.00    +0.064 A 
ATOM      5  C   UNL     1       2.070  -1.024   0.601  0.00  0.00    +0.054 A 
ATOM      6  C   UNL     1       1.098  -0.577   1.478  0.00  0.00    +0.128 A 
ATOM      7 CL   UNL     1       4.155  -0.685  -1.091  0.00  0.00    -0.082 Cl
ENDROOT
BRANCH   6   8
ATOM      8  N   UNL     1       0.174  -1.544   2.111  0.00  0.00    +0.056 N 
ATOM      9  O   UNL     1      -0.677  -1.154   2.877  0.00  0.00    -0.126 OA
ATOM     10  O   UNL     1       0.269  -2.723   1.862  0.00  0.00    -0.126 OA
ENDBRANCH   6   8
BRANCH   3  11
ATOM     11  N   UNL     1       3.699   2.147  -0.302  0.00  0.00    -0.339 N 
ATOM     12  H   UNL     1       4.435   1.829  -0.848  0.00  0.00    +0.146 HD
BRANCH  11  13
ATOM     13  C   UNL     1       3.501   3.585  -0.105  0.00  0.00    +0.077 C 
BRANCH  13  14
ATOM     14  C   UNL     1       4.771   4.197   0.489  0.00  0.00    +0.009 C 
ATOM     15  C   UNL     1       5.974   3.273   0.689  0.00  0.00    +0.006 C 
ATOM     16  C   UNL     1       5.174   3.760   1.899  0.00  0.00    +0.006 C 
ENDBRANCH  13  14
BRANCH  13  17
ATOM     17  C   UNL     1       3.197   4.247  -1.450  0.00  0.00    +0.009 C 
ATOM     18  C   UNL     1       1.926   5.093  -1.549  0.00  0.00    +0.006 C 
ATOM     19  C   UNL     1       1.991   3.728  -2.236  0.00  0.00    +0.006 C 
ENDBRANCH  13  17
ENDBRANCH  11  13
ENDBRANCH   3  11
TORSDOF 5
