REMARK  Name = ZINC09219111
REMARK  7 active torsions:
REMARK  status: ('A' for Active; 'I' for Inactive)
REMARK    1  A    between atoms: C_3  and  C_6
REMARK    2  A    between atoms: N_13  and  C_22
REMARK    3  A    between atoms: C_14  and  C_16
REMARK    4  A    between atoms: C_16  and  N_60
REMARK    5  A    between atoms: C_22  and  C_23
REMARK    6  A    between atoms: N_25  and  C_26
REMARK    7  A    between atoms: C_26  and  C_27
REMARK                            x       y       z     vdW  Elec       q    Type
REMARK                         _______ _______ _______ _____ _____    ______ ____
ROOT
ATOM      1  C   UNL     1       5.084  10.090   2.104  0.00  0.00    +0.010 A 
ATOM      2  C   UNL     1       5.348  11.015   3.060  0.00  0.00    +0.057 A 
ATOM      3  S   UNL     1       5.798  10.029   4.475  0.00  0.00    -0.076 S 
ATOM      4  C   UNL     1       5.624   8.415   3.759  0.00  0.00    +0.116 A 
ATOM      5  C   UNL     1       5.221   8.677   2.439  0.00  0.00    +0.080 A 
ATOM      6  C   UNL     1       5.008   7.526   1.616  0.00  0.00    +0.263 A 
ATOM      7  O   UNL     1       4.660   7.652   0.455  0.00  0.00    -0.267 OA
ATOM      8  N   UNL     1       5.192   6.303   2.145  0.00  0.00    -0.289 N 
ATOM      9  C   UNL     1       5.585   6.144   3.435  0.00  0.00    +0.097 A 
ATOM     10  N   UNL     1       5.791   7.175   4.210  0.00  0.00    -0.228 NA
ENDROOT
BRANCH   1  13
ATOM     11  C   UNL     1       3.470  11.617  -0.962  0.00  0.00    +0.008 A 
ATOM     12  C   UNL     1       3.681  11.384   0.381  0.00  0.00    +0.016 A 
ATOM     13  C   UNL     1       4.666  10.506   0.749  0.00  0.00    +0.021 A 
ATOM     14  S   UNL     1       5.317  10.000  -0.835  0.00  0.00    -0.097 S 
ATOM     15  C   UNL     1       4.240  10.973  -1.874  0.00  0.00    +0.046 A 
ENDBRANCH   1  13
BRANCH   9  16
ATOM     16  C   UNL     1       5.785   4.754   3.983  0.00  0.00    -0.003 C 
BRANCH  16  22
ATOM     17  C   UNL     1       7.531   5.458   5.504  0.00  0.00    -0.078 C 
ATOM     18  C   UNL     1       7.873   5.661   6.982  0.00  0.00    -0.019 C 
ATOM     19  C   UNL     1       7.859   4.305   7.694  0.00  0.00    -0.004 C 
ATOM     20  C   UNL     1       6.483   3.658   7.517  0.00  0.00    -0.019 C 
ATOM     21  C   UNL     1       6.182   3.514   6.023  0.00  0.00    -0.078 C 
ATOM     22  N   UNL     1       6.185   4.855   5.401  0.00  0.00    +0.384 N 
ATOM     23  H   UNL     1       5.513   5.453   5.896  0.00  0.00    -0.081 HD
ENDBRANCH  16  22
ENDBRANCH   9  16
BRANCH   8  24
ATOM     24  C   UNL     1       4.972   5.119   1.311  0.00  0.00    +0.222 C 
BRANCH  24  25
ATOM     25  C   UNL     1       3.536   4.678   1.434  0.00  0.00    +0.233 C 
ATOM     26  O   UNL     1       2.772   5.292   2.148  0.00  0.00    -0.274 OA
ATOM     27  N   UNL     1       3.101   3.601   0.750  0.00  0.00    -0.311 N 
ATOM     28  H   UNL     1       3.711   3.110   0.179  0.00  0.00    +0.149 HD
BRANCH  27  29
ATOM     29  C   UNL     1       1.705   3.173   0.870  0.00  0.00    +0.135 C 
BRANCH  29  30
ATOM     30  C   UNL     1       1.474   1.937  -0.002  0.00  0.00    +0.135 C 
ATOM     31  C   UNL     1      -0.019   1.541   0.011  0.00  0.00    +0.035 C 
ATOM     32  C   UNL     1       0.002  -0.004   0.002  0.00  0.00    +0.031 C 
ATOM     33  C   UNL     1       1.506  -0.359  -0.014  0.00  0.00    +0.160 C 
ATOM     34  O   UNL     1       2.163   0.795   0.553  0.00  0.00    -0.375 OA
ENDBRANCH  29  30
ENDBRANCH  27  29
ENDBRANCH  24  25
ENDBRANCH   8  24
TORSDOF 7
