REMARK  Name = ZINC58386036
REMARK  6 active torsions:
REMARK  status: ('A' for Active; 'I' for Inactive)
REMARK    1  A    between atoms: C_1  and  C_2
REMARK    2  A    between atoms: C_7  and  C_13
REMARK    3  A    between atoms: C_8  and  C_12
REMARK    4  A    between atoms: N_15  and  C_16
REMARK    5  A    between atoms: C_16  and  C_17
REMARK    6  A    between atoms: C_16  and  C_18
REMARK                            x       y       z     vdW  Elec       q    Type
REMARK                         _______ _______ _______ _____ _____    ______ ____
ROOT
ATOM      1  C   UNL     1       0.560  -6.256   1.364  0.00  0.00    +0.246 C 
ATOM      2  O   UNL     1       0.646  -6.764   2.465  0.00  0.00    -0.270 OA
ATOM      3  N   UNL     1       0.701  -7.014   0.259  0.00  0.00    -0.305 N 
ATOM      4  H   UNL     1       0.632  -6.609  -0.620  0.00  0.00    +0.150 HD
ENDROOT
BRANCH   1  11
ATOM      5  C   UNL     1      -0.692   1.389  -0.215  0.00  0.00    +0.044 C 
ATOM      6  C   UNL     1      -0.421  -0.092  -0.151  0.00  0.00    -0.048 A 
ATOM      7  C   UNL     1      -0.153  -0.790  -1.327  0.00  0.00    +0.004 A 
ATOM      8  C   UNL     1       0.096  -2.128  -1.302  0.00  0.00    +0.010 A 
ATOM      9  C   UNL     1       0.081  -2.815  -0.076  0.00  0.00    +0.001 A 
ATOM     10  C   UNL     1       0.334  -4.196  -0.011  0.00  0.00    +0.024 A 
ATOM     11  C   UNL     1       0.303  -4.806   1.237  0.00  0.00    +0.058 A 
ATOM     12  C   UNL     1       0.024  -4.034   2.378  0.00  0.00    +0.051 A 
ATOM     13  N   UNL     1      -0.208  -2.749   2.295  0.00  0.00    -0.251 NA
ATOM     14  C   UNL     1      -0.192  -2.106   1.121  0.00  0.00    +0.072 A 
ATOM     15  C   UNL     1      -0.438  -0.724   1.054  0.00  0.00    +0.031 A 
ATOM     16  C   UNL     1      -0.008  -4.701   3.729  0.00  0.00    +0.066 C 
ENDBRANCH   1  11
BRANCH   3  17
ATOM     17  C   UNL     1       0.956  -8.452   0.385  0.00  0.00    +0.100 C 
ATOM     18  C   UNL     1       2.457  -8.689   0.560  0.00  0.00    +0.033 C 
BRANCH  17  19
ATOM     19  C   UNL     1       0.477  -9.157  -0.858  0.00  0.00    -0.025 A 
ATOM     20  C   UNL     1       0.685  -8.583  -2.100  0.00  0.00    +0.007 A 
ATOM     21  C   UNL     1       0.250  -9.222  -3.244  0.00  0.00    +0.028 A 
ATOM     22  C   UNL     1      -0.397 -10.444  -3.149  0.00  0.00    +0.067 A 
ATOM     23  C   UNL     1      -0.607 -11.024  -1.896  0.00  0.00    +0.067 A 
ATOM     24  C   UNL     1      -0.162 -10.377  -0.753  0.00  0.00    +0.033 A 
ATOM     25  N   UNL     1      -1.270 -12.229  -2.115  0.00  0.00    -0.306 N 
ATOM     26  H   UNL     1      -1.550 -12.856  -1.430  0.00  0.00    +0.170 HD
ATOM     27  C   UNL     1      -1.455 -12.376  -3.441  0.00  0.00    +0.325 A 
ATOM     28  O   UNL     1      -2.005 -13.323  -3.971  0.00  0.00    -0.247 OA
ATOM     29  N   UNL     1      -0.939 -11.316  -4.091  0.00  0.00    -0.306 N 
ATOM     30  H   UNL     1      -0.945 -11.181  -5.051  0.00  0.00    +0.170 HD
ENDBRANCH  17  19
ENDBRANCH   3  17
TORSDOF 3
