REMARK  Name = ZINC38223020
REMARK  7 active torsions:
REMARK  status: ('A' for Active; 'I' for Inactive)
REMARK    1  A    between atoms: C_1  and  C_2
REMARK    2  A    between atoms: C_2  and  O_3
REMARK    3  A    between atoms: O_3  and  C_4
REMARK    4  A    between atoms: C_6  and  C_14
REMARK    5  A    between atoms: C_9  and  O_10
REMARK    6  A    between atoms: O_10  and  C_11
REMARK    7  A    between atoms: C_11  and  C_12
REMARK                            x       y       z     vdW  Elec       q    Type
REMARK                         _______ _______ _______ _____ _____    ______ ____
ROOT
ATOM      1  C   UNL     1      -0.228  -4.968   0.479  0.00  0.00    +0.176 C 
ATOM      2  C   UNL     1       0.876  -5.825   1.060  0.00  0.00    +0.041 C 
ATOM      3  C   UNL     1       1.009  -7.132   0.749  0.00  0.00    +0.020 C 
ATOM      4  C   UNL     1       2.121  -7.962   1.345  0.00  0.00    +0.052 C 
ATOM      5  C   UNL     1       3.340  -7.077   1.610  0.00  0.00    +0.014 C 
ATOM      6  C   UNL     1       2.920  -5.950   2.559  0.00  0.00    +0.080 C 
ATOM      7  C   UNL     1       1.771  -5.199   1.946  0.00  0.00    +0.163 C 
ATOM      8  O   UNL     1       1.612  -4.026   2.222  0.00  0.00    -0.292 OA
ATOM      9  N   UNL     1       0.143  -7.764  -0.111  0.00  0.00    -0.287 N 
ATOM     10  C   UNL     1      -1.048  -7.126  -0.420  0.00  0.00    +0.218 A 
ATOM     11  N   UNL     1      -1.237  -5.814  -0.145  0.00  0.00    -0.221 N 
ATOM     12  N   UNL     1      -2.527  -5.505  -0.574  0.00  0.00    -0.156 NA
ATOM     13  C   UNL     1      -3.032  -6.606  -1.075  0.00  0.00    +0.247 A 
ATOM     14  N   UNL     1      -2.134  -7.583  -0.981  0.00  0.00    -0.201 NA
ATOM     15  H   UNL     1       0.358  -8.630  -0.490  0.00  0.00    +0.155 HD
ENDROOT
BRANCH   1  18
ATOM     16  C   UNL     1       0.777  -1.811  -1.336  0.00  0.00    +0.163 A 
ATOM     17  C   UNL     1       0.243  -2.669  -0.388  0.00  0.00    +0.055 A 
ATOM     18  C   UNL     1       0.352  -4.037  -0.554  0.00  0.00    -0.014 A 
ATOM     19  C   UNL     1       0.992  -4.553  -1.665  0.00  0.00    +0.025 A 
ATOM     20  C   UNL     1       1.527  -3.702  -2.616  0.00  0.00    +0.063 A 
ATOM     21  C   UNL     1       1.416  -2.329  -2.458  0.00  0.00    +0.176 A 
ATOM     22 BR   UNL     1       2.403  -4.412  -4.134  0.00  0.00    -0.046 Br
BRANCH  16  23
ATOM     23  O   UNL     1       0.671  -0.465  -1.174  0.00  0.00    -0.489 OA
BRANCH  23  25
ATOM     24  C   UNL     1      -0.019   1.526   0.010  0.00  0.00    +0.048 C 
ATOM     25  C   UNL     1       0.002  -0.004   0.002  0.00  0.00    +0.226 C 
ENDBRANCH  23  25
ENDBRANCH  16  23
BRANCH  21  26
ATOM     26  O   UNL     1       1.936  -1.491  -3.394  0.00  0.00    -0.487 OA
BRANCH  26  27
ATOM     27  C   UNL     1       3.293  -1.080  -3.215  0.00  0.00    +0.226 C 
ATOM     28  C   UNL     1       3.698  -0.147  -4.358  0.00  0.00    +0.048 C 
ENDBRANCH  26  27
ENDBRANCH  21  26
ENDBRANCH   1  18
TORSDOF 5
