REMARK  Name = ZINC66255608
REMARK  9 active torsions:
REMARK  status: ('A' for Active; 'I' for Inactive)
REMARK    1  A    between atoms: C_1  and  C_2
REMARK    2  A    between atoms: C_2  and  C_3
REMARK    3  A    between atoms: C_3  and  C_4
REMARK    4  A    between atoms: C_4  and  N_5
REMARK    5  A    between atoms: C_11  and  N_14
REMARK    6  A    between atoms: C_15  and  C_16
REMARK    7  A    between atoms: C_20  and  O_23
REMARK    8  A    between atoms: C_21  and  O_22
REMARK    9  A    between atoms: O_23  and  C_24
REMARK                            x       y       z     vdW  Elec       q    Type
REMARK                         _______ _______ _______ _____ _____    ______ ____
ROOT
ATOM      1  N   UNL     1      -2.054  -2.468  -0.227  0.00  0.00    +0.385 N 
ATOM      2  C   UNL     1      -2.893  -2.193  -1.415  0.00  0.00    -0.042 C 
ATOM      3  C   UNL     1      -2.937  -3.489  -2.193  0.00  0.00    -0.061 A 
ATOM      4  C   UNL     1      -3.283  -3.764  -3.504  0.00  0.00    +0.002 A 
ATOM      5  C   UNL     1      -3.239  -5.062  -3.982  0.00  0.00    +0.002 A 
ATOM      6  C   UNL     1      -2.848  -6.093  -3.153  0.00  0.00    +0.028 A 
ATOM      7  C   UNL     1      -2.497  -5.824  -1.828  0.00  0.00    +0.065 A 
ATOM      8  C   UNL     1      -2.543  -4.512  -1.353  0.00  0.00    -0.037 A 
ATOM      9  C   UNL     1      -2.229  -3.920   0.002  0.00  0.00    -0.040 C 
ATOM     10  H   UNL     1      -2.380  -1.942   0.569  0.00  0.00    -0.081 HD
ENDROOT
BRANCH   7  11
ATOM     11  N   UNL     1      -2.108  -6.842  -1.000  0.00  0.00    -0.255 NA
ATOM     12  C   UNL     1      -1.222  -7.708  -1.404  0.00  0.00    +0.123 C 
BRANCH  12  13
ATOM     13  C   UNL     1      -0.891  -8.868  -0.563  0.00  0.00    +0.038 A 
ATOM     14  C   UNL     1       0.064  -9.798  -0.991  0.00  0.00    +0.013 A 
ATOM     15  C   UNL     1       0.371 -10.883  -0.200  0.00  0.00    +0.004 A 
ATOM     16  C   UNL     1      -0.262 -11.062   1.020  0.00  0.00    +0.049 A 
ATOM     17  C   UNL     1      -1.210 -10.151   1.457  0.00  0.00    +0.162 A 
ATOM     18  C   UNL     1      -1.526  -9.046   0.673  0.00  0.00    +0.167 A 
BRANCH  18  19
ATOM     19  O   UNL     1      -2.450  -8.148   1.101  0.00  0.00    -0.503 OA
ATOM     20  H   UNL     1      -3.355  -8.355   0.831  0.00  0.00    +0.292 HD
ENDBRANCH  18  19
BRANCH  17  21
ATOM     21  O   UNL     1      -1.827 -10.334   2.655  0.00  0.00    -0.491 OA
ATOM     22  C   UNL     1      -1.449 -11.486   3.410  0.00  0.00    +0.277 C 
ENDBRANCH  17  21
ENDBRANCH  12  13
ENDBRANCH   7  11
BRANCH   1  23
ATOM     23  C   UNL     1      -0.645  -2.157  -0.508  0.00  0.00    -0.078 C 
BRANCH  23  24
ATOM     24  C   UNL     1      -0.470  -0.641  -0.617  0.00  0.00    -0.019 C 
BRANCH  24  26
ATOM     25  C   UNL     1       1.172   1.198  -1.019  0.00  0.00    +0.004 C 
ATOM     26  C   UNL     1       0.997  -0.318  -0.909  0.00  0.00    -0.005 C 
ENDBRANCH  24  26
ENDBRANCH  23  24
ENDBRANCH   1  23
TORSDOF 7
