REMARK  Name = ZINC16570350
REMARK  14 active torsions:
REMARK  status: ('A' for Active; 'I' for Inactive)
REMARK    1  A    between atoms: C_1  and  C_2
REMARK    2  A    between atoms: C_2  and  N_72
REMARK    3  A    between atoms: C_3  and  C_4
REMARK    4  A    between atoms: C_3  and  N_72
REMARK    5  A    between atoms: C_5  and  C_6
REMARK    6  A    between atoms: C_5  and  N_72
REMARK    7  A    between atoms: C_6  and  C_7
REMARK    8  A    between atoms: C_7  and  C_8
REMARK    9  A    between atoms: C_8  and  C_10
REMARK   10  A    between atoms: C_8  and  N_11
REMARK   11  A    between atoms: C_12  and  C_14
REMARK   12  A    between atoms: C_17  and  C_20
REMARK   13  A    between atoms: C_20  and  S_21
REMARK   14  A    between atoms: S_21  and  C_22
REMARK                            x       y       z     vdW  Elec       q    Type
REMARK                         _______ _______ _______ _____ _____    ______ ____
ROOT
ATOM      1  C   UNL     1       1.388   1.312  -0.870  0.00  0.00    +0.037 A 
ATOM      2  C   UNL     1       2.510   2.092  -1.157  0.00  0.00    +0.013 A 
ATOM      3  C   UNL     1       3.689   1.485  -1.536  0.00  0.00    +0.005 A 
ATOM      4  C   UNL     1       3.761   0.107  -1.635  0.00  0.00    -0.037 A 
ATOM      5  C   UNL     1       2.653  -0.672  -1.353  0.00  0.00    +0.005 A 
ATOM      6  C   UNL     1       1.468  -0.077  -0.971  0.00  0.00    +0.013 A 
ENDROOT
BRANCH   1   8
ATOM      7  N   UNL     1       0.046   3.299  -0.370  0.00  0.00    -0.309 N 
ATOM      8  C   UNL     1       0.120   1.956  -0.467  0.00  0.00    +0.244 C 
ATOM      9  O   UNL     1      -0.857   1.275  -0.223  0.00  0.00    -0.270 OA
ATOM     10  H   UNL     1       0.826   3.842  -0.565  0.00  0.00    +0.149 HD
BRANCH   7  11
ATOM     11  C   UNL     1      -1.211   3.937   0.029  0.00  0.00    +0.070 C 
ATOM     12  C   UNL     1      -1.304   3.968   1.556  0.00  0.00    +0.028 C 
BRANCH  11  13
ATOM     13  C   UNL     1      -1.252   5.366  -0.515  0.00  0.00    +0.020 C 
BRANCH  13  14
ATOM     14  C   UNL     1      -1.284   5.330  -2.044  0.00  0.00    -0.017 C 
BRANCH  14  15
ATOM     15  C   UNL     1      -1.326   6.759  -2.587  0.00  0.00    -0.079 C 
BRANCH  15  16
ATOM     16  N   UNL     1      -1.335   6.708  -4.065  0.00  0.00    +0.379 N 
ATOM     17  H   UNL     1      -0.560   6.115  -4.383  0.00  0.00    -0.082 HD
BRANCH  16  19
ATOM     18  C   UNL     1      -3.793   6.973  -4.066  0.00  0.00    -0.017 C 
ATOM     19  C   UNL     1      -2.609   6.129  -4.542  0.00  0.00    -0.082 C 
ENDBRANCH  16  19
BRANCH  16  20
ATOM     20  C   UNL     1      -1.159   8.067  -4.619  0.00  0.00    -0.082 C 
ATOM     21  C   UNL     1      -0.807   7.950  -6.103  0.00  0.00    -0.017 C 
ENDBRANCH  16  20
ENDBRANCH  15  16
ENDBRANCH  14  15
ENDBRANCH  13  14
ENDBRANCH  11  13
ENDBRANCH   7  11
ENDBRANCH   1   8
BRANCH   4  22
ATOM     22  C   UNL     1       5.052  -0.549  -2.051  0.00  0.00    +0.112 C 
BRANCH  22  23
ATOM     23  S   UNL     1       5.089  -0.720  -3.853  0.00  0.00    -0.081 S 
BRANCH  23  24
ATOM     24  C   UNL     1       6.660  -1.492  -4.055  0.00  0.00    +0.192 A 
ATOM     25  N   UNL     1       7.077  -1.797  -5.275  0.00  0.00    -0.207 NA
ATOM     26  C   UNL     1       8.258  -2.380  -5.461  0.00  0.00    +0.127 A 
ATOM     27  C   UNL     1       9.054  -2.667  -4.351  0.00  0.00    +0.083 A 
ATOM     28  C   UNL     1       8.582  -2.333  -3.095  0.00  0.00    +0.135 A 
ATOM     29  N   UNL     1       7.396  -1.749  -2.983  0.00  0.00    -0.210 NA
ATOM     30 CL   UNL     1       9.532  -2.668  -1.682  0.00  0.00    -0.062 Cl
ATOM     31  N   UNL     1       8.691  -2.697  -6.738  0.00  0.00    -0.315 N 
ATOM     32  C   UNL     1       9.997  -2.086  -7.017  0.00  0.00    +0.106 C 
ATOM     33  C   UNL     1      10.510  -2.574  -8.374  0.00  0.00    +0.019 C 
ATOM     34  C   UNL     1       9.504  -2.190  -9.463  0.00  0.00    +0.003 C 
ATOM     35  C   UNL     1       8.140  -2.799  -9.123  0.00  0.00    +0.019 C 
ATOM     36  C   UNL     1       7.696  -2.305  -7.744  0.00  0.00    +0.106 C 
ENDBRANCH  23  24
ENDBRANCH  22  23
ENDBRANCH   4  22
TORSDOF 11
