REMARK  Name = ZINC22619629
REMARK  8 active torsions:
REMARK  status: ('A' for Active; 'I' for Inactive)
REMARK    1  A    between atoms: C_1  and  N_2
REMARK    2  A    between atoms: N_2  and  S_3
REMARK    3  A    between atoms: S_3  and  C_6
REMARK    4  A    between atoms: C_9  and  C_12
REMARK    5  A    between atoms: N_14  and  C_15
REMARK    6  A    between atoms: C_15  and  C_16
REMARK    7  A    between atoms: C_16  and  C_18
REMARK    8  A    between atoms: C_16  and  N_25
REMARK                            x       y       z     vdW  Elec       q    Type
REMARK                         _______ _______ _______ _____ _____    ______ ____
ROOT
ATOM      1  C   UNL     1      -3.249   2.397   6.880  0.00  0.00    +0.244 C 
ATOM      2  O   UNL     1      -3.961   2.124   5.933  0.00  0.00    -0.270 OA
ATOM      3  N   UNL     1      -3.037   3.686   7.214  0.00  0.00    -0.313 N 
ATOM      4  H   UNL     1      -2.393   3.933   8.071  0.00  0.00    +0.149 HD
ENDROOT
BRANCH   1   8
ATOM      5  C   UNL     1      -1.429  -0.709   9.134  0.00  0.00    +0.105 A 
ATOM      6  C   UNL     1      -1.214   0.613   9.484  0.00  0.00    +0.029 A 
ATOM      7  C   UNL     1      -1.798   1.626   8.752  0.00  0.00    +0.015 A 
ATOM      8  C   UNL     1      -2.616   1.316   7.665  0.00  0.00    +0.037 A 
ATOM      9  C   UNL     1      -2.833  -0.019   7.321  0.00  0.00    +0.015 A 
ATOM     10  C   UNL     1      -2.239  -1.023   8.058  0.00  0.00    +0.029 A 
BRANCH   5  11
ATOM     11  S   UNL     1      -0.673  -1.997  10.069  0.00  0.00    +0.058 S 
ATOM     12  O   UNL     1      -1.472  -3.158   9.880  0.00  0.00    -0.153 OA
ATOM     13  O   UNL     1      -0.403  -1.460  11.357  0.00  0.00    -0.153 OA
BRANCH  11  15
ATOM     14  C   UNL     1       1.843  -1.290   9.375  0.00  0.00    +0.127 C 
ATOM     15  N   UNL     1       0.794  -2.313   9.370  0.00  0.00    -0.193 NA
ATOM     16  H   UNL     1       0.916  -3.224   8.765  0.00  0.00    +0.148 HD
ENDBRANCH  11  15
ENDBRANCH   5  11
ENDBRANCH   1   8
BRANCH   3  17
ATOM     17  C   UNL     1      -3.665   4.757   6.436  0.00  0.00    +0.094 C 
BRANCH  17  18
ATOM     18  C   UNL     1      -3.372   6.105   7.096  0.00  0.00    -0.019 C 
BRANCH  18  19
ATOM     19  C   UNL     1      -4.035   6.157   8.449  0.00  0.00    -0.041 A 
ATOM     20  C   UNL     1      -3.295   5.921   9.591  0.00  0.00    +0.003 A 
ATOM     21  C   UNL     1      -3.903   5.968  10.832  0.00  0.00    +0.000 A 
ATOM     22  C   UNL     1      -5.252   6.253  10.930  0.00  0.00    +0.001 A 
ATOM     23  C   UNL     1      -5.994   6.490   9.788  0.00  0.00    +0.020 A 
ATOM     24  C   UNL     1      -5.384   6.448   8.547  0.00  0.00    +0.043 A 
ATOM     25 CL   UNL     1      -6.313   6.753   7.112  0.00  0.00    -0.083 Cl
ENDBRANCH  18  19
BRANCH  18  26
ATOM     26  N   UNL     1      -1.920   6.267   7.256  0.00  0.00    +0.385 N 
ATOM     27  C   UNL     1      -1.219   6.095   5.958  0.00  0.00    -0.078 C 
ATOM     28  C   UNL     1       0.142   6.796   6.195  0.00  0.00    -0.020 C 
ATOM     29  C   UNL     1      -0.242   8.012   7.069  0.00  0.00    -0.020 C 
ATOM     30  C   UNL     1      -1.587   7.632   7.717  0.00  0.00    -0.078 C 
ATOM     31  H   UNL     1      -1.614   5.508   7.991  0.00  0.00    -0.081 HD
ENDBRANCH  18  26
ENDBRANCH  17  18
ENDBRANCH   3  17
TORSDOF 7
