REMARK  Name = ZINC12052119
REMARK  6 active torsions:
REMARK  status: ('A' for Active; 'I' for Inactive)
REMARK    1  A    between atoms: C_1  and  O_2
REMARK    2  A    between atoms: O_2  and  C_3
REMARK    3  A    between atoms: C_3  and  C_4
REMARK    4  A    between atoms: C_7  and  C_9
REMARK    5  A    between atoms: N_15  and  C_23
REMARK    6  A    between atoms: C_23  and  C_24
REMARK                            x       y       z     vdW  Elec       q    Type
REMARK                         _______ _______ _______ _____ _____    ______ ____
ROOT
ATOM      1  C   UNL     1      -0.869  -5.361   1.597  0.00  0.00    +0.001 C 
ATOM      2  C   UNL     1      -2.159  -5.415   0.739  0.00  0.00    -0.004 C 
ATOM      3  C   UNL     1      -3.075  -4.418   1.491  0.00  0.00    +0.003 C 
ATOM      4  C   UNL     1      -4.535  -4.900   1.411  0.00  0.00    +0.110 C 
ATOM      5  N   UNL     1      -4.734  -5.798   2.554  0.00  0.00    -0.298 N 
ATOM      6  C   UNL     1      -3.750  -5.663   3.460  0.00  0.00    +0.206 C 
ATOM      7  O   UNL     1      -3.701  -6.249   4.521  0.00  0.00    -0.277 OA
ATOM      8  C   UNL     1      -2.703  -4.668   2.972  0.00  0.00    +0.018 C 
ATOM      9  N   UNL     1      -1.341  -5.240   2.993  0.00  0.00    +0.396 N 
ATOM     10  C   UNL     1      -0.464  -4.296   3.722  0.00  0.00    -0.076 C 
ATOM     11  C   UNL     1      -1.417  -3.514   4.661  0.00  0.00    -0.019 C 
ATOM     12  C   UNL     1      -2.687  -3.362   3.769  0.00  0.00    -0.004 C 
ATOM     13  H   UNL     1      -1.346  -6.143   3.442  0.00  0.00    -0.079 HD
ENDROOT
BRANCH   1  17
ATOM     14  C   UNL     1       0.563  -2.084   0.860  0.00  0.00    +0.131 A 
ATOM     15  C   UNL     1       1.618  -2.855   0.541  0.00  0.00    +0.047 A 
ATOM     16  C   UNL     1       1.231  -4.195   0.772  0.00  0.00    +0.043 A 
ATOM     17  C   UNL     1      -0.037  -4.163   1.219  0.00  0.00    +0.092 A 
ATOM     18  O   UNL     1      -0.435  -2.881   1.275  0.00  0.00    -0.464 OA
BRANCH  14  19
ATOM     19  C   UNL     1       0.511  -0.581   0.772  0.00  0.00    +0.233 C 
BRANCH  19  21
ATOM     20  C   UNL     1      -0.048   1.219  -0.710  0.00  0.00    +0.194 C 
ATOM     21  O   UNL     1       0.039  -0.195  -0.521  0.00  0.00    -0.375 OA
ENDBRANCH  19  21
ENDBRANCH  14  19
ENDBRANCH   1  17
BRANCH   5  22
ATOM     22  C   UNL     1      -5.861  -6.723   2.691  0.00  0.00    +0.142 C 
BRANCH  22  23
ATOM     23  C   UNL     1      -5.499  -8.050   2.075  0.00  0.00    -0.029 A 
ATOM     24  C   UNL     1      -5.761  -8.286   0.738  0.00  0.00    +0.005 A 
ATOM     25  C   UNL     1      -5.429  -9.503   0.173  0.00  0.00    +0.002 A 
ATOM     26  C   UNL     1      -4.836 -10.485   0.944  0.00  0.00    +0.020 A 
ATOM     27  C   UNL     1      -4.574 -10.250   2.282  0.00  0.00    +0.041 A 
ATOM     28  C   UNL     1      -4.901  -9.029   2.846  0.00  0.00    +0.025 A 
ATOM     29 CL   UNL     1      -3.830 -11.483   3.251  0.00  0.00    -0.084 Cl
ENDBRANCH  22  23
ENDBRANCH   5  22
TORSDOF 5
