REMARK  Name = ZINC37360654
REMARK  7 active torsions:
REMARK  status: ('A' for Active; 'I' for Inactive)
REMARK    1  A    between atoms: C_1  and  C_2
REMARK    2  A    between atoms: C_6  and  C_8
REMARK    3  A    between atoms: C_10  and  N_35
REMARK    4  A    between atoms: N_11  and  C_25
REMARK    5  A    between atoms: N_17  and  C_18
REMARK    6  A    between atoms: C_18  and  C_19
REMARK    7  A    between atoms: C_28  and  C_31
REMARK                            x       y       z     vdW  Elec       q    Type
REMARK                         _______ _______ _______ _____ _____    ______ ____
ROOT
ATOM      1  C   UNL     1      -0.156  -2.717   2.545  0.00  0.00    +0.089 A 
ATOM      2  C   UNL     1      -0.799  -3.970   2.651  0.00  0.00    +0.086 A 
ATOM      3  C   UNL     1      -1.565  -4.771   1.813  0.00  0.00    +0.131 A 
ATOM      4  N   UNL     1      -1.900  -5.878   2.504  0.00  0.00    -0.216 N 
ATOM      5  N   UNL     1      -1.361  -5.815   3.794  0.00  0.00    -0.144 NA
ATOM      6  C   UNL     1      -0.693  -4.691   3.933  0.00  0.00    +0.189 A 
ATOM      7  N   UNL     1       0.012  -4.113   4.924  0.00  0.00    -0.193 NA
ATOM      8  C   UNL     1       0.581  -2.939   4.738  0.00  0.00    +0.218 A 
ATOM      9  N   UNL     1       0.510  -2.260   3.597  0.00  0.00    -0.214 NA
ATOM     10  N   UNL     1       1.294  -2.385   5.786  0.00  0.00    -0.311 N 
ATOM     11  H   UNL     1       1.724  -1.522   5.677  0.00  0.00    +0.149 HD
ENDROOT
BRANCH   1  17
ATOM     12  C   UNL     1       2.121  -0.012  -0.979  0.00  0.00    +0.044 C 
ATOM     13  C   UNL     1       0.872  -0.633  -0.408  0.00  0.00    -0.050 A 
ATOM     14  C   UNL     1      -0.338  -0.473  -1.060  0.00  0.00    +0.003 A 
ATOM     15  C   UNL     1      -1.489  -1.040  -0.543  0.00  0.00    +0.001 A 
ATOM     16  C   UNL     1      -1.437  -1.770   0.627  0.00  0.00    +0.010 A 
ATOM     17  C   UNL     1      -0.220  -1.935   1.289  0.00  0.00    +0.002 A 
ATOM     18  C   UNL     1       0.939  -1.365   0.759  0.00  0.00    +0.013 A 
ENDBRANCH   1  17
BRANCH   4  19
ATOM     19  C   UNL     1      -2.673  -6.934   2.006  0.00  0.00    +0.068 A 
ATOM     20  C   UNL     1      -3.708  -6.679   1.115  0.00  0.00    +0.028 A 
ATOM     21  C   UNL     1      -4.468  -7.723   0.625  0.00  0.00    +0.014 A 
ATOM     22  C   UNL     1      -4.199  -9.020   1.020  0.00  0.00    +0.055 A 
ATOM     23  C   UNL     1      -3.170  -9.277   1.907  0.00  0.00    +0.014 A 
ATOM     24  C   UNL     1      -2.403  -8.239   2.397  0.00  0.00    +0.028 A 
BRANCH  22  25
ATOM     25  C   UNL     1      -5.031 -10.157   0.483  0.00  0.00    +0.417 C 
ATOM     26  F   UNL     1      -4.451 -10.644  -0.693  0.00  0.00    -0.166 F 
ATOM     27  F   UNL     1      -5.088 -11.182   1.434  0.00  0.00    -0.166 F 
ATOM     28  F   UNL     1      -6.325  -9.700   0.211  0.00  0.00    -0.166 F 
ENDBRANCH  22  25
ENDBRANCH   4  19
BRANCH   3  29
ATOM     29  N   UNL     1      -1.919  -4.484   0.508  0.00  0.00    -0.342 N 
ATOM     30  H   UNL     1      -1.502  -3.740   0.045  0.00  0.00    +0.144 HD
ATOM     31  H   UNL     1      -2.584  -5.026   0.055  0.00  0.00    +0.144 HD
ENDBRANCH   3  29
BRANCH  10  32
ATOM     32  C   UNL     1       1.401  -3.101   7.059  0.00  0.00    +0.136 C 
BRANCH  32  33
ATOM     33  C   UNL     1       2.236  -2.276   8.040  0.00  0.00    +0.135 C 
ATOM     34  C   UNL     1       2.456  -3.075   9.343  0.00  0.00    +0.035 C 
ATOM     35  C   UNL     1       2.324  -1.974  10.431  0.00  0.00    +0.031 C 
ATOM     36  C   UNL     1       1.254  -1.054   9.790  0.00  0.00    +0.160 C 
ATOM     37  O   UNL     1       1.538  -1.073   8.381  0.00  0.00    -0.375 OA
ENDBRANCH  32  33
ENDBRANCH  10  32
TORSDOF 6
