REMARK  Name = ZINC12433386
REMARK  11 active torsions:
REMARK  status: ('A' for Active; 'I' for Inactive)
REMARK    1  A    between atoms: C_1  and  C_2
REMARK    2  A    between atoms: C_2  and  N_3
REMARK    3  A    between atoms: C_6  and  C_10
REMARK    4  A    between atoms: C_11  and  C_12
REMARK    5  A    between atoms: C_11  and  N_66
REMARK    6  A    between atoms: C_15  and  S_21
REMARK    7  A    between atoms: N_16  and  C_17
REMARK    8  A    between atoms: C_17  and  C_18
REMARK    9  A    between atoms: C_18  and  O_19
REMARK   10  A    between atoms: O_19  and  C_20
REMARK   11  A    between atoms: S_21  and  C_24
REMARK                            x       y       z     vdW  Elec       q    Type
REMARK                         _______ _______ _______ _____ _____    ______ ____
ROOT
ATOM      1  C   UNL     1      -4.569   0.474   1.196  0.00  0.00    +0.023 A 
ATOM      2  C   UNL     1      -4.106  -0.525   1.970  0.00  0.00    +0.133 A 
ATOM      3  N   UNL     1      -2.773  -0.401   2.056  0.00  0.00    -0.220 NA
ATOM      4  C   UNL     1      -2.392   0.637   1.364  0.00  0.00    +0.252 A 
ATOM      5  N   UNL     1      -3.482   1.216   0.815  0.00  0.00    -0.313 N 
ENDROOT
BRANCH   4   6
ATOM      6  S   UNL     1      -0.731   1.197   1.181  0.00  0.00    +0.033 S 
ATOM      7  O   UNL     1      -0.696   1.817  -0.097  0.00  0.00    -0.166 OA
ATOM      8  O   UNL     1       0.068   0.054   1.454  0.00  0.00    -0.166 OA
BRANCH   6   9
ATOM      9  C   UNL     1      -0.512   2.438   2.485  0.00  0.00    +0.139 C 
ATOM     10  C   UNL     1      -0.714   1.802   3.834  0.00  0.00    +0.027 C 
ATOM     11  C   UNL     1      -1.359   2.765   4.849  0.00  0.00    +0.002 C 
ATOM     12  C   UNL     1      -0.782   4.191   4.771  0.00  0.00    +0.000 C 
ATOM     13  C   UNL     1       0.714   4.198   4.602  0.00  0.00    +0.000 C 
ATOM     14  C   UNL     1       1.036   4.293   3.096  0.00  0.00    +0.002 C 
ATOM     15  C   UNL     1       0.920   3.008   2.422  0.00  0.00    +0.027 C 
ENDBRANCH   6   9
ENDBRANCH   4   6
BRANCH   1  16
ATOM     16  C   UNL     1      -6.006   0.732   0.824  0.00  0.00    -0.022 C 
BRANCH  16  24
ATOM     17  N   UNL     1      -7.830   3.790   3.062  0.00  0.00    -0.305 N 
ATOM     18  C   UNL     1      -6.375   3.802   2.945  0.00  0.00    +0.089 C 
ATOM     19  C   UNL     1      -5.940   2.978   1.732  0.00  0.00    -0.058 C 
ATOM     20  C   UNL     1      -8.045   1.814   1.557  0.00  0.00    +0.017 C 
ATOM     21  C   UNL     1      -8.601   2.884   2.452  0.00  0.00    +0.202 C 
ATOM     22  O   UNL     1      -9.800   2.929   2.628  0.00  0.00    -0.277 OA
ATOM     23  C   UNL     1      -8.747   0.487   1.855  0.00  0.00    -0.004 C 
ATOM     24  N   UNL     1      -6.600   1.660   1.813  0.00  0.00    +0.392 N 
ATOM     25  H   UNL     1      -6.466   1.275   2.756  0.00  0.00    -0.080 HD
BRANCH  17  27
ATOM     26  C   UNL     1      -8.798   6.036   3.018  0.00  0.00    +0.024 C 
ATOM     27  C   UNL     1      -8.474   4.817   3.885  0.00  0.00    +0.104 C 
ENDBRANCH  17  27
ENDBRANCH  16  24
ENDBRANCH   1  16
BRANCH   5  28
ATOM     28  C   UNL     1      -3.499   2.411  -0.032  0.00  0.00    +0.152 C 
BRANCH  28  29
ATOM     29  C   UNL     1      -3.264   2.007  -1.489  0.00  0.00    +0.181 C 
BRANCH  29  30
ATOM     30  O   UNL     1      -3.147   3.180  -2.295  0.00  0.00    -0.381 OA
ATOM     31  C   UNL     1      -2.924   2.913  -3.681  0.00  0.00    +0.194 C 
ENDBRANCH  29  30
ENDBRANCH  28  29
ENDBRANCH   5  28
TORSDOF 8
