REMARK  Name = ZINC45026150
REMARK  4 active torsions:
REMARK  status: ('A' for Active; 'I' for Inactive)
REMARK    1  A    between atoms: C_3  and  C_6
REMARK    2  A    between atoms: C_9  and  S_17
REMARK    3  A    between atoms: N_10  and  C_11
REMARK    4  A    between atoms: S_17  and  C_18
REMARK                            x       y       z     vdW  Elec       q    Type
REMARK                         _______ _______ _______ _____ _____    ______ ____
ROOT
ATOM      1  C   UNL     1       3.568   0.618  -0.029  0.00  0.00    +0.201 A 
ATOM      2  N   UNL     1       4.372   1.623  -0.299  0.00  0.00    -0.125 NA
ATOM      3  N   UNL     1       5.596   1.239  -0.219  0.00  0.00    -0.122 NA
ATOM      4  C   UNL     1       5.651  -0.032   0.106  0.00  0.00    +0.198 A 
ATOM      5  N   UNL     1       4.364  -0.472   0.244  0.00  0.00    -0.296 N 
ENDROOT
BRANCH   5   6
ATOM      6  C   UNL     1       3.923  -1.822   0.604  0.00  0.00    +0.091 C 
ATOM      7  C   UNL     1       4.476  -2.188   1.983  0.00  0.00    +0.025 C 
ATOM      8  C   UNL     1       4.015  -3.598   2.359  0.00  0.00    +0.002 C 
ATOM      9  C   UNL     1       4.531  -4.596   1.321  0.00  0.00    +0.000 C 
ATOM     10  C   UNL     1       3.978  -4.230  -0.058  0.00  0.00    +0.002 C 
ATOM     11  C   UNL     1       4.439  -2.821  -0.434  0.00  0.00    +0.025 C 
ENDBRANCH   5   6
BRANCH   1  14
ATOM     12  C   UNL     1      -0.016   1.344   0.009  0.00  0.00    +0.042 A 
ATOM     13  C   UNL     1       1.324   1.776  -0.001  0.00  0.00    +0.053 A 
ATOM     14  C   UNL     1       2.097   0.654  -0.015  0.00  0.00    +0.172 A 
ATOM     15  O   UNL     1       1.280  -0.418  -0.012  0.00  0.00    -0.460 OA
ATOM     16  C   UNL     1       0.002  -0.004   0.002  0.00  0.00    +0.196 A 
ENDBRANCH   1  14
BRANCH   4  17
ATOM     17  S   UNL     1       7.112  -0.992   0.330  0.00  0.00    -0.030 S 
BRANCH  17  18
ATOM     18  C   UNL     1       8.420   0.146   0.019  0.00  0.00    +0.111 A 
ATOM     19  C   UNL     1       9.752  -0.267   0.099  0.00  0.00    +0.075 A 
ATOM     20  C   UNL     1      10.746   0.661  -0.154  0.00  0.00    +0.135 A 
ATOM     21  N   UNL     1      10.408   1.906  -0.462  0.00  0.00    -0.203 NA
ATOM     22  C   UNL     1       9.136   2.269  -0.530  0.00  0.00    +0.215 A 
ATOM     23  N   UNL     1       8.154   1.409  -0.301  0.00  0.00    -0.208 NA
ATOM     24  N   UNL     1       8.824   3.578  -0.855  0.00  0.00    -0.327 N 
ATOM     25 CL   UNL     1      12.418   0.201  -0.068  0.00  0.00    -0.062 Cl
ATOM     26  H   UNL     1       9.533   4.216  -1.029  0.00  0.00    +0.145 HD
ATOM     27  H   UNL     1       7.896   3.856  -0.908  0.00  0.00    +0.145 HD
ENDBRANCH  17  18
ENDBRANCH   4  17
TORSDOF 4
