REMARK  Name = ZINC39016393
REMARK  7 active torsions:
REMARK  status: ('A' for Active; 'I' for Inactive)
REMARK    1  A    between atoms: C_1  and  C_2
REMARK    2  A    between atoms: C_8  and  C_14
REMARK    3  A    between atoms: C_14  and  N_15
REMARK    4  A    between atoms: N_15  and  C_16
REMARK    5  A    between atoms: N_15  and  S_23
REMARK    6  A    between atoms: C_16  and  C_17
REMARK    7  A    between atoms: S_23  and  C_26
REMARK                            x       y       z     vdW  Elec       q    Type
REMARK                         _______ _______ _______ _____ _____    ______ ____
ROOT
ATOM      1  N   UNL     1       1.274  -1.835   5.712  0.00  0.00    -0.171 NA
ENDROOT
BRANCH   1   2
ATOM      2  S   UNL     1       2.009  -0.353   5.796  0.00  0.00    +0.061 S 
ATOM      3  O   UNL     1       2.571  -0.253   7.097  0.00  0.00    -0.153 OA
ATOM      4  O   UNL     1       2.789  -0.219   4.617  0.00  0.00    -0.153 OA
BRANCH   2   5
ATOM      5  C   UNL     1       0.739   0.865   5.702  0.00  0.00    +0.105 A 
ATOM      6  C   UNL     1       0.427   1.445   4.486  0.00  0.00    +0.028 A 
ATOM      7  C   UNL     1      -0.569   2.401   4.412  0.00  0.00    +0.002 A 
ATOM      8  C   UNL     1      -1.254   2.775   5.553  0.00  0.00    +0.000 A 
ATOM      9  C   UNL     1      -0.943   2.194   6.768  0.00  0.00    +0.002 A 
ATOM     10  C   UNL     1       0.050   1.235   6.841  0.00  0.00    +0.028 A 
ENDBRANCH   2   5
ENDBRANCH   1   2
BRANCH   1  11
ATOM     11  C   UNL     1       1.188  -2.538   4.429  0.00  0.00    +0.126 C 
BRANCH  11  19
ATOM     12  C   UNL     1      -2.966   0.416   1.010  0.00  0.00    +0.045 C 
ATOM     13  C   UNL     1      -2.299  -0.923   0.833  0.00  0.00    -0.029 A 
ATOM     14  C   UNL     1      -2.349  -1.547  -0.373  0.00  0.00    +0.005 A 
ATOM     15  C   UNL     1      -1.754  -2.787  -0.605  0.00  0.00    +0.001 A 
ATOM     16  C   UNL     1      -1.083  -3.444   0.377  0.00  0.00    +0.009 A 
ATOM     17  C   UNL     1      -0.990  -2.829   1.701  0.00  0.00    -0.007 A 
ATOM     18  C   UNL     1      -0.327  -3.451   2.717  0.00  0.00    -0.003 C 
ATOM     19  C   UNL     1      -0.281  -2.741   4.056  0.00  0.00    +0.114 C 
ATOM     20  C   UNL     1      -0.974  -1.400   4.155  0.00  0.00    +0.225 C 
ATOM     21  O   UNL     1      -0.968  -0.786   5.205  0.00  0.00    -0.275 OA
ATOM     22  N   UNL     1      -1.586  -0.898   3.096  0.00  0.00    -0.284 N 
ATOM     23  C   UNL     1      -1.624  -1.516   1.916  0.00  0.00    +0.043 A 
ATOM     24  H   UNL     1      -2.024  -0.037   3.181  0.00  0.00    +0.155 HD
ENDBRANCH  11  19
ENDBRANCH   1  11
BRANCH   1  25
ATOM     25  C   UNL     1       0.709  -2.442   6.919  0.00  0.00    +0.144 C 
BRANCH  25  26
ATOM     26  C   UNL     1       1.719  -3.379   7.530  0.00  0.00    -0.032 A 
ATOM     27  C   UNL     1       1.749  -4.708   7.148  0.00  0.00    +0.005 A 
ATOM     28  C   UNL     1       2.675  -5.567   7.708  0.00  0.00    +0.000 A 
ATOM     29  C   UNL     1       3.572  -5.098   8.649  0.00  0.00    +0.000 A 
ATOM     30  C   UNL     1       3.543  -3.769   9.030  0.00  0.00    +0.000 A 
ATOM     31  C   UNL     1       2.619  -2.909   8.467  0.00  0.00    +0.005 A 
ENDBRANCH  25  26
ENDBRANCH   1  25
TORSDOF 6
