REMARK  Name = ZINC59932577
REMARK  8 active torsions:
REMARK  status: ('A' for Active; 'I' for Inactive)
REMARK    1  A    between atoms: C_1  and  C_2
REMARK    2  A    between atoms: N_5  and  C_8
REMARK    3  A    between atoms: C_8  and  C_10
REMARK    4  A    between atoms: C_8  and  C_24
REMARK    5  A    between atoms: C_10  and  N_11
REMARK    6  A    between atoms: N_11  and  S_12
REMARK    7  A    between atoms: S_12  and  C_15
REMARK    8  A    between atoms: C_20  and  N_21
REMARK                            x       y       z     vdW  Elec       q    Type
REMARK                         _______ _______ _______ _____ _____    ______ ____
ROOT
ATOM      1  C   UNL     1      -0.689  -4.818   2.250  0.00  0.00    -0.022 C 
ENDROOT
BRANCH   1   6
ATOM      2  C   UNL     1       1.040   0.530   1.286  0.00  0.00    +0.007 C 
ATOM      3  C   UNL     1       0.842  -0.984   1.194  0.00  0.00    -0.018 C 
ATOM      4  C   UNL     1      -0.640  -1.293   0.962  0.00  0.00    -0.015 C 
ATOM      5  C   UNL     1      -0.843  -2.810   0.950  0.00  0.00    -0.078 C 
ATOM      6  N   UNL     1      -0.420  -3.374   2.237  0.00  0.00    +0.385 N 
ATOM      7  C   UNL     1       1.016  -3.144   2.434  0.00  0.00    -0.078 C 
ATOM      8  C   UNL     1       1.291  -1.640   2.503  0.00  0.00    -0.015 C 
ATOM      9  H   UNL     1      -0.935  -2.931   2.983  0.00  0.00    -0.081 HD
ENDBRANCH   1   6
BRANCH   1  10
ATOM     10  C   UNL     1      -0.210  -5.407   3.551  0.00  0.00    -0.060 A 
ATOM     11  C   UNL     1      -0.404  -4.719   4.734  0.00  0.00    +0.002 A 
ATOM     12  C   UNL     1       0.036  -5.260   5.928  0.00  0.00    +0.000 A 
ATOM     13  C   UNL     1       0.670  -6.488   5.939  0.00  0.00    +0.000 A 
ATOM     14  C   UNL     1       0.863  -7.177   4.756  0.00  0.00    +0.000 A 
ATOM     15  C   UNL     1       0.419  -6.638   3.563  0.00  0.00    +0.002 A 
ENDBRANCH   1  10
BRANCH   1  16
ATOM     16  C   UNL     1      -2.193  -5.058   2.105  0.00  0.00    +0.095 C 
BRANCH  16  17
ATOM     17  N   UNL     1      -2.450  -6.496   1.997  0.00  0.00    -0.191 NA
ATOM     18  H   UNL     1      -1.727  -7.103   1.774  0.00  0.00    +0.148 HD
BRANCH  17  19
ATOM     19  S   UNL     1      -3.976  -7.086   2.255  0.00  0.00    +0.061 S 
ATOM     20  O   UNL     1      -3.916  -8.486   2.018  0.00  0.00    -0.153 OA
ATOM     21  O   UNL     1      -4.419  -6.541   3.490  0.00  0.00    -0.153 OA
BRANCH  19  22
ATOM     22  C   UNL     1      -5.015  -6.407   1.004  0.00  0.00    +0.135 A 
ATOM     23  C   UNL     1      -6.059  -5.570   1.352  0.00  0.00    +0.031 A 
ATOM     24  C   UNL     1      -6.875  -5.038   0.370  0.00  0.00    +0.002 A 
ATOM     25  C   UNL     1      -6.646  -5.343  -0.959  0.00  0.00    +0.002 A 
ATOM     26  C   UNL     1      -5.601  -6.178  -1.306  0.00  0.00    +0.035 A 
ATOM     27  C   UNL     1      -4.783  -6.707  -0.325  0.00  0.00    +0.152 A 
BRANCH  27  28
ATOM     28  N   UNL     1      -3.662  -7.599  -0.698  0.00  0.00    +0.058 N 
ATOM     29  O   UNL     1      -3.535  -7.965  -1.843  0.00  0.00    -0.126 OA
ATOM     30  O   UNL     1      -2.872  -7.960   0.143  0.00  0.00    -0.126 OA
ENDBRANCH  27  28
ENDBRANCH  19  22
ENDBRANCH  17  19
ENDBRANCH  16  17
ENDBRANCH   1  16
TORSDOF 7
