REMARK  Name = ZINC63697926
REMARK  5 active torsions:
REMARK  status: ('A' for Active; 'I' for Inactive)
REMARK    1  A    between atoms: C_1  and  C_2
REMARK    2  A    between atoms: C_2  and  O_3
REMARK    3  A    between atoms: O_3  and  C_4
REMARK    4  A    between atoms: C_7  and  C_10
REMARK    5  A    between atoms: C_25  and  C_27
REMARK                            x       y       z     vdW  Elec       q    Type
REMARK                         _______ _______ _______ _____ _____    ______ ____
ROOT
ATOM      1  C   UNL     1      -2.037  -6.210   0.077  0.00  0.00    +0.133 C 
ATOM      2  C   UNL     1      -2.150  -6.877   1.452  0.00  0.00    +0.131 C 
ATOM      3  C   UNL     1      -3.548  -6.569   1.971  0.00  0.00    -0.035 C 
ATOM      4  C   UNL     1      -3.389  -5.980   3.151  0.00  0.00    -0.001 A 
ATOM      5  C   UNL     1      -4.361  -5.517   4.154  0.00  0.00    +0.010 A 
ATOM      6  C   UNL     1      -3.843  -4.936   5.268  0.00  0.00    +0.001 A 
ATOM      7  C   UNL     1      -2.471  -4.770   5.481  0.00  0.00    +0.002 A 
ATOM      8  C   UNL     1      -1.506  -5.169   4.614  0.00  0.00    +0.026 A 
ATOM      9  C   UNL     1      -1.928  -5.799   3.408  0.00  0.00    +0.043 A 
ATOM     10  N   UNL     1      -1.212  -6.300   2.416  0.00  0.00    -0.375 N 
ATOM     11  C   UNL     1      -4.793  -6.853   1.167  0.00  0.00    +0.052 C 
ATOM     12  C   UNL     1      -4.571  -6.234  -0.226  0.00  0.00    +0.113 C 
ATOM     13  N   UNL     1      -3.228  -6.579  -0.705  0.00  0.00    -0.288 N 
ATOM     14  C   UNL     1      -3.083  -7.241  -1.870  0.00  0.00    +0.247 C 
ATOM     15  O   UNL     1      -1.981  -7.613  -2.224  0.00  0.00    -0.270 OA
ATOM     16  H   UNL     1      -0.246  -6.288   2.330  0.00  0.00    +0.160 HD
ENDROOT
BRANCH  14  17
ATOM     17  C   UNL     1      -4.263  -7.513  -2.717  0.00  0.00    +0.037 A 
ATOM     18  C   UNL     1      -5.224  -6.521  -2.920  0.00  0.00    +0.014 A 
ATOM     19  C   UNL     1      -6.323  -6.782  -3.711  0.00  0.00    +0.016 A 
ATOM     20  C   UNL     1      -6.474  -8.024  -4.304  0.00  0.00    +0.018 A 
ATOM     21  C   UNL     1      -5.524  -9.012  -4.106  0.00  0.00    +0.016 A 
ATOM     22  C   UNL     1      -4.418  -8.762  -3.321  0.00  0.00    +0.014 A 
ATOM     23 BR   UNL     1      -7.985  -8.373  -5.387  0.00  0.00    -0.050 Br
ENDBRANCH  14  17
BRANCH   1  27
ATOM     24  C   UNL     1      -1.869  -1.965   0.539  0.00  0.00    +0.121 A 
ATOM     25  C   UNL     1      -0.811  -2.642  -0.048  0.00  0.00    +0.046 A 
ATOM     26  C   UNL     1      -0.867  -4.014  -0.196  0.00  0.00    +0.009 A 
ATOM     27  C   UNL     1      -1.978  -4.713   0.240  0.00  0.00    -0.025 A 
ATOM     28  C   UNL     1      -3.035  -4.040   0.825  0.00  0.00    +0.009 A 
ATOM     29  C   UNL     1      -2.981  -2.668   0.981  0.00  0.00    +0.046 A 
BRANCH  24  30
ATOM     30  O   UNL     1      -1.816  -0.615   0.686  0.00  0.00    -0.492 OA
BRANCH  30  32
ATOM     31  C   UNL     1      -0.763   1.548   0.458  0.00  0.00    +0.048 C 
ATOM     32  C   UNL     1      -0.642   0.044   0.208  0.00  0.00    +0.225 C 
ENDBRANCH  30  32
ENDBRANCH  24  30
ENDBRANCH   1  27
TORSDOF 4
