REMARK  Name = ZINC36609860
REMARK  13 active torsions:
REMARK  status: ('A' for Active; 'I' for Inactive)
REMARK    1  A    between atoms: C_1  and  C_2
REMARK    2  A    between atoms: C_2  and  C_3
REMARK    3  A    between atoms: C_3  and  C_4
REMARK    4  A    between atoms: C_5  and  C_6
REMARK    5  A    between atoms: C_6  and  C_8
REMARK    6  A    between atoms: C_6  and  N_22
REMARK    7  A    between atoms: N_10  and  C_11
REMARK    8  A    between atoms: C_11  and  S_12
REMARK    9  A    between atoms: S_12  and  C_15
REMARK   10  A    between atoms: C_18  and  C_21
REMARK   11  A    between atoms: N_22  and  C_23
REMARK   12  A    between atoms: C_29  and  C_31
REMARK   13  A    between atoms: C_34  and  O_37
REMARK                            x       y       z     vdW  Elec       q    Type
REMARK                         _______ _______ _______ _____ _____    ______ ____
ROOT
ATOM      1  C   UNL     1       0.626  -5.372  -2.560  0.00  0.00    +0.190 C 
ENDROOT
BRANCH   1   2
ATOM      2  C   UNL     1       1.552  -6.370  -3.207  0.00  0.00    +0.239 C 
ATOM      3  O   UNL     1       2.467  -6.849  -2.571  0.00  0.00    -0.273 OA
ATOM      4  N   UNL     1       1.364  -6.730  -4.492  0.00  0.00    -0.294 N 
ATOM      5  H   UNL     1       0.633  -6.346  -5.001  0.00  0.00    +0.150 HD
BRANCH   4   6
ATOM      6  C   UNL     1       2.264  -7.700  -5.120  0.00  0.00    +0.278 C 
BRANCH   6   7
ATOM      7  S   UNL     1       1.542  -9.360  -5.003  0.00  0.00    +0.013 S 
ATOM      8  O   UNL     1       2.373 -10.303  -5.664  0.00  0.00    -0.168 OA
ATOM      9  O   UNL     1       1.082  -9.600  -3.680  0.00  0.00    -0.168 OA
BRANCH   7  10
ATOM     10  C   UNL     1       0.078  -9.287  -5.981  0.00  0.00    +0.090 A 
ATOM     11  C   UNL     1      -1.121  -8.912  -5.404  0.00  0.00    +0.027 A 
ATOM     12  C   UNL     1      -2.269  -8.855  -6.172  0.00  0.00    +0.005 A 
ATOM     13  C   UNL     1      -2.218  -9.173  -7.516  0.00  0.00    -0.050 A 
ATOM     14  C   UNL     1      -1.019  -9.546  -8.093  0.00  0.00    +0.005 A 
ATOM     15  C   UNL     1       0.130  -9.599  -7.327  0.00  0.00    +0.027 A 
ATOM     16  C   UNL     1      -3.470  -9.111  -8.353  0.00  0.00    +0.044 C 
ENDBRANCH   7  10
ENDBRANCH   6   7
ENDBRANCH   4   6
ENDBRANCH   1   2
BRANCH   1  17
ATOM     17  N   UNL     1       1.039  -5.151  -1.172  0.00  0.00    -0.252 N 
ATOM     18  C   UNL     1       0.144  -5.285  -0.173  0.00  0.00    +0.252 C 
ATOM     19  O   UNL     1       0.485  -5.094   0.978  0.00  0.00    -0.270 OA
BRANCH  17  20
ATOM     20  C   UNL     1       2.362  -4.801  -0.883  0.00  0.00    +0.038 A 
ATOM     21  C   UNL     1       3.245  -4.507  -1.914  0.00  0.00    +0.023 A 
ATOM     22  C   UNL     1       4.551  -4.161  -1.625  0.00  0.00    +0.002 A 
ATOM     23  C   UNL     1       4.979  -4.109  -0.312  0.00  0.00    +0.000 A 
ATOM     24  C   UNL     1       4.102  -4.401   0.717  0.00  0.00    +0.002 A 
ATOM     25  C   UNL     1       2.794  -4.741   0.435  0.00  0.00    +0.023 A 
ENDBRANCH  17  20
BRANCH  18  26
ATOM     26  C   UNL     1      -1.249  -5.664  -0.478  0.00  0.00    +0.037 A 
ATOM     27  C   UNL     1      -1.837  -5.266  -1.682  0.00  0.00    +0.016 A 
ATOM     28  C   UNL     1      -3.137  -5.622  -1.962  0.00  0.00    +0.046 A 
ATOM     29  C   UNL     1      -3.866  -6.374  -1.048  0.00  0.00    +0.117 A 
ATOM     30  C   UNL     1      -3.286  -6.771   0.151  0.00  0.00    +0.046 A 
ATOM     31  C   UNL     1      -1.984  -6.426   0.435  0.00  0.00    +0.016 A 
BRANCH  29  32
ATOM     32  O   UNL     1      -5.148  -6.722  -1.328  0.00  0.00    -0.507 OA
ATOM     33  H   UNL     1      -5.234  -7.565  -1.793  0.00  0.00    +0.292 HD
ENDBRANCH  29  32
ENDBRANCH  18  26
ENDBRANCH   1  17
BRANCH   1  35
ATOM     34  C   UNL     1       1.066  -2.975  -2.704  0.00  0.00    -0.029 C 
ATOM     35  C   UNL     1       0.686  -4.069  -3.316  0.00  0.00    +0.001 C 
BRANCH  34  36
ATOM     36  C   UNL     1       1.126  -1.672  -3.460  0.00  0.00    +0.027 C 
BRANCH  36  38
ATOM     37  C   UNL     1       0.343   0.701  -3.499  0.00  0.00    +0.004 C 
ATOM     38  C   UNL     1       0.283  -0.622  -2.732  0.00  0.00    +0.001 C 
ENDBRANCH  36  38
ENDBRANCH  34  36
ENDBRANCH   1  35
TORSDOF 11
