REMARK  Name = ZINC44513829
REMARK  5 active torsions:
REMARK  status: ('A' for Active; 'I' for Inactive)
REMARK    1  A    between atoms: C_3  and  N_17
REMARK    2  A    between atoms: C_4  and  C_8
REMARK    3  A    between atoms: C_8  and  N_9
REMARK    4  A    between atoms: C_12  and  C_15
REMARK    5  A    between atoms: C_15  and  N_16
REMARK                            x       y       z     vdW  Elec       q    Type
REMARK                         _______ _______ _______ _____ _____    ______ ____
ROOT
ATOM      1  N   UNL     1       4.272  -0.741   1.318  0.00  0.00    +0.382 N 
ATOM      2  C   UNL     1       3.390  -1.528   2.188  0.00  0.00    -0.078 C 
ATOM      3  C   UNL     1       3.925  -1.502   3.622  0.00  0.00    -0.017 C 
ATOM      4  C   UNL     1       5.335  -2.100   3.646  0.00  0.00    -0.032 C 
ATOM      5  C   UNL     1       6.228  -1.316   2.679  0.00  0.00    -0.017 C 
ATOM      6  C   UNL     1       5.607  -1.349   1.280  0.00  0.00    -0.078 C 
ATOM      7  H   UNL     1       4.343   0.200   1.677  0.00  0.00    -0.081 HD
ENDROOT
BRANCH   1   8
ATOM      8  C   UNL     1       3.713  -0.705  -0.040  0.00  0.00    -0.041 C 
BRANCH   8  12
ATOM      9  C   UNL     1      -0.017   1.380   0.010  0.00  0.00    +0.040 A 
ATOM     10  C   UNL     1       1.171   2.087   0.002  0.00  0.00    +0.036 A 
ATOM     11  C   UNL     1       2.377   1.412  -0.013  0.00  0.00    +0.128 A 
ATOM     12  C   UNL     1       2.397   0.030  -0.022  0.00  0.00    -0.031 A 
ATOM     13  C   UNL     1       1.211  -0.679  -0.014  0.00  0.00    +0.042 A 
ATOM     14  C   UNL     1       0.002  -0.004   0.002  0.00  0.00    +0.124 A 
ATOM     15  F   UNL     1      -1.158  -0.696   0.010  0.00  0.00    -0.205 F 
BRANCH  11  16
ATOM     16  N   UNL     1       3.649   2.170  -0.022  0.00  0.00    +0.057 N 
ATOM     17  O   UNL     1       3.632   3.379  -0.015  0.00  0.00    -0.126 OA
ATOM     18  O   UNL     1       4.704   1.580  -0.036  0.00  0.00    -0.126 OA
ENDBRANCH  11  16
ENDBRANCH   8  12
ENDBRANCH   1   8
BRANCH   4  19
ATOM     19  C   UNL     1       5.907  -2.004   5.061  0.00  0.00    -0.083 C 
BRANCH  19  20
ATOM     20  N   UNL     1       7.209  -2.684   5.111  0.00  0.00    +0.378 N 
ATOM     21  H   UNL     1       7.586  -2.621   6.044  0.00  0.00    -0.090 HD
ATOM     22  H   UNL     1       7.091  -3.654   4.860  0.00  0.00    -0.090 HD
ATOM     23  H   UNL     1       7.843  -2.243   4.461  0.00  0.00    -0.090 HD
ENDBRANCH  19  20
ENDBRANCH   4  19
TORSDOF 5
