REMARK  Name = ZINC39868898
REMARK  11 active torsions:
REMARK  status: ('A' for Active; 'I' for Inactive)
REMARK    1  A    between atoms: C_1  and  C_2
REMARK    2  A    between atoms: C_2  and  C_3
REMARK    3  A    between atoms: C_3  and  O_4
REMARK    4  A    between atoms: O_4  and  C_5
REMARK    5  A    between atoms: C_8  and  C_12
REMARK    6  A    between atoms: N_14  and  C_15
REMARK    7  A    between atoms: C_16  and  C_25
REMARK    8  A    between atoms: N_21  and  C_24
REMARK    9  A    between atoms: C_25  and  O_27
REMARK   10  A    between atoms: O_27  and  C_28
REMARK   11  A    between atoms: C_28  and  C_29
REMARK                            x       y       z     vdW  Elec       q    Type
REMARK                         _______ _______ _______ _____ _____    ______ ____
ROOT
ATOM      1  C   UNL     1      -6.373  -4.575   0.038  0.00  0.00    +0.249 C 
ATOM      2  O   UNL     1      -6.903  -4.860   1.095  0.00  0.00    -0.270 OA
ATOM      3  N   UNL     1      -6.978  -4.887  -1.125  0.00  0.00    -0.275 N 
ATOM      4  H   UNL     1      -6.555  -4.660  -1.968  0.00  0.00    +0.156 HD
ENDROOT
BRANCH   3   5
ATOM      5  C   UNL     1      -8.203  -5.533  -1.117  0.00  0.00    +0.086 A 
ATOM      6  C   UNL     1      -8.964  -5.934  -2.207  0.00  0.00    +0.091 A 
ATOM      7  C   UNL     1     -10.222  -6.598  -1.925  0.00  0.00    -0.025 A 
ATOM      8  C   UNL     1     -10.493  -6.740  -0.608  0.00  0.00    -0.021 A 
ATOM      9  S   UNL     1      -9.106  -6.017   0.215  0.00  0.00    -0.079 S 
ATOM     10  C   UNL     1     -11.713  -7.377  -0.022  0.00  0.00    -0.036 C 
ATOM     11  N   UNL     1     -12.736  -7.481  -1.079  0.00  0.00    +0.381 N 
ATOM     12  C   UNL     1     -12.149  -8.102  -2.274  0.00  0.00    -0.074 C 
ATOM     13  C   UNL     1     -11.200  -7.120  -2.968  0.00  0.00    +0.018 C 
ATOM     14  C   UNL     1     -13.854  -8.303  -0.599  0.00  0.00    -0.096 C 
ATOM     15  H   UNL     1     -13.073  -6.558  -1.311  0.00  0.00    -0.082 HD
BRANCH   6  16
ATOM     16  C   UNL     1      -8.515  -5.698  -3.580  0.00  0.00    +0.342 C 
ATOM     17  O   UNL     1      -7.838  -6.531  -4.151  0.00  0.00    -0.245 OA
BRANCH  16  18
ATOM     18  O   UNL     1      -8.854  -4.555  -4.213  0.00  0.00    -0.461 OA
BRANCH  18  19
ATOM     19  C   UNL     1      -8.382  -4.390  -5.551  0.00  0.00    +0.229 C 
ATOM     20  C   UNL     1      -8.862  -3.045  -6.099  0.00  0.00    +0.048 C 
ENDBRANCH  18  19
ENDBRANCH  16  18
ENDBRANCH   6  16
ENDBRANCH   3   5
BRANCH   1  24
ATOM     21  C   UNL     1      -2.615  -2.595   0.013  0.00  0.00    +0.157 A 
ATOM     22  C   UNL     1      -3.220  -2.920   1.222  0.00  0.00    +0.085 A 
ATOM     23  C   UNL     1      -4.439  -3.562   1.235  0.00  0.00    +0.036 A 
ATOM     24  C   UNL     1      -5.068  -3.887   0.030  0.00  0.00    +0.040 A 
ATOM     25  C   UNL     1      -4.457  -3.559  -1.184  0.00  0.00    +0.036 A 
ATOM     26  C   UNL     1      -3.240  -2.912  -1.188  0.00  0.00    +0.085 A 
ATOM     27 CL   UNL     1      -2.484  -2.498  -2.695  0.00  0.00    -0.080 Cl
ATOM     28 CL   UNL     1      -2.438  -2.516   2.719  0.00  0.00    -0.080 Cl
BRANCH  21  29
ATOM     29  O   UNL     1      -1.414  -1.962   0.005  0.00  0.00    -0.489 OA
BRANCH  29  30
ATOM     30  C   UNL     1      -1.433  -0.534   0.013  0.00  0.00    +0.229 C 
BRANCH  30  32
ATOM     31  C   UNL     1      -0.019   1.526   0.010  0.00  0.00    +0.007 C 
ATOM     32  C   UNL     1       0.002  -0.004   0.002  0.00  0.00    +0.038 C 
ENDBRANCH  30  32
ENDBRANCH  29  30
ENDBRANCH  21  29
ENDBRANCH   1  24
TORSDOF 8
