REMARK  Name = ZINC07605565
REMARK  7 active torsions:
REMARK  status: ('A' for Active; 'I' for Inactive)
REMARK    1  A    between atoms: C_1  and  C_2
REMARK    2  A    between atoms: C_6  and  C_8
REMARK    3  A    between atoms: C_8  and  O_10
REMARK    4  A    between atoms: O_10  and  C_11
REMARK    5  A    between atoms: C_11  and  C_12
REMARK    6  A    between atoms: N_14  and  N_15
REMARK    7  A    between atoms: C_21  and  C_24
REMARK                            x       y       z     vdW  Elec       q    Type
REMARK                         _______ _______ _______ _____ _____    ______ ____
ROOT
ATOM      1  C   UNL     1       2.376   8.055   0.022  0.00  0.00    +0.267 C 
ATOM      2  O   UNL     1       3.348   7.330   0.009  0.00  0.00    -0.271 OA
ATOM      3  N   UNL     1       2.534   9.393   0.028  0.00  0.00    -0.221 N 
ATOM      4  H   UNL     1       1.757   9.974   0.038  0.00  0.00    +0.174 HD
ENDROOT
BRANCH   3   5
ATOM      5  N   UNL     1       3.822   9.947   0.018  0.00  0.00    -0.137 N 
ATOM      6  C   UNL     1       4.394  10.517  -1.062  0.00  0.00    +0.263 C 
ATOM      7  O   UNL     1       3.912  10.643  -2.167  0.00  0.00    -0.271 OA
ATOM      8  C   UNL     1       5.763  10.965  -0.604  0.00  0.00    +0.114 C 
ATOM      9  C   UNL     1       5.898  12.478  -0.734  0.00  0.00    +0.035 C 
ATOM     10  C   UNL     1       7.280  12.915  -0.240  0.00  0.00    +0.006 C 
ATOM     11  C   UNL     1       8.360  12.216  -1.068  0.00  0.00    -0.014 C 
ATOM     12  C   UNL     1       8.227  10.700  -0.907  0.00  0.00    +0.006 C 
ATOM     13  C   UNL     1       6.849  10.255  -1.404  0.00  0.00    +0.035 C 
ATOM     14  C   UNL     1       9.742  12.661  -0.583  0.00  0.00    +0.007 C 
ATOM     15  N   UNL     1       5.817  10.562   0.807  0.00  0.00    -0.284 N 
ATOM     16  C   UNL     1       4.634   9.980   1.082  0.00  0.00    +0.326 C 
ATOM     17  O   UNL     1       4.339   9.531   2.172  0.00  0.00    -0.251 OA
ATOM     18  H   UNL     1       6.556  10.694   1.421  0.00  0.00    +0.151 HD
ENDBRANCH   3   5
BRANCH   1  19
ATOM     19  C   UNL     1       0.992   7.460   0.032  0.00  0.00    +0.329 C 
BRANCH  19  20
ATOM     20  O   UNL     1       1.087   6.011   0.024  0.00  0.00    -0.452 OA
BRANCH  20  21
ATOM     21  C   UNL     1      -0.070   5.322   0.031  0.00  0.00    +0.340 C 
ATOM     22  O   UNL     1      -1.130   5.915   0.044  0.00  0.00    -0.245 OA
BRANCH  21  28
ATOM     23  C   UNL     1      -2.514   0.972   0.019  0.00  0.00    +0.044 C 
ATOM     24  C   UNL     1      -1.222   1.748   0.017  0.00  0.00    -0.050 A 
ATOM     25  C   UNL     1      -0.013   1.076   0.008  0.00  0.00    +0.003 A 
ATOM     26  C   UNL     1       1.178   1.781   0.000  0.00  0.00    +0.001 A 
ATOM     27  C   UNL     1       1.166   3.160   0.007  0.00  0.00    +0.015 A 
ATOM     28  C   UNL     1      -0.050   3.845   0.023  0.00  0.00    +0.059 A 
ATOM     29  C   UNL     1      -1.248   3.127   0.031  0.00  0.00    +0.018 A 
ENDBRANCH  21  28
ENDBRANCH  20  21
ENDBRANCH  19  20
ENDBRANCH   1  19
TORSDOF 5
