REMARK  Name = ZINC12714657
REMARK  15 active torsions:
REMARK  status: ('A' for Active; 'I' for Inactive)
REMARK    1  A    between atoms: C_1  and  C_2
REMARK    2  A    between atoms: N_7  and  S_9
REMARK    3  A    between atoms: S_9  and  C_12
REMARK    4  A    between atoms: C_15  and  N_18
REMARK    5  A    between atoms: N_18  and  C_19
REMARK    6  A    between atoms: C_19  and  C_21
REMARK    7  A    between atoms: C_19  and  C_31
REMARK    8  A    between atoms: C_24  and  O_29
REMARK    9  A    between atoms: C_25  and  O_27
REMARK   10  A    between atoms: O_27  and  C_28
REMARK   11  A    between atoms: O_29  and  C_30
REMARK   12  A    between atoms: N_33  and  C_34
REMARK   13  A    between atoms: C_34  and  C_35
REMARK   14  A    between atoms: C_34  and  C_36
REMARK   15  A    between atoms: C_34  and  C_37
REMARK                            x       y       z     vdW  Elec       q    Type
REMARK                         _______ _______ _______ _____ _____    ______ ____
ROOT
ATOM      1  C   UNL     1      -1.294  -0.774   0.010  0.00  0.00    +0.188 C 
ENDROOT
BRANCH   1   2
ATOM      2  C   UNL     1       0.002  -0.004   0.002  0.00  0.00    -0.015 A 
ATOM      3  C   UNL     1       1.207  -0.682  -0.013  0.00  0.00    +0.010 A 
ATOM      4  C   UNL     1       2.398   0.019  -0.021  0.00  0.00    +0.050 A 
ATOM      5  C   UNL     1       2.386   1.405  -0.014  0.00  0.00    +0.162 A 
ATOM      6  C   UNL     1       1.174   2.087   0.002  0.00  0.00    +0.162 A 
ATOM      7  C   UNL     1      -0.017   1.378   0.010  0.00  0.00    +0.055 A 
BRANCH   6   8
ATOM      8  O   UNL     1       1.157   3.447   0.009  0.00  0.00    -0.491 OA
ATOM      9  C   UNL     1      -0.124   4.080   0.024  0.00  0.00    +0.277 C 
ENDBRANCH   6   8
BRANCH   5  10
ATOM     10  O   UNL     1       3.557   2.096  -0.022  0.00  0.00    -0.491 OA
ATOM     11  C   UNL     1       4.763   1.330  -0.039  0.00  0.00    +0.277 C 
ENDBRANCH   5  10
ENDBRANCH   1   2
BRANCH   1  12
ATOM     12  C   UNL     1      -1.612  -1.235  -1.389  0.00  0.00    +0.238 C 
ATOM     13  O   UNL     1      -1.722  -2.419  -1.627  0.00  0.00    -0.273 OA
ATOM     14  N   UNL     1      -1.776  -0.331  -2.376  0.00  0.00    -0.309 N 
ATOM     15  H   UNL     1      -1.689   0.616  -2.185  0.00  0.00    +0.149 HD
BRANCH  14  16
ATOM     16  C   UNL     1      -2.086  -0.779  -3.736  0.00  0.00    +0.026 C 
ATOM     17  C   UNL     1      -3.401  -1.561  -3.728  0.00  0.00    +0.031 C 
ATOM     18  C   UNL     1      -2.220   0.436  -4.655  0.00  0.00    +0.031 C 
ATOM     19  C   UNL     1      -0.960  -1.682  -4.244  0.00  0.00    +0.031 C 
ENDBRANCH  14  16
ENDBRANCH   1  12
BRANCH   1  20
ATOM     20  N   UNL     1      -1.165  -1.937   0.890  0.00  0.00    -0.329 N 
ATOM     21  H   UNL     1      -0.291  -2.319   1.065  0.00  0.00    +0.147 HD
BRANCH  20  25
ATOM     22  C   UNL     1      -4.553  -3.607   2.642  0.00  0.00    +0.106 A 
ATOM     23  C   UNL     1      -3.308  -4.152   2.892  0.00  0.00    +0.030 A 
ATOM     24  C   UNL     1      -2.182  -3.601   2.313  0.00  0.00    +0.025 A 
ATOM     25  C   UNL     1      -2.302  -2.498   1.478  0.00  0.00    +0.028 A 
ATOM     26  C   UNL     1      -3.554  -1.949   1.233  0.00  0.00    +0.025 A 
ATOM     27  C   UNL     1      -4.677  -2.508   1.811  0.00  0.00    +0.030 A 
BRANCH  22  28
ATOM     28  S   UNL     1      -5.987  -4.313   3.384  0.00  0.00    +0.061 S 
ATOM     29  O   UNL     1      -7.088  -3.956   2.560  0.00  0.00    -0.153 OA
ATOM     30  O   UNL     1      -5.666  -5.664   3.683  0.00  0.00    -0.153 OA
BRANCH  28  36
ATOM     31  C   UNL     1      -4.255  -3.430   8.073  0.00  0.00    +0.009 C 
ATOM     32  C   UNL     1      -4.796  -2.945   6.726  0.00  0.00    +0.002 C 
ATOM     33  C   UNL     1      -5.708  -1.737   6.947  0.00  0.00    +0.006 C 
ATOM     34  C   UNL     1      -6.223  -1.230   5.598  0.00  0.00    +0.017 C 
ATOM     35  C   UNL     1      -7.040  -2.335   4.920  0.00  0.00    +0.109 C 
ATOM     36  N   UNL     1      -6.215  -3.548   4.835  0.00  0.00    -0.176 NA
ATOM     37  C   UNL     1      -5.601  -4.072   6.062  0.00  0.00    +0.112 C 
ENDBRANCH  28  36
ENDBRANCH  22  28
ENDBRANCH  20  25
ENDBRANCH   1  20
TORSDOF 9
