REMARK  Name = ZINC66741019
REMARK  3 active torsions:
REMARK  status: ('A' for Active; 'I' for Inactive)
REMARK    1  A    between atoms: C_1  and  C_2
REMARK    2  A    between atoms: C_11  and  C_14
REMARK    3  A    between atoms: C_19  and  C_20
REMARK                            x       y       z     vdW  Elec       q    Type
REMARK                         _______ _______ _______ _____ _____    ______ ____
ROOT
ATOM      1  C   UNL     1       0.252   2.620  -2.273  0.00  0.00    +0.067 C 
ATOM      2  C   UNL     1      -0.001   1.505  -1.292  0.00  0.00    +0.055 A 
ATOM      3  C   UNL     1      -0.068   0.199  -1.569  0.00  0.00    +0.082 A 
ATOM      4  C   UNL     1      -0.317  -0.454  -0.318  0.00  0.00    +0.168 A 
ATOM      5  N   UNL     1      -0.389   0.473   0.590  0.00  0.00    -0.167 NA
ATOM      6  N   UNL     1      -0.200   1.633   0.053  0.00  0.00    -0.279 N 
ATOM      7  H   UNL     1      -0.203   2.474   0.536  0.00  0.00    +0.189 HD
ATOM      8  C   UNL     1      -0.430  -1.925  -0.276  0.00  0.00    +0.268 C 
ATOM      9  O   UNL     1      -0.468  -2.531   0.777  0.00  0.00    -0.268 OA
ATOM     10  N   UNL     1      -0.490  -2.567  -1.467  0.00  0.00    -0.288 N 
ATOM     11  C   UNL     1      -0.621  -1.875  -2.744  0.00  0.00    +0.193 C 
ATOM     12  N   UNL     1       0.046  -0.564  -2.740  0.00  0.00    -0.319 N 
ATOM     13  H   UNL     1      -0.443  -3.536  -1.471  0.00  0.00    +0.151 HD
ATOM     14  H   UNL     1       0.541  -0.243  -3.510  0.00  0.00    +0.148 HD
ENDROOT
BRANCH  11  15
ATOM     15  C   UNL     1      -2.085  -1.675  -3.042  0.00  0.00    +0.036 A 
ATOM     16  C   UNL     1      -2.811  -0.571  -2.760  0.00  0.00    +0.112 A 
ATOM     17  N   UNL     1      -4.075  -0.784  -3.183  0.00  0.00    -0.284 N 
ATOM     18  H   UNL     1      -4.813  -0.159  -3.109  0.00  0.00    +0.188 HD
ATOM     19  N   UNL     1      -4.136  -2.064  -3.748  0.00  0.00    -0.174 NA
ATOM     20  C   UNL     1      -2.938  -2.603  -3.671  0.00  0.00    +0.099 A 
BRANCH  20  21
ATOM     21  C   UNL     1      -2.554  -3.952  -4.157  0.00  0.00    +0.003 A 
ATOM     22  C   UNL     1      -1.355  -4.132  -4.845  0.00  0.00    +0.011 A 
ATOM     23  C   UNL     1      -1.003  -5.388  -5.295  0.00  0.00    +0.020 A 
ATOM     24  C   UNL     1      -1.837  -6.468  -5.064  0.00  0.00    +0.041 A 
ATOM     25  C   UNL     1      -3.029  -6.294  -4.381  0.00  0.00    +0.020 A 
ATOM     26  C   UNL     1      -3.388  -5.043  -3.922  0.00  0.00    +0.011 A 
ATOM     27 CL   UNL     1      -1.388  -8.046  -5.632  0.00  0.00    -0.084 Cl
ENDBRANCH  20  21
ENDBRANCH  11  15
TORSDOF 2
