REMARK  Name = ZINC43800753
REMARK  7 active torsions:
REMARK  status: ('A' for Active; 'I' for Inactive)
REMARK    1  A    between atoms: C_1  and  N_2
REMARK    2  A    between atoms: N_2  and  C_3
REMARK    3  A    between atoms: N_2  and  C_4
REMARK    4  A    between atoms: C_4  and  C_6
REMARK    5  A    between atoms: C_4  and  C_17
REMARK    6  A    between atoms: C_6  and  N_7
REMARK    7  A    between atoms: C_8  and  C_10
REMARK                            x       y       z     vdW  Elec       q    Type
REMARK                         _______ _______ _______ _____ _____    ______ ____
ROOT
ATOM      1  N   UNL     1      -0.167   1.535   2.114  0.00  0.00    -0.314 N 
ATOM      2  C   UNL     1      -0.820   2.254   3.048  0.00  0.00    +0.240 C 
ATOM      3  O   UNL     1      -1.212   1.717   4.062  0.00  0.00    -0.273 OA
ATOM      4  H   UNL     1       0.146   1.964   1.302  0.00  0.00    +0.149 HD
ENDROOT
BRANCH   2   5
ATOM      5  C   UNL     1      -1.064   3.725   2.832  0.00  0.00    +0.187 C 
ATOM      6  C   UNL     1       0.274   4.467   2.807  0.00  0.00    -0.041 C 
ATOM      7  N   UNL     1       0.030   5.908   2.654  0.00  0.00    +0.383 N 
ATOM      8  C   UNL     1      -0.776   6.389   3.784  0.00  0.00    -0.054 C 
ATOM      9  C   UNL     1      -2.113   5.644   3.808  0.00  0.00    +0.142 C 
ATOM     10  O   UNL     1      -1.868   4.237   3.898  0.00  0.00    -0.371 OA
ATOM     11  H   UNL     1       0.912   6.399   2.637  0.00  0.00    -0.086 HD
ATOM     12  H   UNL     1      -0.465   6.076   1.791  0.00  0.00    -0.086 HD
ENDBRANCH   2   5
BRANCH   1  13
ATOM     13  C   UNL     1       0.070   0.104   2.324  0.00  0.00    +0.094 C 
BRANCH  13  14
ATOM     14  C   UNL     1       0.723  -0.493   1.075  0.00  0.00    -0.014 C 
BRANCH  14  15
ATOM     15  C   UNL     1       2.084   0.124   0.876  0.00  0.00    -0.022 A 
ATOM     16  C   UNL     1       2.454   1.123   0.038  0.00  0.00    +0.009 A 
ATOM     17  C   UNL     1       3.774   1.533   0.025  0.00  0.00    +0.008 A 
ATOM     18  C   UNL     1       4.659   0.923   0.850  0.00  0.00    +0.045 A 
ATOM     19  S   UNL     1       3.625  -0.266   1.689  0.00  0.00    -0.103 S 
ENDBRANCH  14  15
BRANCH  14  21
ATOM     20  C   UNL     1      -0.465  -2.551   1.404  0.00  0.00    -0.096 C 
ATOM     21  N   UNL     1       0.864  -1.945   1.244  0.00  0.00    +0.382 N 
ATOM     22  C   UNL     1       1.522  -2.514   0.060  0.00  0.00    -0.096 C 
ATOM     23  H   UNL     1       1.422  -2.136   2.063  0.00  0.00    -0.082 HD
ENDBRANCH  14  21
ENDBRANCH  13  14
ENDBRANCH   1  13
TORSDOF 5
