REMARK  Name = ZINC04336215
REMARK  6 active torsions:
REMARK  status: ('A' for Active; 'I' for Inactive)
REMARK    1  A    between atoms: C_10  and  C_11
REMARK    2  A    between atoms: C_11  and  S_12
REMARK    3  A    between atoms: S_12  and  C_13
REMARK    4  A    between atoms: C_13  and  C_14
REMARK    5  A    between atoms: N_16  and  N_17
REMARK    6  A    between atoms: C_18  and  C_20
REMARK                            x       y       z     vdW  Elec       q    Type
REMARK                         _______ _______ _______ _____ _____    ______ ____
ROOT
ATOM      1  C   UNL     1       2.369   1.025  -0.015  0.00  0.00    +0.239 C 
ATOM      2  O   UNL     1       2.385  -0.188  -0.022  0.00  0.00    -0.273 OA
ATOM      3  N   UNL     1       1.193   1.683  -0.000  0.00  0.00    -0.233 N 
ATOM      4  H   UNL     1       1.179   2.653   0.005  0.00  0.00    +0.173 HD
ENDROOT
BRANCH   3   5
ATOM      5  N   UNL     1      -0.011   0.966   0.007  0.00  0.00    -0.230 N 
ATOM      6  C   UNL     1      -1.187   1.624   0.017  0.00  0.00    +0.260 C 
ATOM      7  O   UNL     1      -1.204   2.839   0.023  0.00  0.00    -0.269 OA
ATOM      8  H   UNL     1       0.002  -0.004   0.002  0.00  0.00    +0.173 HD
BRANCH   6   9
ATOM      9  C   UNL     1      -2.457   0.868   0.018  0.00  0.00    +0.038 A 
ATOM     10  C   UNL     1      -2.440  -0.528   0.005  0.00  0.00    +0.016 A 
ATOM     11  C   UNL     1      -3.627  -1.229   0.013  0.00  0.00    +0.039 A 
ATOM     12  C   UNL     1      -4.836  -0.549   0.022  0.00  0.00    +0.123 A 
ATOM     13  C   UNL     1      -4.858   0.837   0.030  0.00  0.00    +0.039 A 
ATOM     14  C   UNL     1      -3.677   1.547   0.028  0.00  0.00    +0.016 A 
ATOM     15  F   UNL     1      -5.997  -1.241   0.024  0.00  0.00    -0.205 F 
ENDBRANCH   6   9
ENDBRANCH   3   5
BRANCH   1  16
ATOM     16  C   UNL     1       3.663   1.796  -0.023  0.00  0.00    +0.166 C 
BRANCH  16  17
ATOM     17  S   UNL     1       5.058   0.636  -0.043  0.00  0.00    -0.147 S 
BRANCH  17  18
ATOM     18  C   UNL     1       6.521   1.709  -0.051  0.00  0.00    +0.105 C 
BRANCH  18  28
ATOM     19  C   UNL     1       9.574  -0.367   3.495  0.00  0.00    +0.001 A 
ATOM     20  C   UNL     1       8.423   0.418   3.530  0.00  0.00    +0.001 A 
ATOM     21  C   UNL     1       7.819   0.829   2.381  0.00  0.00    +0.009 A 
ATOM     22  C   UNL     1       8.364   0.461   1.139  0.00  0.00    -0.014 A 
ATOM     23  C   UNL     1       9.533  -0.342   1.104  0.00  0.00    -0.018 A 
ATOM     24  C   UNL     1      10.128  -0.746   2.311  0.00  0.00    +0.008 A 
ATOM     25  C   UNL     1      10.075  -0.713  -0.138  0.00  0.00    +0.008 A 
ATOM     26  C   UNL     1       9.471  -0.303  -1.287  0.00  0.00    +0.001 A 
ATOM     27  C   UNL     1       8.320   0.481  -1.252  0.00  0.00    +0.005 A 
ATOM     28  C   UNL     1       7.766   0.860  -0.068  0.00  0.00    -0.030 A 
ENDBRANCH  18  28
ENDBRANCH  17  18
ENDBRANCH  16  17
ENDBRANCH   1  16
TORSDOF 6
