REMARK  Name = ZINC07775407
REMARK  8 active torsions:
REMARK  status: ('A' for Active; 'I' for Inactive)
REMARK    1  A    between atoms: C_1  and  C_2
REMARK    2  A    between atoms: C_5  and  S_13
REMARK    3  A    between atoms: N_6  and  C_7
REMARK    4  A    between atoms: S_13  and  C_14
REMARK    5  A    between atoms: C_14  and  C_16
REMARK    6  A    between atoms: C_14  and  C_17
REMARK    7  A    between atoms: C_29  and  C_30
REMARK    8  A    between atoms: C_29  and  C_31
REMARK                            x       y       z     vdW  Elec       q    Type
REMARK                         _______ _______ _______ _____ _____    ______ ____
ROOT
ATOM      1  C   UNL     1      -3.243   2.127  -0.442  0.00  0.00    +0.234 C 
ATOM      2  O   UNL     1      -4.441   2.083  -0.261  0.00  0.00    -0.274 OA
ATOM      3  N   UNL     1      -2.603   3.313  -0.432  0.00  0.00    -0.255 N 
ATOM      4  C   UNL     1      -3.317   4.521  -0.450  0.00  0.00    +0.059 A 
ATOM      5  C   UNL     1      -4.559   4.608  -1.053  0.00  0.00    +0.025 A 
ATOM      6  C   UNL     1      -5.233   5.816  -1.065  0.00  0.00    +0.002 A 
ATOM      7  C   UNL     1      -4.674   6.931  -0.467  0.00  0.00    +0.002 A 
ATOM      8  C   UNL     1      -3.436   6.849   0.144  0.00  0.00    +0.025 A 
ATOM      9  C   UNL     1      -2.751   5.644   0.156  0.00  0.00    +0.055 A 
ATOM     10  N   UNL     1      -1.500   5.538   0.774  0.00  0.00    -0.282 N 
ATOM     11  C   UNL     1      -0.713   4.468   0.555  0.00  0.00    +0.241 C 
ATOM     12  O   UNL     1       0.348   4.376   1.135  0.00  0.00    -0.273 OA
ATOM     13  C   UNL     1      -1.134   3.383  -0.403  0.00  0.00    +0.113 C 
ATOM     14  C   UNL     1      -0.609   3.704  -1.803  0.00  0.00    +0.042 C 
ATOM     15  C   UNL     1      -0.567   2.041   0.063  0.00  0.00    +0.042 C 
ATOM     16  H   UNL     1      -1.150   6.335   1.447  0.00  0.00    +0.155 HD
ENDROOT
BRANCH   1  17
ATOM     17  C   UNL     1      -2.469   0.856  -0.678  0.00  0.00    +0.137 C 
ATOM     18  C   UNL     1      -1.914   0.853  -2.103  0.00  0.00    +0.029 C 
BRANCH  17  19
ATOM     19  S   UNL     1      -3.564  -0.568  -0.454  0.00  0.00    -0.073 S 
BRANCH  19  24
ATOM     20  C   UNL     1      -1.234  -5.334  -0.767  0.00  0.00    +0.088 C 
ATOM     21  C   UNL     1      -1.470  -3.845  -0.756  0.00  0.00    +0.131 A 
ATOM     22  N   UNL     1      -0.572  -2.919  -0.935  0.00  0.00    -0.134 NA
ATOM     23  N   UNL     1      -1.116  -1.757  -0.868  0.00  0.00    -0.122 NA
ATOM     24  C   UNL     1      -2.402  -1.880  -0.632  0.00  0.00    +0.193 A 
ATOM     25  N   UNL     1      -2.669  -3.217  -0.557  0.00  0.00    -0.303 N 
BRANCH  25  26
ATOM     26  C   UNL     1      -3.968  -3.847  -0.314  0.00  0.00    +0.091 C 
ATOM     27  C   UNL     1      -4.947  -3.442  -1.418  0.00  0.00    +0.025 C 
ATOM     28  C   UNL     1      -6.304  -4.100  -1.164  0.00  0.00    +0.002 C 
ATOM     29  C   UNL     1      -6.847  -3.642   0.192  0.00  0.00    +0.000 C 
ATOM     30  C   UNL     1      -5.869  -4.048   1.296  0.00  0.00    +0.002 C 
ATOM     31  C   UNL     1      -4.511  -3.389   1.042  0.00  0.00    +0.025 C 
ENDBRANCH  25  26
ENDBRANCH  19  24
ENDBRANCH  17  19
ENDBRANCH   1  17
TORSDOF 4
