REMARK  Name = ZINC39926566
REMARK  9 active torsions:
REMARK  status: ('A' for Active; 'I' for Inactive)
REMARK    1  A    between atoms: C_1  and  O_2
REMARK    2  A    between atoms: O_2  and  C_3
REMARK    3  A    between atoms: C_6  and  N_9
REMARK    4  A    between atoms: C_10  and  C_32
REMARK    5  A    between atoms: C_14  and  S_16
REMARK    6  A    between atoms: S_16  and  C_17
REMARK    7  A    between atoms: C_17  and  C_18
REMARK    8  A    between atoms: N_20  and  N_21
REMARK    9  A    between atoms: C_22  and  C_23
REMARK                            x       y       z     vdW  Elec       q    Type
REMARK                         _______ _______ _______ _____ _____    ______ ____
ROOT
ATOM      1  N   UNL     1       2.339  -2.473  -4.598  0.00  0.00    -0.284 N 
ATOM      2  C   UNL     1       2.681  -3.906  -4.484  0.00  0.00    +0.188 C 
ATOM      3  N   UNL     1       3.014  -4.314  -5.873  0.00  0.00    -0.230 NA
ATOM      4  N   UNL     1       3.720  -3.137  -6.404  0.00  0.00    -0.226 NA
ATOM      5  C   UNL     1       2.994  -1.984  -5.823  0.00  0.00    +0.218 C 
ATOM      6  H   UNL     1       2.178  -4.504  -6.405  0.00  0.00    +0.143 HD
ATOM      7  H   UNL     1       3.681  -3.115  -7.412  0.00  0.00    +0.143 HD
ENDROOT
BRANCH   1  11
ATOM      8  C   UNL     1      -0.029  -0.257  -1.979  0.00  0.00    +0.120 A 
ATOM      9  C   UNL     1       0.411   0.311  -3.166  0.00  0.00    +0.047 A 
ATOM     10  C   UNL     1       1.196  -0.423  -4.034  0.00  0.00    +0.027 A 
ATOM     11  C   UNL     1       1.544  -1.729  -3.719  0.00  0.00    +0.033 A 
ATOM     12  C   UNL     1       1.103  -2.297  -2.530  0.00  0.00    +0.027 A 
ATOM     13  C   UNL     1       0.323  -1.560  -1.661  0.00  0.00    +0.047 A 
BRANCH   8  15
ATOM     14  C   UNL     1      -1.127   1.801  -1.516  0.00  0.00    +0.277 C 
ATOM     15  O   UNL     1      -0.802   0.466  -1.125  0.00  0.00    -0.495 OA
ENDBRANCH   8  15
ENDBRANCH   1  11
BRANCH   2  16
ATOM     16  C   UNL     1       1.501  -4.690  -3.969  0.00  0.00    -0.012 A 
ATOM     17  C   UNL     1       0.270  -4.570  -4.586  0.00  0.00    +0.007 A 
ATOM     18  C   UNL     1      -0.812  -5.290  -4.114  0.00  0.00    +0.000 A 
ATOM     19  C   UNL     1      -0.663  -6.129  -3.026  0.00  0.00    +0.000 A 
ATOM     20  C   UNL     1       0.569  -6.250  -2.410  0.00  0.00    +0.000 A 
ATOM     21  C   UNL     1       1.652  -5.533  -2.885  0.00  0.00    +0.007 A 
ENDBRANCH   2  16
BRANCH   5  22
ATOM     22  S   UNL     1       4.165  -0.659  -5.416  0.00  0.00    -0.112 S 
BRANCH  22  23
ATOM     23  C   UNL     1       5.345  -1.448  -4.286  0.00  0.00    +0.169 C 
BRANCH  23  24
ATOM     24  C   UNL     1       6.386  -0.443  -3.865  0.00  0.00    +0.242 C 
ATOM     25  O   UNL     1       6.336   0.693  -4.285  0.00  0.00    -0.273 OA
ATOM     26  N   UNL     1       7.371  -0.807  -3.021  0.00  0.00    -0.206 N 
ATOM     27  H   UNL     1       7.411  -1.716  -2.685  0.00  0.00    +0.177 HD
BRANCH  26  28
ATOM     28  N   UNL     1       8.339   0.127  -2.630  0.00  0.00    -0.188 NA
ATOM     29  C   UNL     1       9.297  -0.227  -1.810  0.00  0.00    +0.136 C 
BRANCH  29  30
ATOM     30  C   UNL     1      10.265   0.708  -1.418  0.00  0.00    +0.000 C 
ATOM     31  C   UNL     1      11.345   0.495  -0.564  0.00  0.00    +0.004 A 
ATOM     32  C   UNL     1      11.794  -0.644   0.141  0.00  0.00    +0.010 A 
ATOM     33  C   UNL     1      12.903  -0.560   0.918  0.00  0.00    +0.001 A 
ATOM     34  C   UNL     1      13.622   0.632   1.043  0.00  0.00    +0.002 A 
ATOM     35  C   UNL     1      13.250   1.763   0.397  0.00  0.00    +0.026 A 
ATOM     36  C   UNL     1      12.099   1.755  -0.436  0.00  0.00    +0.043 A 
ATOM     37  N   UNL     1      11.538   2.702  -1.157  0.00  0.00    -0.380 N 
ATOM     38  C   UNL     1      10.360   2.158  -1.840  0.00  0.00    +0.150 C 
ATOM     39  H   UNL     1      11.857   3.616  -1.229  0.00  0.00    +0.160 HD
ENDBRANCH  29  30
ENDBRANCH  26  28
ENDBRANCH  23  24
ENDBRANCH  22  23
ENDBRANCH   5  22
TORSDOF 8
