REMARK  Name = ZINC52595220
REMARK  5 active torsions:
REMARK  status: ('A' for Active; 'I' for Inactive)
REMARK    1  A    between atoms: C_4  and  C_11
REMARK    2  A    between atoms: N_14  and  C_17
REMARK    3  A    between atoms: C_17  and  C_18
REMARK    4  A    between atoms: C_18  and  C_19
REMARK    5  A    between atoms: C_24  and  C_30
REMARK                            x       y       z     vdW  Elec       q    Type
REMARK                         _______ _______ _______ _____ _____    ______ ____
ROOT
ATOM      1  C   UNL     1       4.109   3.276  -0.020  0.00  0.00    -0.049 C 
ATOM      2  C   UNL     1       3.193   4.240  -0.103  0.00  0.00    -0.042 C 
ATOM      3  C   UNL     1       3.548   5.699  -0.112  0.00  0.00    -0.051 C 
ATOM      4  N   UNL     1       4.907   5.897   0.405  0.00  0.00    +0.382 N 
ATOM      5  C   UNL     1       5.835   5.028  -0.335  0.00  0.00    -0.074 C 
ATOM      6  C   UNL     1       5.579   3.576   0.082  0.00  0.00    +0.016 C 
ATOM      7  H   UNL     1       4.933   5.661   1.386  0.00  0.00    -0.081 HD
ENDROOT
BRANCH   1  11
ATOM      8  C   UNL     1       6.366  -0.614   0.554  0.00  0.00    +0.004 A 
ATOM      9  C   UNL     1       5.857   0.633   0.406  0.00  0.00    +0.010 A 
ATOM     10  C   UNL     1       4.473   0.803   0.166  0.00  0.00    +0.006 A 
ATOM     11  C   UNL     1       3.686   1.931  -0.023  0.00  0.00    -0.016 C 
ATOM     12  C   UNL     1       2.279   1.416  -0.232  0.00  0.00    +0.149 C 
ATOM     13  N   UNL     1       2.365  -0.045  -0.143  0.00  0.00    -0.378 N 
ATOM     14  C   UNL     1       3.614  -0.391   0.083  0.00  0.00    +0.079 A 
ATOM     15  C   UNL     1       4.222  -1.667   0.250  0.00  0.00    +0.147 A 
ATOM     16  C   UNL     1       5.555  -1.752   0.477  0.00  0.00    +0.040 A 
ATOM     17  F   UNL     1       3.473  -2.790   0.182  0.00  0.00    -0.203 F 
ATOM     18  H   UNL     1       1.620  -0.659  -0.236  0.00  0.00    +0.160 HD
ENDBRANCH   1  11
BRANCH   4  19
ATOM     19  C   UNL     1       5.301   7.301   0.226  0.00  0.00    -0.076 C 
BRANCH  19  20
ATOM     20  C   UNL     1       4.406   8.196   1.087  0.00  0.00    +0.018 C 
BRANCH  20  21
ATOM     21  C   UNL     1       4.816   9.658   0.901  0.00  0.00    +0.147 C 
ATOM     22  C   UNL     1       3.853  10.545   1.646  0.00  0.00    -0.016 A 
ATOM     23  C   UNL     1       2.495  10.272   1.557  0.00  0.00    +0.007 A 
ATOM     24  C   UNL     1       1.578  11.060   2.218  0.00  0.00    +0.013 A 
ATOM     25  C   UNL     1       2.018  12.142   2.982  0.00  0.00    +0.037 A 
ATOM     26  C   UNL     1       3.383  12.411   3.071  0.00  0.00    +0.017 A 
ATOM     27  C   UNL     1       4.294  11.611   2.405  0.00  0.00    -0.039 A 
ATOM     28  C   UNL     1       5.763  11.926   2.534  0.00  0.00    +0.063 C 
ATOM     29  C   UNL     1       6.544  11.218   1.426  0.00  0.00    +0.165 C 
ATOM     30  O   UNL     1       6.141   9.844   1.398  0.00  0.00    -0.372 OA
BRANCH  25  31
ATOM     31  C   UNL     1       1.044  12.996   3.694  0.00  0.00    +0.242 C 
ATOM     32  O   UNL     1       1.432  13.937   4.359  0.00  0.00    -0.270 OA
ATOM     33  N   UNL     1      -0.275  12.732   3.605  0.00  0.00    -0.325 N 
ATOM     34  H   UNL     1      -0.584  11.982   3.074  0.00  0.00    +0.145 HD
ATOM     35  H   UNL     1      -0.914  13.293   4.071  0.00  0.00    +0.145 HD
ENDBRANCH  25  31
ENDBRANCH  20  21
ENDBRANCH  19  20
ENDBRANCH   4  19
TORSDOF 5
