REMARK  Name = ZINC08340360
REMARK  5 active torsions:
REMARK  status: ('A' for Active; 'I' for Inactive)
REMARK    1  A    between atoms: C_1  and  C_2
REMARK    2  A    between atoms: C_2  and  N_3
REMARK    3  A    between atoms: C_5  and  N_17
REMARK    4  A    between atoms: C_6  and  C_8
REMARK    5  A    between atoms: N_12  and  C_13
REMARK                            x       y       z     vdW  Elec       q    Type
REMARK                         _______ _______ _______ _____ _____    ______ ____
ROOT
ATOM      1  N   UNL     1       6.074   3.595  -3.098  0.00  0.00    -0.269 N 
ATOM      2  C   UNL     1       6.790   3.814  -1.962  0.00  0.00    +0.131 A 
ATOM      3  C   UNL     1       6.034   3.411  -0.911  0.00  0.00    +0.074 A 
ATOM      4  C   UNL     1       4.812   2.917  -1.423  0.00  0.00    +0.150 A 
ATOM      5  N   UNL     1       4.843   3.034  -2.736  0.00  0.00    -0.166 NA
ENDROOT
BRANCH   4   6
ATOM      6  C   UNL     1       3.694   2.371  -0.625  0.00  0.00    +0.187 A 
ATOM      7  N   UNL     1       3.654   2.250   0.681  0.00  0.00    -0.127 NA
ATOM      8  N   UNL     1       2.530   1.741   1.040  0.00  0.00    -0.121 NA
ATOM      9  C   UNL     1       1.787   1.498  -0.015  0.00  0.00    +0.203 A 
ATOM     10  N   UNL     1       2.500   1.893  -1.112  0.00  0.00    -0.297 N 
ATOM     11  S   UNL     1       0.169   0.800  -0.016  0.00  0.00    -0.009 SA
BRANCH  10  12
ATOM     12  C   UNL     1       2.079   1.823  -2.514  0.00  0.00    +0.091 C 
ATOM     13  C   UNL     1       0.588   1.629  -2.795  0.00  0.00    +0.027 C 
ATOM     14  C   UNL     1       1.568   0.477  -3.031  0.00  0.00    +0.027 C 
ENDBRANCH  10  12
ENDBRANCH   4   6
BRANCH   3  15
ATOM     15  N   UNL     1       6.401   3.469   0.444  0.00  0.00    -0.355 N 
ATOM     16  H   UNL     1       5.706   3.112   1.218  0.00  0.00    +0.142 HD
ATOM     17  H   UNL     1       7.384   3.872   0.731  0.00  0.00    +0.142 HD
ENDBRANCH   3  15
BRANCH   1  19
ATOM     18  C   UNL     1       6.418   2.630  -5.319  0.00  0.00    +0.029 C 
ATOM     19  C   UNL     1       6.515   3.894  -4.463  0.00  0.00    +0.140 C 
ENDBRANCH   1  19
TORSDOF 4
