REMARK  Name = ZINC08616607
REMARK  6 active torsions:
REMARK  status: ('A' for Active; 'I' for Inactive)
REMARK    1  A    between atoms: C_6  and  O_7
REMARK    2  A    between atoms: O_7  and  C_8
REMARK    3  A    between atoms: C_8  and  C_9
REMARK    4  A    between atoms: C_9  and  C_11
REMARK    5  A    between atoms: C_9  and  O_28
REMARK    6  A    between atoms: C_11  and  N_55
REMARK                            x       y       z     vdW  Elec       q    Type
REMARK                         _______ _______ _______ _____ _____    ______ ____
ROOT
ATOM      1  C   UNL     1       2.415   0.702   1.575  0.00  0.00    -0.077 C 
ATOM      2  C   UNL     1       1.392   1.823   1.333  0.00  0.00    +0.000 C 
ATOM      3  C   UNL     1       0.750   1.721  -0.027  0.00  0.00    +0.105 C 
ATOM      4  N   UNL     1      -0.495   0.933   0.099  0.00  0.00    -0.311 N 
ATOM      5  C   UNL     1      -0.293  -0.452   0.141  0.00  0.00    +0.088 C 
ATOM      6  C   UNL     1       0.552  -0.877   1.359  0.00  0.00    -0.060 C 
ATOM      7  C   UNL     1      -1.397   1.271  -0.889  0.00  0.00    +0.162 A 
ATOM      8  N   UNL     1      -2.029   0.485  -1.731  0.00  0.00    -0.225 NA
ATOM      9  C   UNL     1      -2.897   0.959  -2.654  0.00  0.00    +0.080 A 
ATOM     10  C   UNL     1      -3.640   0.227  -3.609  0.00  0.00    +0.030 A 
ATOM     11  C   UNL     1      -4.478   0.868  -4.484  0.00  0.00    +0.022 A 
ATOM     12  C   UNL     1      -4.628   2.248  -4.466  0.00  0.00    +0.042 A 
ATOM     13  C   UNL     1      -3.916   2.994  -3.544  0.00  0.00    +0.037 A 
ATOM     14  C   UNL     1      -3.074   2.361  -2.664  0.00  0.00    +0.042 A 
ATOM     15  S   UNL     1      -1.997   2.889  -1.354  0.00  0.00    -0.052 S 
ATOM     16 CL   UNL     1      -5.699   3.028  -5.588  0.00  0.00    -0.084 Cl
ATOM     17  N   UNL     1       1.967  -0.623   1.032  0.00  0.00    +0.382 N 
ATOM     18  H   UNL     1       2.069  -0.609   0.011  0.00  0.00    -0.082 HD
ENDROOT
BRANCH  17  19
ATOM     19  C   UNL     1       2.799  -1.699   1.574  0.00  0.00    -0.044 C 
BRANCH  19  20
ATOM     20  C   UNL     1       2.820  -1.674   3.103  0.00  0.00    +0.135 C 
BRANCH  20  21
ATOM     21  O   UNL     1       1.495  -1.868   3.601  0.00  0.00    -0.390 OA
ATOM     22  H   UNL     1       1.093  -2.707   3.335  0.00  0.00    +0.210 HD
ENDBRANCH  20  21
BRANCH  20  23
ATOM     23  C   UNL     1       3.727  -2.793   3.619  0.00  0.00    +0.258 C 
BRANCH  23  24
ATOM     24  O   UNL     1       3.840  -2.698   5.040  0.00  0.00    -0.489 OA
BRANCH  24  30
ATOM     25  C   UNL     1       5.252  -4.608   4.917  0.00  0.00    +0.049 A 
ATOM     26  C   UNL     1       6.046  -5.549   5.545  0.00  0.00    +0.053 A 
ATOM     27  C   UNL     1       6.202  -5.519   6.921  0.00  0.00    +0.166 A 
ATOM     28  C   UNL     1       5.561  -4.536   7.672  0.00  0.00    +0.170 A 
ATOM     29  C   UNL     1       4.769  -3.592   7.039  0.00  0.00    +0.095 A 
ATOM     30  C   UNL     1       4.617  -3.626   5.661  0.00  0.00    +0.124 A 
ATOM     31  O   UNL     1       5.870  -4.721   8.988  0.00  0.00    -0.452 OA
ATOM     32  C   UNL     1       6.375  -6.066   9.080  0.00  0.00    +0.466 C 
ATOM     33  O   UNL     1       6.914  -6.319   7.769  0.00  0.00    -0.453 OA
ENDBRANCH  24  30
ENDBRANCH  23  24
ENDBRANCH  20  23
ENDBRANCH  19  20
ENDBRANCH  17  19
TORSDOF 6
