REMARK  Name = ZINC36073557
REMARK  14 active torsions:
REMARK  status: ('A' for Active; 'I' for Inactive)
REMARK    1  A    between atoms: C_1  and  C_2
REMARK    2  A    between atoms: C_2  and  O_3
REMARK    3  A    between atoms: O_3  and  C_4
REMARK    4  A    between atoms: C_4  and  C_6
REMARK    5  A    between atoms: C_13  and  C_15
REMARK    6  A    between atoms: C_18  and  C_20
REMARK    7  A    between atoms: C_20  and  N_21
REMARK    8  A    between atoms: N_21  and  C_22
REMARK    9  A    between atoms: N_21  and  C_31
REMARK   10  A    between atoms: C_22  and  C_23
REMARK   11  A    between atoms: C_27  and  O_29
REMARK   12  A    between atoms: O_29  and  C_30
REMARK   13  A    between atoms: C_31  and  C_33
REMARK   14  A    between atoms: C_31  and  C_34
REMARK                            x       y       z     vdW  Elec       q    Type
REMARK                         _______ _______ _______ _____ _____    ______ ____
ROOT
ATOM      1  C   UNL     1      -9.940  -5.344   1.463  0.00  0.00    +0.020 C 
ENDROOT
BRANCH   1   5
ATOM      2  C   UNL     1     -10.921  -2.112   2.771  0.00  0.00    +0.164 A 
ATOM      3  C   UNL     1     -12.133  -2.602   2.397  0.00  0.00    +0.230 A 
ATOM      4  O   UNL     1     -11.919  -3.824   1.882  0.00  0.00    -0.449 OA
ATOM      5  C   UNL     1     -10.605  -4.078   1.939  0.00  0.00    +0.179 A 
ATOM      6  N   UNL     1      -9.994  -3.059   2.465  0.00  0.00    -0.210 NA
BRANCH   2  13
ATOM      7  C   UNL     1      -8.157   1.679   3.138  0.00  0.00    +0.115 C 
ATOM      8  C   UNL     1      -6.910   0.816   2.932  0.00  0.00    +0.018 C 
ATOM      9  C   UNL     1      -7.311  -0.521   2.306  0.00  0.00    +0.020 C 
ATOM     10  C   UNL     1      -8.260  -1.261   3.255  0.00  0.00    +0.108 C 
ATOM     11  N   UNL     1      -9.392  -0.380   3.573  0.00  0.00    -0.295 N 
ATOM     12  C   UNL     1      -9.116   0.965   4.096  0.00  0.00    +0.122 C 
ATOM     13  C   UNL     1     -10.660  -0.798   3.388  0.00  0.00    +0.268 C 
ATOM     14  O   UNL     1     -11.589  -0.092   3.730  0.00  0.00    -0.268 OA
BRANCH   7  15
ATOM     15  C   UNL     1      -7.758   3.008   3.725  0.00  0.00    +0.312 C 
ATOM     16  O   UNL     1      -6.595   3.243   3.954  0.00  0.00    -0.250 OA
BRANCH  15  17
ATOM     17  O   UNL     1      -8.694   3.932   3.993  0.00  0.00    -0.465 OA
BRANCH  17  19
ATOM     18  C   UNL     1      -9.444   6.089   4.784  0.00  0.00    +0.048 C 
ATOM     19  C   UNL     1      -8.244   5.170   4.548  0.00  0.00    +0.229 C 
ENDBRANCH  17  19
ENDBRANCH  15  17
ENDBRANCH   7  15
ENDBRANCH   2  13
ENDBRANCH   1   5
BRANCH   1  20
ATOM     20  N   UNL     1     -10.182  -6.419   2.434  0.00  0.00    +0.393 N 
ATOM     21  H   UNL     1     -11.122  -6.341   2.794  0.00  0.00    -0.080 HD
BRANCH  20  22
ATOM     22  C   UNL     1      -9.223  -6.306   3.540  0.00  0.00    -0.040 C 
ATOM     23  C   UNL     1      -8.831  -4.839   3.728  0.00  0.00    -0.008 C 
BRANCH  22  24
ATOM     24  C   UNL     1      -9.853  -6.824   4.807  0.00  0.00    -0.061 A 
ATOM     25  C   UNL     1     -11.140  -6.447   5.144  0.00  0.00    +0.002 A 
ATOM     26  C   UNL     1     -11.718  -6.922   6.306  0.00  0.00    +0.000 A 
ATOM     27  C   UNL     1     -11.010  -7.775   7.131  0.00  0.00    +0.000 A 
ATOM     28  C   UNL     1      -9.724  -8.153   6.795  0.00  0.00    +0.000 A 
ATOM     29  C   UNL     1      -9.147  -7.682   5.630  0.00  0.00    +0.002 A 
ENDBRANCH  22  24
ENDBRANCH  20  22
BRANCH  20  30
ATOM     30  C   UNL     1     -10.018  -7.721   1.774  0.00  0.00    -0.041 C 
BRANCH  30  31
ATOM     31  C   UNL     1     -10.383  -8.822   2.736  0.00  0.00    -0.060 A 
ATOM     32  C   UNL     1      -9.391  -9.496   3.425  0.00  0.00    +0.002 A 
ATOM     33  C   UNL     1      -9.722 -10.506   4.308  0.00  0.00    +0.004 A 
ATOM     34  C   UNL     1     -11.047 -10.845   4.505  0.00  0.00    +0.045 A 
ATOM     35  C   UNL     1     -12.045 -10.171   3.816  0.00  0.00    +0.120 A 
ATOM     36  C   UNL     1     -11.709  -9.154   2.934  0.00  0.00    +0.047 A 
BRANCH  35  37
ATOM     37  O   UNL     1     -13.348 -10.503   4.008  0.00  0.00    -0.495 OA
ATOM     38  C   UNL     1     -13.620 -11.557   4.935  0.00  0.00    +0.277 C 
ENDBRANCH  35  37
ENDBRANCH  30  31
ENDBRANCH  20  30
ENDBRANCH   1  20
TORSDOF 11
