REMARK  Name = ZINC04492035
REMARK  6 active torsions:
REMARK  status: ('A' for Active; 'I' for Inactive)
REMARK    1  A    between atoms: C_1  and  C_2
REMARK    2  A    between atoms: C_3  and  C_20
REMARK    3  A    between atoms: C_4  and  C_10
REMARK    4  A    between atoms: C_20  and  O_22
REMARK    5  A    between atoms: O_22  and  C_23
REMARK    6  A    between atoms: C_23  and  C_24
REMARK                            x       y       z     vdW  Elec       q    Type
REMARK                         _______ _______ _______ _____ _____    ______ ____
ROOT
ATOM      1  C   UNL     1      -0.454   1.624  -0.076  0.00  0.00    +0.061 C 
ATOM      2  C   UNL     1      -0.287   0.143   0.145  0.00  0.00    +0.021 C 
ATOM      3  C   UNL     1      -1.372  -0.660   0.114  0.00  0.00    +0.078 C 
ATOM      4  C   UNL     1      -1.159  -2.143   0.342  0.00  0.00    +0.144 C 
ATOM      5  N   UNL     1       0.225  -2.589   0.580  0.00  0.00    -0.288 N 
ATOM      6  C   UNL     1       1.206  -1.665   0.582  0.00  0.00    +0.304 C 
ATOM      7  O   UNL     1       2.350  -2.023   0.777  0.00  0.00    -0.252 OA
ATOM      8  N   UNL     1       0.961  -0.366   0.369  0.00  0.00    -0.273 N 
ATOM      9  H   UNL     1       0.425  -3.526   0.733  0.00  0.00    +0.151 HD
ATOM     10  H   UNL     1       1.711   0.249   0.378  0.00  0.00    +0.156 HD
ENDROOT
BRANCH   4  11
ATOM     11  C   UNL     1      -1.990  -2.555   1.530  0.00  0.00    -0.015 A 
ATOM     12  C   UNL     1      -2.447  -1.616   2.403  0.00  0.00    +0.006 A 
ATOM     13  C   UNL     1      -3.217  -1.978   3.507  0.00  0.00    +0.001 A 
ATOM     14  C   UNL     1      -3.534  -3.281   3.744  0.00  0.00    +0.008 A 
ATOM     15  C   UNL     1      -3.080  -4.277   2.864  0.00  0.00    -0.018 A 
ATOM     16  C   UNL     1      -2.302  -3.909   1.738  0.00  0.00    -0.013 A 
ATOM     17  C   UNL     1      -1.853  -4.905   0.854  0.00  0.00    +0.009 A 
ATOM     18  C   UNL     1      -2.175  -6.207   1.088  0.00  0.00    +0.001 A 
ATOM     19  C   UNL     1      -2.945  -6.569   2.192  0.00  0.00    +0.001 A 
ATOM     20  C   UNL     1      -3.386  -5.633   3.075  0.00  0.00    +0.008 A 
ENDBRANCH   4  11
BRANCH   3  21
ATOM     21  C   UNL     1      -2.664  -0.135  -0.122  0.00  0.00    +0.339 C 
ATOM     22  O   UNL     1      -2.827   1.068  -0.199  0.00  0.00    -0.245 OA
BRANCH  21  23
ATOM     23  O   UNL     1      -3.716  -0.969  -0.263  0.00  0.00    -0.460 OA
BRANCH  23  24
ATOM     24  C   UNL     1      -4.970  -0.378  -0.611  0.00  0.00    +0.243 C 
BRANCH  24  25
ATOM     25  C   UNL     1      -6.004  -1.480  -0.847  0.00  0.00    +0.121 C 
ATOM     26 BR   UNL     1      -6.331  -2.443   0.835  0.00  0.00    -0.088 Br
ENDBRANCH  24  25
ENDBRANCH  23  24
ENDBRANCH  21  23
ENDBRANCH   3  21
TORSDOF 5
