REMARK  Name = ZINC09415320
REMARK  9 active torsions:
REMARK  status: ('A' for Active; 'I' for Inactive)
REMARK    1  A    between atoms: C_1  and  C_2
REMARK    2  A    between atoms: C_2  and  C_3
REMARK    3  A    between atoms: C_2  and  C_4
REMARK    4  A    between atoms: C_7  and  C_10
REMARK    5  A    between atoms: C_17  and  S_30
REMARK    6  A    between atoms: C_26  and  C_28
REMARK    7  A    between atoms: C_26  and  C_29
REMARK    8  A    between atoms: S_30  and  C_31
REMARK    9  A    between atoms: C_31  and  C_32
REMARK                            x       y       z     vdW  Elec       q    Type
REMARK                         _______ _______ _______ _____ _____    ______ ____
ROOT
ATOM      1  C   UNL     1       9.372  -3.854  -0.805  0.00  0.00    +0.092 C 
ATOM      2  C   UNL     1       8.076  -3.143  -1.056  0.00  0.00    +0.069 A 
ATOM      3  C   UNL     1       7.643  -2.903  -2.365  0.00  0.00    +0.258 A 
ATOM      4  O   UNL     1       8.309  -3.274  -3.318  0.00  0.00    -0.267 OA
ATOM      5  N   UNL     1       6.474  -2.253  -2.553  0.00  0.00    -0.302 N 
ATOM      6  H   UNL     1       6.157  -2.079  -3.453  0.00  0.00    +0.171 HD
ATOM      7  C   UNL     1       5.740  -1.842  -1.482  0.00  0.00    +0.171 A 
ATOM      8  N   UNL     1       6.146  -2.063  -0.247  0.00  0.00    -0.208 NA
ATOM      9  C   UNL     1       7.291  -2.708  -0.002  0.00  0.00    +0.135 A 
ATOM     10  N   UNL     1       7.699  -2.941   1.296  0.00  0.00    -0.302 N 
ATOM     11  C   UNL     1       8.628  -3.908   1.572  0.00  0.00    +0.017 C 
ATOM     12  C   UNL     1       9.446  -4.378   0.607  0.00  0.00    +0.024 C 
ATOM     13  C   UNL     1      10.401  -5.371   0.889  0.00  0.00    +0.162 C 
ATOM     14  O   UNL     1      11.108  -5.789  -0.007  0.00  0.00    -0.292 OA
ATOM     15  C   UNL     1      10.565  -5.926   2.277  0.00  0.00    +0.086 C 
ATOM     16  C   UNL     1      10.146  -4.858   3.293  0.00  0.00    -0.023 C 
ATOM     17  C   UNL     1       8.708  -4.435   2.984  0.00  0.00    +0.058 C 
ATOM     18  C   UNL     1      11.075  -3.647   3.180  0.00  0.00    +0.011 C 
ATOM     19  C   UNL     1      10.220  -5.435   4.708  0.00  0.00    +0.011 C 
ATOM     20  H   UNL     1       7.324  -2.415   2.020  0.00  0.00    +0.153 HD
ENDROOT
BRANCH   1  24
ATOM     21  C   UNL     1      12.605  -1.140  -1.461  0.00  0.00    -0.045 A 
ATOM     22  C   UNL     1      12.510  -2.296  -2.213  0.00  0.00    +0.004 A 
ATOM     23  C   UNL     1      11.464  -3.175  -2.001  0.00  0.00    +0.005 A 
ATOM     24  C   UNL     1      10.513  -2.897  -1.036  0.00  0.00    -0.035 A 
ATOM     25  C   UNL     1      10.606  -1.738  -0.288  0.00  0.00    +0.005 A 
ATOM     26  C   UNL     1      11.655  -0.863  -0.497  0.00  0.00    +0.004 A 
BRANCH  21  28
ATOM     27  C   UNL     1      13.189   1.182  -2.104  0.00  0.00    +0.012 C 
ATOM     28  C   UNL     1      13.745  -0.183  -1.693  0.00  0.00    +0.013 C 
ATOM     29  C   UNL     1      14.558  -0.036  -0.405  0.00  0.00    +0.012 C 
ENDBRANCH  21  28
ENDBRANCH   1  24
BRANCH   7  30
ATOM     30  S   UNL     1       4.221  -0.993  -1.752  0.00  0.00    -0.083 S 
BRANCH  30  31
ATOM     31  C   UNL     1       3.711  -0.707  -0.039  0.00  0.00    +0.112 C 
BRANCH  31  32
ATOM     32  C   UNL     1       2.396   0.029  -0.022  0.00  0.00    -0.037 A 
ATOM     33  C   UNL     1       1.208  -0.679  -0.014  0.00  0.00    +0.004 A 
ATOM     34  C   UNL     1       0.002  -0.004   0.002  0.00  0.00    +0.000 A 
ATOM     35  C   UNL     1      -0.017   1.378   0.010  0.00  0.00    +0.000 A 
ATOM     36  C   UNL     1       1.171   2.086   0.002  0.00  0.00    +0.000 A 
ATOM     37  C   UNL     1       2.377   1.411  -0.014  0.00  0.00    +0.004 A 
ENDBRANCH  31  32
ENDBRANCH  30  31
ENDBRANCH   7  30
TORSDOF 5
