REMARK  Name = ZINC49485390
REMARK  6 active torsions:
REMARK  status: ('A' for Active; 'I' for Inactive)
REMARK    1  A    between atoms: C_1  and  C_2
REMARK    2  A    between atoms: C_2  and  N_3
REMARK    3  A    between atoms: C_5  and  C_15
REMARK    4  A    between atoms: C_11  and  C_14
REMARK    5  A    between atoms: C_19  and  C_21
REMARK    6  A    between atoms: C_23  and  C_26
REMARK                            x       y       z     vdW  Elec       q    Type
REMARK                         _______ _______ _______ _____ _____    ______ ____
ROOT
ATOM      1  C   UNL     1      -0.302  -1.354  -4.681  0.00  0.00    +0.252 C 
ATOM      2  O   UNL     1      -1.511  -1.235  -4.612  0.00  0.00    -0.270 OA
ATOM      3  N   UNL     1       0.275  -1.690  -5.852  0.00  0.00    -0.296 N 
ATOM      4  C   UNL     1       1.635  -2.018  -6.306  0.00  0.00    +0.122 C 
ATOM      5  C   UNL     1       1.002  -2.859  -7.423  0.00  0.00    +0.112 C 
ATOM      6  C   UNL     1      -0.178  -1.899  -7.235  0.00  0.00    +0.122 C 
ENDROOT
BRANCH   1   9
ATOM      7  N   UNL     1       2.032   0.267  -2.280  0.00  0.00    -0.331 N 
ATOM      8  C   UNL     1       1.264   0.028  -3.352  0.00  0.00    +0.104 A 
ATOM      9  C   UNL     1       0.529  -1.130  -3.488  0.00  0.00    +0.100 A 
ATOM     10  C   UNL     1       0.590  -2.138  -2.417  0.00  0.00    +0.203 A 
ATOM     11  O   UNL     1      -0.040  -3.179  -2.487  0.00  0.00    -0.286 OA
ATOM     12  C   UNL     1       1.446  -1.834  -1.257  0.00  0.00    +0.065 A 
ATOM     13  C   UNL     1       2.154  -0.619  -1.235  0.00  0.00    +0.145 A 
ATOM     14  N   UNL     1       2.933  -0.334  -0.199  0.00  0.00    -0.234 NA
ATOM     15  C   UNL     1       3.070  -1.162   0.815  0.00  0.00    +0.041 A 
ATOM     16  C   UNL     1       2.406  -2.378   0.854  0.00  0.00    +0.024 A 
ATOM     17  C   UNL     1       1.570  -2.727  -0.191  0.00  0.00    +0.017 A 
ATOM     18  C   UNL     1       3.970  -0.778   1.961  0.00  0.00    +0.065 C 
BRANCH   7  20
ATOM     19  C   UNL     1       4.154   1.334  -2.864  0.00  0.00    +0.027 C 
ATOM     20  C   UNL     1       2.780   1.526  -2.220  0.00  0.00    +0.120 C 
ENDBRANCH   7  20
ENDBRANCH   1   9
BRANCH   5  21
ATOM     21  C   UNL     1       1.694  -2.738  -8.755  0.00  0.00    +0.234 A 
ATOM     22  N   UNL     1       2.236  -3.716  -9.423  0.00  0.00    -0.190 NA
ATOM     23  C   UNL     1       2.765  -3.254 -10.570  0.00  0.00    +0.222 A 
ATOM     24  N   UNL     1       2.558  -1.962 -10.636  0.00  0.00    -0.054 NA
ATOM     25  O   UNL     1       1.852  -1.608  -9.456  0.00  0.00    -0.337 OA
BRANCH  23  26
ATOM     26  C   UNL     1       3.467  -4.072 -11.591  0.00  0.00    +0.129 A 
ATOM     27  C   UNL     1       3.977  -3.468 -12.740  0.00  0.00    +0.142 A 
ATOM     28  N   UNL     1       4.600  -4.199 -13.646  0.00  0.00    -0.260 NA
ATOM     29  C   UNL     1       4.740  -5.501 -13.464  0.00  0.00    +0.130 A 
ATOM     30  C   UNL     1       4.235  -6.104 -12.324  0.00  0.00    +0.131 A 
ATOM     31  N   UNL     1       3.615  -5.380 -11.411  0.00  0.00    -0.249 NA
ENDBRANCH  23  26
ENDBRANCH   5  21
TORSDOF 4
