REMARK  Name = ZINC62188626
REMARK  5 active torsions:
REMARK  status: ('A' for Active; 'I' for Inactive)
REMARK    1  A    between atoms: C_1  and  C_2
REMARK    2  A    between atoms: C_10  and  O_24
REMARK    3  A    between atoms: C_12  and  N_14
REMARK    4  A    between atoms: C_15  and  C_23
REMARK    5  A    between atoms: C_20  and  C_22
REMARK                            x       y       z     vdW  Elec       q    Type
REMARK                         _______ _______ _______ _____ _____    ______ ____
ROOT
ATOM      1  C   UNL     1       0.090   0.350   6.488  0.00  0.00    +0.047 C 
ATOM      2  C   UNL     1       0.910  -0.401   5.471  0.00  0.00    -0.009 A 
ATOM      3  C   UNL     1       2.283  -0.259   5.454  0.00  0.00    +0.007 A 
ATOM      4  C   UNL     1       3.037  -0.946   4.521  0.00  0.00    +0.001 A 
ATOM      5  C   UNL     1       2.416  -1.773   3.605  0.00  0.00    +0.006 A 
ATOM      6  C   UNL     1       1.039  -1.919   3.617  0.00  0.00    -0.016 A 
ATOM      7  C   UNL     1       0.282  -1.239   4.556  0.00  0.00    +0.125 A 
ATOM      8  O   UNL     1      -1.069  -1.366   4.614  0.00  0.00    -0.489 OA
ATOM      9  C   UNL     1      -1.738  -1.913   3.477  0.00  0.00    +0.259 C 
ATOM     10  C   UNL     1      -1.016  -3.202   3.064  0.00  0.00    +0.143 C 
ATOM     11  C   UNL     1       0.397  -2.826   2.598  0.00  0.00    -0.001 C 
ENDROOT
BRANCH  11  12
ATOM     12  N   UNL     1       1.196  -4.051   2.462  0.00  0.00    +0.389 N 
ATOM     13  C   UNL     1       1.120  -4.823   3.708  0.00  0.00    -0.070 C 
ATOM     14  C   UNL     1       2.015  -6.060   3.602  0.00  0.00    -0.016 C 
ATOM     15  C   UNL     1       1.540  -6.928   2.432  0.00  0.00    -0.003 C 
ATOM     16  C   UNL     1       1.552  -6.090   1.150  0.00  0.00    -0.016 C 
ATOM     17  C   UNL     1       0.675  -4.852   1.348  0.00  0.00    -0.070 C 
ATOM     18  C   UNL     1       0.684  -4.012   0.069  0.00  0.00    -0.013 C 
ATOM     19  C   UNL     1       1.591  -3.954   4.876  0.00  0.00    -0.013 C 
ATOM     20  H   UNL     1       2.157  -3.806   2.279  0.00  0.00    -0.080 HD
ENDBRANCH  11  12
BRANCH  10  21
ATOM     21  O   UNL     1      -0.947  -4.093   4.179  0.00  0.00    -0.390 OA
ATOM     22  H   UNL     1      -1.810  -4.352   4.530  0.00  0.00    +0.210 HD
ENDBRANCH  10  21
TORSDOF 2
