REMARK  Name = ZINC08879469
REMARK  10 active torsions:
REMARK  status: ('A' for Active; 'I' for Inactive)
REMARK    1  A    between atoms: C_1  and  C_2
REMARK    2  A    between atoms: C_9  and  C_36
REMARK    3  A    between atoms: C_10  and  C_17
REMARK    4  A    between atoms: C_15  and  C_16
REMARK    5  A    between atoms: C_17  and  C_18
REMARK    6  A    between atoms: C_18  and  C_19
REMARK    7  A    between atoms: N_21  and  C_22
REMARK    8  A    between atoms: C_22  and  C_24
REMARK    9  A    between atoms: C_22  and  C_25
REMARK   10  A    between atoms: C_25  and  C_26
REMARK                            x       y       z     vdW  Elec       q    Type
REMARK                         _______ _______ _______ _____ _____    ______ ____
ROOT
ATOM      1  C   UNL     1      -1.291  -0.777   0.010  0.00  0.00    +0.052 C 
ENDROOT
BRANCH   1  11
ATOM      2  C   UNL     1       6.898  -1.374  -0.073  0.00  0.00    +0.047 C 
ATOM      3  C   UNL     1       6.257  -0.011  -0.060  0.00  0.00    -0.005 A 
ATOM      4  C   UNL     1       6.883   1.173  -0.060  0.00  0.00    +0.199 A 
ATOM      5  O   UNL     1       5.987   2.175  -0.046  0.00  0.00    -0.462 OA
ATOM      6  C   UNL     1       4.726   1.695  -0.035  0.00  0.00    +0.141 A 
ATOM      7  C   UNL     1       4.818   0.288  -0.044  0.00  0.00    +0.024 A 
ATOM      8  C   UNL     1       3.670  -0.492  -0.036  0.00  0.00    +0.023 A 
ATOM      9  C   UNL     1       2.422   0.130  -0.020  0.00  0.00    +0.022 A 
ATOM     10  C   UNL     1       1.189  -0.663  -0.013  0.00  0.00    -0.030 A 
ATOM     11  C   UNL     1       0.002  -0.004   0.002  0.00  0.00    +0.041 A 
ATOM     12  C   UNL     1      -0.017   1.407   0.010  0.00  0.00    +0.341 A 
ATOM     13  O   UNL     1      -1.089   1.985   0.018  0.00  0.00    -0.245 OA
ATOM     14  O   UNL     1       1.114   2.129   0.003  0.00  0.00    -0.422 OA
ATOM     15  C   UNL     1       2.330   1.538  -0.012  0.00  0.00    +0.146 A 
ATOM     16  C   UNL     1       3.481   2.306  -0.019  0.00  0.00    +0.035 A 
ATOM     17  C   UNL     1       3.382   3.810  -0.010  0.00  0.00    +0.051 C 
ATOM     18  C   UNL     1       1.237  -2.169  -0.022  0.00  0.00    +0.045 C 
ENDBRANCH   1  11
BRANCH   1  19
ATOM     19  C   UNL     1      -1.742  -1.031  -1.430  0.00  0.00    +0.100 C 
BRANCH  19  20
ATOM     20  C   UNL     1      -3.036  -1.804  -1.423  0.00  0.00    +0.214 C 
ATOM     21  O   UNL     1      -3.547  -2.121  -0.369  0.00  0.00    -0.276 OA
ATOM     22  N   UNL     1      -3.625  -2.144  -2.586  0.00  0.00    -0.312 N 
ATOM     23  H   UNL     1      -3.216  -1.891  -3.429  0.00  0.00    +0.149 HD
BRANCH  22  24
ATOM     24  C   UNL     1      -4.882  -2.896  -2.579  0.00  0.00    +0.074 C 
ATOM     25  C   UNL     1      -4.582  -4.391  -2.464  0.00  0.00    +0.028 C 
BRANCH  24  26
ATOM     26  C   UNL     1      -5.645  -2.627  -3.878  0.00  0.00    +0.059 C 
BRANCH  26  27
ATOM     27  C   UNL     1      -6.048  -1.176  -3.933  0.00  0.00    -0.021 A 
ATOM     28  C   UNL     1      -7.229  -0.661  -3.557  0.00  0.00    +0.087 A 
ATOM     29  N   UNL     1      -7.230   0.694  -3.749  0.00  0.00    -0.360 N 
ATOM     30  H   UNL     1      -7.972   1.285  -3.549  0.00  0.00    +0.165 HD
ATOM     31  C   UNL     1      -6.021   1.093  -4.274  0.00  0.00    +0.047 A 
ATOM     32  C   UNL     1      -5.228  -0.061  -4.412  0.00  0.00    +0.003 A 
ATOM     33  C   UNL     1      -3.933   0.041  -4.926  0.00  0.00    +0.010 A 
ATOM     34  C   UNL     1      -3.443   1.262  -5.292  0.00  0.00    +0.001 A 
ATOM     35  C   UNL     1      -4.222   2.404  -5.158  0.00  0.00    +0.002 A 
ATOM     36  C   UNL     1      -5.501   2.326  -4.654  0.00  0.00    +0.026 A 
ENDBRANCH  26  27
ENDBRANCH  24  26
ENDBRANCH  22  24
ENDBRANCH  19  20
ENDBRANCH   1  19
TORSDOF 6
