REMARK  Name = ZINC03346891
REMARK  6 active torsions:
REMARK  status: ('A' for Active; 'I' for Inactive)
REMARK    1  A    between atoms: C_1  and  C_2
REMARK    2  A    between atoms: C_2  and  C_4
REMARK    3  A    between atoms: C_2  and  N_43
REMARK    4  A    between atoms: N_6  and  C_7
REMARK    5  A    between atoms: C_9  and  N_14
REMARK    6  A    between atoms: C_19  and  C_22
REMARK                            x       y       z     vdW  Elec       q    Type
REMARK                         _______ _______ _______ _____ _____    ______ ____
ROOT
ATOM      1  C   UNL     1       4.370   5.554  -1.475  0.00  0.00    -0.004 C 
ATOM      2  C   UNL     1       3.627   6.002  -0.215  0.00  0.00    +0.016 C 
ENDROOT
BRANCH   2   8
ATOM      3  C   UNL     1       2.517   7.740  -1.482  0.00  0.00    -0.077 C 
ATOM      4  C   UNL     1       2.115   9.217  -1.462  0.00  0.00    -0.006 C 
ATOM      5  C   UNL     1       3.376  10.085  -1.459  0.00  0.00    +0.071 C 
ATOM      6  C   UNL     1       4.236   9.718  -0.246  0.00  0.00    -0.006 C 
ATOM      7  C   UNL     1       4.577   8.227  -0.302  0.00  0.00    -0.077 C 
ATOM      8  N   UNL     1       3.322   7.446  -0.277  0.00  0.00    +0.387 N 
ATOM      9  H   UNL     1       2.783   7.709   0.556  0.00  0.00    -0.081 HD
BRANCH   5  10
ATOM     10  C   UNL     1       2.988  11.539  -1.379  0.00  0.00    +0.213 C 
ATOM     11  O   UNL     1       3.362  12.216  -0.445  0.00  0.00    -0.276 OA
ATOM     12  N   UNL     1       2.225  12.087  -2.346  0.00  0.00    -0.329 N 
ATOM     13  H   UNL     1       1.926  11.545  -3.093  0.00  0.00    +0.145 HD
ATOM     14  H   UNL     1       1.976  13.023  -2.295  0.00  0.00    +0.145 HD
ENDBRANCH   5  10
ENDBRANCH   2   8
BRANCH   2  15
ATOM     15  C   UNL     1       2.336   5.236  -0.093  0.00  0.00    +0.203 C 
ATOM     16  O   UNL     1       1.278   5.829  -0.081  0.00  0.00    -0.277 OA
ATOM     17  N   UNL     1       2.356   3.891   0.001  0.00  0.00    -0.286 N 
ATOM     18  H   UNL     1       3.203   3.421   0.056  0.00  0.00    +0.155 HD
BRANCH  17  19
ATOM     19  C   UNL     1       1.155   3.173   0.019  0.00  0.00    +0.054 A 
ATOM     20  C   UNL     1       0.033   3.708   0.637  0.00  0.00    +0.057 A 
ATOM     21  C   UNL     1      -1.151   2.997   0.654  0.00  0.00    +0.128 A 
ATOM     22  C   UNL     1      -1.222   1.754   0.050  0.00  0.00    +0.034 A 
ATOM     23  C   UNL     1      -0.105   1.215  -0.561  0.00  0.00    +0.024 A 
ATOM     24  C   UNL     1       1.083   1.922  -0.582  0.00  0.00    +0.062 A 
ATOM     25 CL   UNL     1       2.482   1.247  -1.355  0.00  0.00    -0.082 Cl
BRANCH  21  26
ATOM     26  N   UNL     1      -2.347   3.568   1.313  0.00  0.00    +0.056 N 
ATOM     27  O   UNL     1      -2.287   4.664   1.840  0.00  0.00    -0.126 OA
ATOM     28  O   UNL     1      -3.392   2.941   1.328  0.00  0.00    -0.126 OA
ENDBRANCH  21  26
ENDBRANCH  17  19
ENDBRANCH   2  15
TORSDOF 5
