REMARK  Name = ZINC60365001
REMARK  6 active torsions:
REMARK  status: ('A' for Active; 'I' for Inactive)
REMARK    1  A    between atoms: C_1  and  C_2
REMARK    2  A    between atoms: C_2  and  C_4
REMARK    3  A    between atoms: C_2  and  N_19
REMARK    4  A    between atoms: N_6  and  C_7
REMARK    5  A    between atoms: C_7  and  C_8
REMARK    6  A    between atoms: C_8  and  N_13
REMARK                            x       y       z     vdW  Elec       q    Type
REMARK                         _______ _______ _______ _____ _____    ______ ____
ROOT
ATOM      1  C   UNL     1       0.615  -0.487   1.551  0.00  0.00    +0.234 C 
ATOM      2  O   UNL     1       0.116  -1.190   2.403  0.00  0.00    -0.274 OA
ATOM      3  N   UNL     1       1.918  -0.152   1.631  0.00  0.00    -0.315 N 
ATOM      4  H   UNL     1       2.317   0.410   0.949  0.00  0.00    +0.149 HD
ENDROOT
BRANCH   1   6
ATOM      5  C   UNL     1      -0.233   1.543   0.405  0.00  0.00    +0.038 C 
ATOM      6  C   UNL     1      -0.222   0.013   0.401  0.00  0.00    +0.168 C 
BRANCH   6   7
ATOM      7  N   UNL     1      -1.592  -0.486   0.542  0.00  0.00    -0.212 N 
ATOM      8  C   UNL     1      -2.211  -1.272  -0.366  0.00  0.00    +0.247 C 
ATOM      9  O   UNL     1      -1.758  -1.684  -1.412  0.00  0.00    -0.273 OA
ATOM     10  C   UNL     1      -3.585  -1.527   0.200  0.00  0.00    +0.113 C 
ATOM     11  C   UNL     1      -3.821  -3.027   0.418  0.00  0.00    +0.035 C 
ATOM     12  C   UNL     1      -5.327  -3.219   0.100  0.00  0.00    +0.003 C 
ATOM     13  C   UNL     1      -5.556  -2.246  -1.084  0.00  0.00    +0.003 C 
ATOM     14  C   UNL     1      -4.677  -1.022  -0.745  0.00  0.00    +0.035 C 
ATOM     15  N   UNL     1      -3.599  -0.799   1.471  0.00  0.00    -0.285 N 
ATOM     16  C   UNL     1      -2.385  -0.224   1.589  0.00  0.00    +0.310 C 
ATOM     17  O   UNL     1      -2.050   0.459   2.537  0.00  0.00    -0.252 OA
ATOM     18  H   UNL     1      -4.332  -0.745   2.103  0.00  0.00    +0.151 HD
ENDBRANCH   6   7
ENDBRANCH   1   6
BRANCH   3  19
ATOM     19  C   UNL     1       2.732  -0.638   2.749  0.00  0.00    +0.092 C 
BRANCH  19  20
ATOM     20  C   UNL     1       4.163  -0.117   2.602  0.00  0.00    -0.050 C 
ATOM     21  C   UNL     1       5.014  -0.566   3.807  0.00  0.00    -0.010 C 
ATOM     22  C   UNL     1       5.721  -1.853   3.315  0.00  0.00    -0.001 C 
ATOM     23  C   UNL     1       6.046  -1.521   1.838  0.00  0.00    -0.001 C 
ATOM     24  C   UNL     1       4.819  -0.725   1.349  0.00  0.00    -0.010 C 
BRANCH  20  25
ATOM     25  N   UNL     1       4.157   1.349   2.506  0.00  0.00    +0.386 N 
ATOM     26  C   UNL     1       5.532   1.824   2.335  0.00  0.00    -0.067 C 
ATOM     27  C   UNL     1       5.524   3.283   1.865  0.00  0.00    +0.050 C 
ATOM     28  S   UNL     1       4.732   4.294   3.154  0.00  0.00    -0.164 S 
ATOM     29  C   UNL     1       3.194   3.380   3.488  0.00  0.00    +0.050 C 
ATOM     30  C   UNL     1       3.550   1.907   3.716  0.00  0.00    -0.067 C 
ATOM     31  H   UNL     1       3.611   1.626   1.704  0.00  0.00    -0.081 HD
ENDBRANCH  20  25
ENDBRANCH  19  20
ENDBRANCH   3  19
TORSDOF 5
