REMARK  Name = ZINC59845305
REMARK  7 active torsions:
REMARK  status: ('A' for Active; 'I' for Inactive)
REMARK    1  A    between atoms: C_1  and  C_2
REMARK    2  A    between atoms: C_2  and  C_4
REMARK    3  A    between atoms: C_2  and  S_13
REMARK    4  A    between atoms: C_7  and  C_9
REMARK    5  A    between atoms: S_13  and  C_14
REMARK    6  A    between atoms: C_17  and  C_20
REMARK    7  A    between atoms: N_18  and  N_19
REMARK                            x       y       z     vdW  Elec       q    Type
REMARK                         _______ _______ _______ _____ _____    ______ ____
ROOT
ATOM      1  C   UNL     1      -0.153   0.018  -2.811  0.00  0.00    +0.209 A 
ATOM      2  N   UNL     1      -1.354   0.539  -2.690  0.00  0.00    -0.121 NA
ATOM      3  N   UNL     1      -1.877   0.717  -3.851  0.00  0.00    -0.127 NA
ATOM      4  C   UNL     1      -1.043   0.320  -4.784  0.00  0.00    +0.183 A 
ATOM      5  N   UNL     1       0.089  -0.134  -4.147  0.00  0.00    -0.224 N 
ENDROOT
BRANCH   4   6
ATOM      6  C   UNL     1      -1.273   0.360  -6.243  0.00  0.00    +0.035 A 
ATOM      7  C   UNL     1      -0.998  -0.761  -7.027  0.00  0.00    +0.013 A 
ATOM      8  C   UNL     1      -1.216  -0.718  -8.389  0.00  0.00    +0.001 A 
ATOM      9  C   UNL     1      -1.706   0.434  -8.978  0.00  0.00    +0.001 A 
ATOM     10  C   UNL     1      -1.982   1.549  -8.207  0.00  0.00    +0.016 A 
ATOM     11  C   UNL     1      -1.774   1.518  -6.843  0.00  0.00    +0.029 A 
ATOM     12 BR   UNL     1      -2.158   3.041  -5.790  0.00  0.00    -0.050 Br
ENDBRANCH   4   6
BRANCH   5  13
ATOM     13  N   UNL     1       1.219  -0.635  -4.729  0.00  0.00    -0.295 N 
ATOM     14  H   UNL     1       1.117  -1.619  -4.929  0.00  0.00    +0.163 HD
ATOM     15  H   UNL     1       1.455  -0.119  -5.563  0.00  0.00    +0.163 HD
ENDBRANCH   5  13
BRANCH   1  16
ATOM     16  S   UNL     1       0.942  -0.400  -1.496  0.00  0.00    -0.072 S 
BRANCH  16  18
ATOM     17  C   UNL     1      -0.196   1.561   0.035  0.00  0.00    +0.029 C 
ATOM     18  C   UNL     1       0.020   0.046   0.001  0.00  0.00    +0.139 C 
BRANCH  18  19
ATOM     19  C   UNL     1       0.803  -0.377   1.218  0.00  0.00    +0.230 A 
ATOM     20  N   UNL     1       2.077  -0.195   1.416  0.00  0.00    -0.111 NA
ATOM     21  N   UNL     1       2.405  -0.681   2.561  0.00  0.00    -0.112 NA
ATOM     22  C   UNL     1       1.351  -1.190   3.132  0.00  0.00    +0.220 A 
ATOM     23  O   UNL     1       0.313  -1.005   2.300  0.00  0.00    -0.423 OA
BRANCH  22  24
ATOM     24  C   UNL     1       1.303  -1.859   4.482  0.00  0.00    +0.077 C 
ATOM     25  C   UNL     1       2.214  -1.198   5.530  0.00  0.00    +0.013 C 
ATOM     26  C   UNL     1       2.563  -2.617   6.007  0.00  0.00    +0.001 C 
ATOM     27  C   UNL     1       2.210  -3.096   4.589  0.00  0.00    +0.013 C 
ENDBRANCH  22  24
ENDBRANCH  18  19
ENDBRANCH  16  18
ENDBRANCH   1  16
TORSDOF 6
