REMARK  Name = ZINC00288944
REMARK  6 active torsions:
REMARK  status: ('A' for Active; 'I' for Inactive)
REMARK    1  A    between atoms: C_1  and  C_2
REMARK    2  A    between atoms: C_2  and  C_3
REMARK    3  A    between atoms: C_2  and  O_4
REMARK    4  A    between atoms: O_4  and  C_5
REMARK    5  A    between atoms: C_8  and  C_11
REMARK    6  A    between atoms: N_16  and  C_19
REMARK                            x       y       z     vdW  Elec       q    Type
REMARK                         _______ _______ _______ _____ _____    ______ ____
ROOT
ATOM      1  C   UNL     1      -0.031  -0.600   2.303  0.00  0.00    +0.121 A 
ATOM      2  C   UNL     1      -1.400  -0.376   2.286  0.00  0.00    +0.046 A 
ATOM      3  C   UNL     1      -2.133  -0.502   3.450  0.00  0.00    +0.008 A 
ATOM      4  C   UNL     1      -1.504  -0.849   4.631  0.00  0.00    -0.035 A 
ATOM      5  C   UNL     1      -0.140  -1.072   4.651  0.00  0.00    +0.008 A 
ATOM      6  C   UNL     1       0.598  -0.954   3.489  0.00  0.00    +0.046 A 
ENDROOT
BRANCH   4   7
ATOM      7  C   UNL     1      -2.307  -0.985   5.900  0.00  0.00    +0.114 C 
ATOM      8  C   UNL     1      -2.147  -2.398   6.495  0.00  0.00    +0.113 C 
ATOM      9  C   UNL     1      -1.520  -2.144   7.848  0.00  0.00    +0.223 C 
ATOM     10  O   UNL     1      -1.221  -2.998   8.655  0.00  0.00    -0.275 OA
ATOM     11  N   UNL     1      -1.346  -0.827   8.013  0.00  0.00    -0.245 N 
ATOM     12  C   UNL     1      -1.756  -0.077   6.978  0.00  0.00    +0.229 C 
ATOM     13  O   UNL     1      -1.695   1.132   6.915  0.00  0.00    -0.275 OA
ATOM     14  C   UNL     1      -0.758  -0.250   9.225  0.00  0.00    +0.141 C 
ENDBRANCH   4   7
BRANCH   1  15
ATOM     15  O   UNL     1       0.693  -0.477   1.160  0.00  0.00    -0.489 OA
BRANCH  15  17
ATOM     16  C   UNL     1      -0.292   1.273  -0.184  0.00  0.00    +0.051 C 
ATOM     17  C   UNL     1      -0.034  -0.229  -0.045  0.00  0.00    +0.167 C 
ATOM     18  C   UNL     1       0.781  -0.720  -1.243  0.00  0.00    +0.051 C 
ENDBRANCH  15  17
ENDBRANCH   1  15
TORSDOF 3
