REMARK  Name = ZINC64188066
REMARK  6 active torsions:
REMARK  status: ('A' for Active; 'I' for Inactive)
REMARK    1  A    between atoms: C_1  and  C_2
REMARK    2  A    between atoms: N_10  and  N_11
REMARK    3  A    between atoms: C_12  and  C_14
REMARK    4  A    between atoms: C_14  and  C_15
REMARK    5  A    between atoms: C_15  and  C_16
REMARK    6  A    between atoms: C_24  and  C_26
REMARK                            x       y       z     vdW  Elec       q    Type
REMARK                         _______ _______ _______ _____ _____    ______ ____
ROOT
ATOM      1  C   UNL     1       6.888  -4.883  -2.064  0.00  0.00    +0.043 C 
ENDROOT
BRANCH   1   2
ATOM      2  C   UNL     1       7.537  -5.345  -3.344  0.00  0.00    -0.034 C 
ATOM      3  C   UNL     1       7.141  -5.059  -4.605  0.00  0.00    +0.002 A 
ATOM      4  C   UNL     1       6.030  -4.263  -5.142  0.00  0.00    +0.048 A 
ATOM      5  C   UNL     1       5.887  -4.159  -6.484  0.00  0.00    +0.124 A 
ATOM      6  C   UNL     1       6.772  -4.790  -7.372  0.00  0.00    +0.040 A 
ATOM      7  C   UNL     1       7.815  -5.537  -6.952  0.00  0.00    +0.029 A 
ATOM      8  C   UNL     1       8.060  -5.714  -5.562  0.00  0.00    +0.043 A 
ATOM      9  N   UNL     1       8.988  -6.379  -4.918  0.00  0.00    -0.374 N 
ATOM     10  C   UNL     1       8.766  -6.215  -3.477  0.00  0.00    +0.137 C 
ATOM     11  F   UNL     1       4.865  -3.428  -6.982  0.00  0.00    -0.205 F 
ATOM     12  H   UNL     1       9.704  -6.891  -5.326  0.00  0.00    +0.161 HD
BRANCH  10  13
ATOM     13  C   UNL     1       9.953  -5.540  -2.839  0.00  0.00    -0.021 A 
ATOM     14  C   UNL     1      10.630  -4.545  -3.519  0.00  0.00    +0.006 A 
ATOM     15  C   UNL     1      11.719  -3.926  -2.933  0.00  0.00    +0.000 A 
ATOM     16  C   UNL     1      12.130  -4.302  -1.668  0.00  0.00    +0.000 A 
ATOM     17  C   UNL     1      11.451  -5.296  -0.988  0.00  0.00    +0.000 A 
ATOM     18  C   UNL     1      10.360  -5.912  -1.571  0.00  0.00    +0.006 A 
ENDBRANCH  10  13
ENDBRANCH   1   2
BRANCH   1  19
ATOM     19  C   UNL     1       5.669  -4.020  -2.393  0.00  0.00    +0.102 C 
BRANCH  19  21
ATOM     20  N   UNL     1       3.921  -2.780  -1.157  0.00  0.00    -0.234 N 
ATOM     21  C   UNL     1       5.020  -3.559  -1.113  0.00  0.00    +0.229 C 
ATOM     22  O   UNL     1       5.487  -3.888  -0.043  0.00  0.00    -0.274 OA
ATOM     23  H   UNL     1       3.547  -2.517  -2.013  0.00  0.00    +0.173 HD
BRANCH  20  32
ATOM     24  C   UNL     1      -0.019   1.526   0.010  0.00  0.00    +0.044 C 
ATOM     25  C   UNL     1       0.002  -0.004   0.002  0.00  0.00    +0.210 C 
ATOM     26  C   UNL     1       0.641  -0.458  -1.297  0.00  0.00    +0.265 C 
ATOM     27  O   UNL     1       0.187  -0.137  -2.377  0.00  0.00    -0.271 OA
ATOM     28  N   UNL     1       1.734  -1.231  -1.194  0.00  0.00    -0.145 NA
ATOM     29  C   UNL     1       2.206  -1.564  -0.013  0.00  0.00    +0.218 C 
ATOM     30  N   UNL     1       1.654  -1.172   1.169  0.00  0.00    -0.253 N 
ATOM     31  N   UNL     1       0.647  -0.458   1.246  0.00  0.00    -0.197 NA
ATOM     32  N   UNL     1       3.317  -2.351   0.032  0.00  0.00    -0.235 N 
ATOM     33  H   UNL     1       3.691  -2.615   0.888  0.00  0.00    +0.173 HD
ATOM     34  H   UNL     1       2.073  -1.467   1.992  0.00  0.00    +0.191 HD
ENDBRANCH  20  32
ENDBRANCH  19  21
ENDBRANCH   1  19
TORSDOF 5
