REMARK  Name = ZINC21663670
REMARK  9 active torsions:
REMARK  status: ('A' for Active; 'I' for Inactive)
REMARK    1  A    between atoms: C_4  and  C_7
REMARK    2  A    between atoms: C_7  and  C_8
REMARK    3  A    between atoms: N_11  and  C_14
REMARK    4  A    between atoms: C_14  and  C_15
REMARK    5  A    between atoms: C_15  and  C_16
REMARK    6  A    between atoms: C_16  and  N_17
REMARK    7  A    between atoms: C_18  and  C_20
REMARK    8  A    between atoms: C_20  and  C_21
REMARK    9  A    between atoms: C_21  and  C_22
REMARK                            x       y       z     vdW  Elec       q    Type
REMARK                         _______ _______ _______ _____ _____    ______ ____
ROOT
ATOM      1  N   UNL     1       6.334   4.265   3.328  0.00  0.00    -0.315 N 
ATOM      2  C   UNL     1       5.365   3.605   2.664  0.00  0.00    +0.213 C 
ATOM      3  O   UNL     1       5.387   2.394   2.604  0.00  0.00    -0.276 OA
ATOM      4  H   UNL     1       6.314   5.363   3.383  0.00  0.00    +0.149 HD
ENDROOT
BRANCH   1   5
ATOM      5  C   UNL     1       7.415   3.519   3.978  0.00  0.00    +0.102 C 
BRANCH   5   6
ATOM      6  C   UNL     1       8.375   4.499   4.656  0.00  0.00    +0.000 C 
BRANCH   6   7
ATOM      7  C   UNL     1       9.504   3.720   5.334  0.00  0.00    -0.077 C 
BRANCH   7  11
ATOM      8  C   UNL     1      12.973   5.864   6.619  0.00  0.00    -0.010 C 
ATOM      9  C   UNL     1      12.230   4.966   7.612  0.00  0.00    -0.015 C 
ATOM     10  C   UNL     1      11.384   3.951   6.841  0.00  0.00    -0.079 C 
ATOM     11  N   UNL     1      10.425   4.661   5.985  0.00  0.00    +0.380 N 
ATOM     12  C   UNL     1      11.116   5.493   4.991  0.00  0.00    -0.079 C 
ATOM     13  C   UNL     1      11.954   6.554   5.707  0.00  0.00    -0.015 C 
ATOM     14  H   UNL     1       9.832   5.328   6.627  0.00  0.00    -0.082 HD
BRANCH   8  15
ATOM     15  C   UNL     1      13.774   6.919   7.383  0.00  0.00    +0.038 C 
BRANCH  15  19
ATOM     16  C   UNL     1      16.115   9.200   4.633  0.00  0.00    +0.000 A 
ATOM     17  C   UNL     1      14.833   9.607   4.953  0.00  0.00    +0.000 A 
ATOM     18  C   UNL     1      14.076   8.869   5.843  0.00  0.00    +0.003 A 
ATOM     19  C   UNL     1      14.600   7.724   6.413  0.00  0.00    -0.047 A 
ATOM     20  C   UNL     1      15.884   7.319   6.097  0.00  0.00    +0.003 A 
ATOM     21  C   UNL     1      16.639   8.055   5.203  0.00  0.00    +0.000 A 
ENDBRANCH  15  19
ENDBRANCH   8  15
ENDBRANCH   7  11
ENDBRANCH   6   7
ENDBRANCH   5   6
ENDBRANCH   1   5
BRANCH   2  22
ATOM     22  C   UNL     1       4.253   4.372   1.996  0.00  0.00    +0.105 C 
BRANCH  22  23
ATOM     23  C   UNL     1       3.293   3.393   1.318  0.00  0.00    +0.105 C 
BRANCH  23  24
ATOM     24  C   UNL     1       2.181   4.160   0.650  0.00  0.00    +0.221 C 
ATOM     25  O   UNL     1       2.207   5.372   0.632  0.00  0.00    -0.275 OA
ATOM     26  N   UNL     1       1.158   3.499   0.073  0.00  0.00    -0.264 N 
ATOM     27  C   UNL     1       1.186   2.029  -0.009  0.00  0.00    +0.167 C 
ATOM     28  C   UNL     1       0.597   1.631  -1.340  0.00  0.00    +0.041 A 
ATOM     29  C   UNL     1       0.787   0.517  -2.055  0.00  0.00    +0.025 A 
ATOM     30  C   UNL     1      -0.011   0.620  -3.216  0.00  0.00    +0.020 A 
ATOM     31  C   UNL     1      -0.656   1.806  -3.164  0.00  0.00    +0.091 A 
ATOM     32  N   UNL     1      -0.283   2.439  -2.025  0.00  0.00    -0.317 N 
ATOM     33  C   UNL     1      -0.649   3.701  -1.534  0.00  0.00    +0.068 A 
ATOM     34  C   UNL     1       0.069   4.212  -0.447  0.00  0.00    +0.060 A 
ATOM     35  C   UNL     1      -0.287   5.439   0.088  0.00  0.00    +0.025 A 
ATOM     36  C   UNL     1      -1.331   6.157  -0.466  0.00  0.00    +0.002 A 
ATOM     37  C   UNL     1      -2.024   5.658  -1.554  0.00  0.00    +0.002 A 
ATOM     38  C   UNL     1      -1.683   4.428  -2.089  0.00  0.00    +0.028 A 
ENDBRANCH  23  24
ENDBRANCH  22  23
ENDBRANCH   2  22
TORSDOF 9
