REMARK  Name = ZINC05044034
REMARK  8 active torsions:
REMARK  status: ('A' for Active; 'I' for Inactive)
REMARK    1  A    between atoms: C_1  and  C_2
REMARK    2  A    between atoms: C_2  and  C_3
REMARK    3  A    between atoms: C_2  and  O_4
REMARK    4  A    between atoms: O_4  and  C_5
REMARK    5  A    between atoms: C_8  and  C_11
REMARK    6  A    between atoms: C_19  and  N_29
REMARK    7  A    between atoms: C_20  and  C_22
REMARK    8  A    between atoms: C_22  and  C_24
REMARK                            x       y       z     vdW  Elec       q    Type
REMARK                         _______ _______ _______ _____ _____    ______ ____
ROOT
ATOM      1  C   UNL     1      -4.410  -1.965   3.528  0.00  0.00    +0.062 C 
ATOM      2  C   UNL     1      -3.708  -3.258   3.939  0.00  0.00    +0.109 C 
ATOM      3  C   UNL     1      -3.371  -4.112   2.748  0.00  0.00    +0.218 C 
ATOM      4  O   UNL     1      -2.308  -4.694   2.709  0.00  0.00    -0.275 OA
ATOM      5  N   UNL     1      -4.242  -4.237   1.718  0.00  0.00    -0.280 N 
ATOM      6  C   UNL     1      -5.329  -3.398   1.698  0.00  0.00    +0.078 A 
ATOM      7  C   UNL     1      -5.504  -2.298   2.519  0.00  0.00    +0.010 A 
ATOM      8  C   UNL     1      -6.669  -1.579   2.356  0.00  0.00    +0.048 A 
ATOM      9  C   UNL     1      -7.583  -1.978   1.377  0.00  0.00    +0.085 A 
ATOM     10  S   UNL     1      -6.772  -3.408   0.676  0.00  0.00    -0.068 S 
ATOM     11  H   UNL     1      -4.102  -4.895   1.019  0.00  0.00    +0.155 HD
ENDROOT
BRANCH   1  15
ATOM     12  C   UNL     1      -1.581   0.700   1.749  0.00  0.00    +0.121 A 
ATOM     13  C   UNL     1      -1.810  -0.548   1.187  0.00  0.00    +0.046 A 
ATOM     14  C   UNL     1      -2.721  -1.409   1.767  0.00  0.00    +0.008 A 
ATOM     15  C   UNL     1      -3.412  -1.025   2.901  0.00  0.00    -0.039 A 
ATOM     16  C   UNL     1      -3.190   0.220   3.461  0.00  0.00    +0.008 A 
ATOM     17  C   UNL     1      -2.276   1.083   2.887  0.00  0.00    +0.046 A 
BRANCH  12  18
ATOM     18  O   UNL     1      -0.682   1.547   1.184  0.00  0.00    -0.489 OA
BRANCH  18  20
ATOM     19  C   UNL     1      -0.054   3.826   0.681  0.00  0.00    +0.051 C 
ATOM     20  C   UNL     1      -0.588   2.860   1.740  0.00  0.00    +0.167 C 
ATOM     21  C   UNL     1       0.364   2.839   2.938  0.00  0.00    +0.051 C 
ENDBRANCH  18  20
ENDBRANCH  12  18
ENDBRANCH   1  15
BRANCH   8  22
ATOM     22  N   UNL     1      -6.930  -0.470   3.155  0.00  0.00    -0.357 N 
ATOM     23  H   UNL     1      -7.752   0.032   3.036  0.00  0.00    +0.142 HD
ATOM     24  H   UNL     1      -6.291  -0.199   3.833  0.00  0.00    +0.142 HD
ENDBRANCH   8  22
BRANCH   9  25
ATOM     25  C   UNL     1      -8.825  -1.403   1.033  0.00  0.00    +0.236 C 
ATOM     26  O   UNL     1      -9.226  -0.415   1.628  0.00  0.00    -0.283 OA
BRANCH  25  27
ATOM     27  C   UNL     1      -9.636  -1.992  -0.041  0.00  0.00    +0.175 A 
ATOM     28  C   UNL     1     -10.848  -1.538  -0.472  0.00  0.00    +0.053 A 
ATOM     29  C   UNL     1     -11.256  -2.395  -1.508  0.00  0.00    +0.042 A 
ATOM     30  C   UNL     1     -10.286  -3.323  -1.661  0.00  0.00    +0.196 A 
ATOM     31  O   UNL     1      -9.309  -3.073  -0.778  0.00  0.00    -0.460 OA
ENDBRANCH  25  27
ENDBRANCH   9  25
TORSDOF 6
