REMARK  Name = ZINC65441079
REMARK  6 active torsions:
REMARK  status: ('A' for Active; 'I' for Inactive)
REMARK    1  A    between atoms: C_1  and  C_2
REMARK    2  A    between atoms: C_2  and  C_3
REMARK    3  A    between atoms: C_2  and  N_4
REMARK    4  A    between atoms: C_7  and  C_9
REMARK    5  A    between atoms: C_9  and  N_10
REMARK    6  A    between atoms: C_17  and  C_18
REMARK                            x       y       z     vdW  Elec       q    Type
REMARK                         _______ _______ _______ _____ _____    ______ ____
ROOT
ATOM      1  N   UNL     1      -3.967  -2.646  -3.794  0.00  0.00    -0.299 N 
ATOM      2  C   UNL     1      -5.244  -2.513  -4.204  0.00  0.00    +0.302 C 
ATOM      3  O   UNL     1      -5.821  -1.451  -4.061  0.00  0.00    -0.253 OA
ATOM      4  N   UNL     1      -5.883  -3.555  -4.771  0.00  0.00    -0.282 N 
ATOM      5  C   UNL     1      -5.279  -4.861  -5.091  0.00  0.00    +0.110 C 
ATOM      6  C   UNL     1      -6.469  -5.853  -5.117  0.00  0.00    +0.021 C 
ATOM      7  C   UNL     1      -7.587  -4.981  -5.747  0.00  0.00    +0.024 C 
ATOM      8  C   UNL     1      -7.298  -3.580  -5.168  0.00  0.00    +0.081 C 
ATOM      9  H   UNL     1      -3.508  -3.493  -3.908  0.00  0.00    +0.150 HD
ENDROOT
BRANCH   8  10
ATOM     10  C   UNL     1      -7.558  -2.515  -6.235  0.00  0.00    +0.010 C 
ATOM     11  C   UNL     1      -6.645  -2.763  -7.437  0.00  0.00    +0.005 C 
ATOM     12  C   UNL     1      -6.905  -1.698  -8.504  0.00  0.00    +0.000 C 
ATOM     13  C   UNL     1      -8.366  -1.770  -8.951  0.00  0.00    +0.000 C 
ATOM     14  C   UNL     1      -9.280  -1.521  -7.749  0.00  0.00    +0.000 C 
ATOM     15  C   UNL     1      -9.020  -2.587  -6.682  0.00  0.00    +0.005 C 
ENDBRANCH   8  10
BRANCH   1  16
ATOM     16  C   UNL     1      -3.273  -1.513  -3.177  0.00  0.00    +0.107 C 
BRANCH  16  20
ATOM     17  N   UNL     1      -0.278  -1.312  -1.058  0.00  0.00    +0.381 N 
ATOM     18  C   UNL     1      -0.482  -2.776  -1.020  0.00  0.00    -0.078 C 
ATOM     19  C   UNL     1      -1.863  -3.000  -1.685  0.00  0.00    -0.015 C 
ATOM     20  C   UNL     1      -1.848  -1.928  -2.807  0.00  0.00    -0.012 C 
ATOM     21  C   UNL     1      -1.089  -0.753  -2.155  0.00  0.00    -0.074 C 
ATOM     22  H   UNL     1      -0.568  -0.908  -0.181  0.00  0.00    -0.081 HD
BRANCH  17  24
ATOM     23  C   UNL     1       1.345   0.498  -1.355  0.00  0.00    -0.014 C 
ATOM     24  C   UNL     1       1.142  -1.017  -1.294  0.00  0.00    -0.075 C 
ATOM     25  C   UNL     1       1.980  -1.599  -0.154  0.00  0.00    -0.014 C 
ENDBRANCH  17  24
ENDBRANCH  16  20
ENDBRANCH   1  16
TORSDOF 4
