REMARK  Name = ZINC04905840
REMARK  4 active torsions:
REMARK  status: ('A' for Active; 'I' for Inactive)
REMARK    1  A    between atoms: C_1  and  N_40
REMARK    2  A    between atoms: C_12  and  C_15
REMARK    3  A    between atoms: C_18  and  O_22
REMARK    4  A    between atoms: C_20  and  O_21
REMARK                            x       y       z     vdW  Elec       q    Type
REMARK                         _______ _______ _______ _____ _____    ______ ____
ROOT
ATOM      1  C   UNL     1      -1.391   9.418  -4.281  0.00  0.00    -0.096 C 
ATOM      2  C   UNL     1      -1.720   7.474  -2.875  0.00  0.00    -0.074 C 
ATOM      3  C   UNL     1      -1.844   5.948  -2.913  0.00  0.00    +0.018 C 
ATOM      4  C   UNL     1      -0.505   5.372  -3.361  0.00  0.00    -0.027 A 
ATOM      5  C   UNL     1       0.401   6.168  -3.975  0.00  0.00    -0.021 A 
ATOM      6  S   UNL     1       1.782   5.111  -4.313  0.00  0.00    -0.080 S 
ATOM      7  C   UNL     1       1.170   3.652  -3.657  0.00  0.00    +0.080 A 
ATOM      8  C   UNL     1      -0.105   3.989  -3.174  0.00  0.00    +0.068 A 
ATOM      9  C   UNL     1      -0.898   2.915  -2.533  0.00  0.00    +0.248 C 
ATOM     10  O   UNL     1      -2.052   3.099  -2.190  0.00  0.00    -0.270 OA
ATOM     11  N   UNL     1      -0.290   1.726  -2.342  0.00  0.00    -0.289 N 
ATOM     12  C   UNL     1       1.146   1.520  -2.507  0.00  0.00    +0.194 C 
ATOM     13  N   UNL     1       1.692   2.388  -3.566  0.00  0.00    -0.316 N 
ATOM     14  C   UNL     1       0.240   7.622  -4.290  0.00  0.00    -0.036 C 
ATOM     15  H   UNL     1      -0.835   0.968  -2.082  0.00  0.00    +0.151 HD
ATOM     16  H   UNL     1       2.387   2.080  -4.169  0.00  0.00    +0.149 HD
ATOM     17  N   UNL     1      -1.200   7.956  -4.171  0.00  0.00    +0.381 N 
ATOM     18  H   UNL     1      -1.714   7.494  -4.930  0.00  0.00    -0.082 HD
ENDROOT
BRANCH  12  19
ATOM     19  C   UNL     1       1.842   1.830  -1.207  0.00  0.00    +0.032 A 
ATOM     20  C   UNL     1       3.096   2.409  -1.217  0.00  0.00    +0.014 A 
ATOM     21  C   UNL     1       3.737   2.694  -0.026  0.00  0.00    +0.046 A 
ATOM     22  C   UNL     1       3.122   2.398   1.182  0.00  0.00    +0.120 A 
ATOM     23  C   UNL     1       1.862   1.822   1.195  0.00  0.00    +0.091 A 
ATOM     24  C   UNL     1       1.223   1.532  -0.001  0.00  0.00    +0.127 A 
BRANCH  24  25
ATOM     25  O   UNL     1      -0.011   0.963   0.007  0.00  0.00    -0.506 OA
ATOM     26  H   UNL     1       0.002  -0.004   0.002  0.00  0.00    +0.292 HD
ENDBRANCH  24  25
BRANCH  22  27
ATOM     27  O   UNL     1       3.753   2.679   2.353  0.00  0.00    -0.507 OA
ATOM     28  H   UNL     1       3.566   3.562   2.699  0.00  0.00    +0.292 HD
ENDBRANCH  22  27
ENDBRANCH  12  19
TORSDOF 3
