REMARK  Name = ZINC39699068
REMARK  11 active torsions:
REMARK  status: ('A' for Active; 'I' for Inactive)
REMARK    1  A    between atoms: C_1  and  C_2
REMARK    2  A    between atoms: C_5  and  C_28
REMARK    3  A    between atoms: C_6  and  N_8
REMARK    4  A    between atoms: C_9  and  S_13
REMARK    5  A    between atoms: S_13  and  C_14
REMARK    6  A    between atoms: C_14  and  C_15
REMARK    7  A    between atoms: C_15  and  C_17
REMARK    8  A    between atoms: C_19  and  C_27
REMARK    9  A    between atoms: C_21  and  C_24
REMARK   10  A    between atoms: C_22  and  C_23
REMARK   11  A    between atoms: C_24  and  C_26
REMARK                            x       y       z     vdW  Elec       q    Type
REMARK                         _______ _______ _______ _____ _____    ______ ____
ROOT
ATOM      1  S   UNL     1       0.287  -1.151   4.159  0.00  0.00    -0.076 S 
ENDROOT
BRANCH   1   3
ATOM      2  N   UNL     1       0.275  -3.112   2.167  0.00  0.00    -0.187 N 
ATOM      3  C   UNL     1       0.342  -2.778   3.486  0.00  0.00    +0.214 A 
ATOM      4  N   UNL     1       0.458  -3.901   4.160  0.00  0.00    -0.101 NA
ATOM      5  N   UNL     1       0.467  -4.907   3.363  0.00  0.00    -0.022 NA
ATOM      6  N   UNL     1       0.356  -4.516   2.140  0.00  0.00    -0.038 NA
BRANCH   2  12
ATOM      7  C   UNL     1       1.732   0.932  -0.224  0.00  0.00    +0.044 C 
ATOM      8  C   UNL     1       0.841  -0.278  -0.110  0.00  0.00    -0.048 A 
ATOM      9  C   UNL     1      -0.105  -0.533  -1.086  0.00  0.00    +0.004 A 
ATOM     10  C   UNL     1      -0.925  -1.641  -0.985  0.00  0.00    +0.006 A 
ATOM     11  C   UNL     1      -0.802  -2.498   0.091  0.00  0.00    -0.025 A 
ATOM     12  C   UNL     1       0.147  -2.245   1.072  0.00  0.00    +0.073 A 
ATOM     13  C   UNL     1       0.973  -1.133   0.966  0.00  0.00    +0.031 A 
ATOM     14  C   UNL     1      -1.696  -3.705   0.201  0.00  0.00    +0.046 C 
ENDBRANCH   2  12
ENDBRANCH   1   3
BRANCH   1  15
ATOM     15  C   UNL     1       0.422  -1.411   5.949  0.00  0.00    +0.158 C 
BRANCH  15  16
ATOM     16  C   UNL     1       0.387  -0.081   6.655  0.00  0.00    +0.191 C 
ATOM     17  O   UNL     1       0.281   0.939   6.016  0.00  0.00    -0.290 OA
BRANCH  16  18
ATOM     18  C   UNL     1       0.481  -0.023   8.133  0.00  0.00    +0.106 C 
ATOM     19  N   UNL     1       0.603  -1.059   8.903  0.00  0.00    -0.272 NA
ATOM     20  C   UNL     1       0.665  -0.599  10.295  0.00  0.00    +0.137 C 
ATOM     21  C   UNL     1       0.561   0.908  10.233  0.00  0.00    +0.024 C 
ATOM     22  C   UNL     1       0.457   1.218   8.921  0.00  0.00    -0.014 C 
ATOM     23  C   UNL     1       0.334   2.610   8.358  0.00  0.00    +0.046 C 
ATOM     24  C   UNL     1      -0.502  -1.179  11.097  0.00  0.00    +0.038 C 
BRANCH  21  25
ATOM     25  C   UNL     1       0.574   1.840  11.360  0.00  0.00    +0.159 C 
ATOM     26  O   UNL     1       0.481   3.033  11.162  0.00  0.00    -0.293 OA
ATOM     27  C   UNL     1       0.703   1.318  12.768  0.00  0.00    +0.091 C 
ENDBRANCH  21  25
ENDBRANCH  16  18
ENDBRANCH  15  16
ENDBRANCH   1  15
TORSDOF 6
