REMARK  Name = ZINC44021303
REMARK  4 active torsions:
REMARK  status: ('A' for Active; 'I' for Inactive)
REMARK    1  A    between atoms: C_1  and  C_2
REMARK    2  A    between atoms: C_8  and  N_10
REMARK    3  A    between atoms: N_10  and  C_11
REMARK    4  A    between atoms: N_15  and  C_20
REMARK                            x       y       z     vdW  Elec       q    Type
REMARK                         _______ _______ _______ _____ _____    ______ ____
ROOT
ATOM      1  C   UNL     1       2.806   0.132   2.409  0.00  0.00    +0.105 A 
ATOM      2  C   UNL     1       4.120   0.511   2.398  0.00  0.00    +0.112 A 
ATOM      3  C   UNL     1       4.802   0.637   3.619  0.00  0.00    +0.259 A 
ATOM      4  O   UNL     1       5.974   0.974   3.634  0.00  0.00    -0.267 OA
ATOM      5  N   UNL     1       4.155   0.384   4.773  0.00  0.00    -0.255 N 
ATOM      6  C   UNL     1       2.862   0.013   4.765  0.00  0.00    +0.331 A 
ATOM      7  O   UNL     1       2.296  -0.211   5.818  0.00  0.00    -0.246 OA
ATOM      8  N   UNL     1       2.183  -0.110   3.609  0.00  0.00    -0.296 N 
ATOM      9  H   UNL     1       1.250  -0.375   3.623  0.00  0.00    +0.172 HD
ENDROOT
BRANCH   5  10
ATOM     10  C   UNL     1       4.865   0.515   6.048  0.00  0.00    +0.054 C 
ATOM     11  C   UNL     1       4.168   1.566   6.914  0.00  0.00    +0.032 C 
ATOM     12  C   UNL     1       4.910   1.702   8.245  0.00  0.00    -0.008 C 
ATOM     13  C   UNL     1       6.354   2.133   7.983  0.00  0.00    +0.007 C 
ATOM     14  C   UNL     1       7.051   1.082   7.116  0.00  0.00    -0.008 C 
ATOM     15  C   UNL     1       6.309   0.946   5.785  0.00  0.00    +0.032 C 
ATOM     16  C   UNL     1       7.044  -0.264   7.844  0.00  0.00    +0.007 C 
ATOM     17  C   UNL     1       5.600  -0.695   8.106  0.00  0.00    -0.008 C 
ATOM     18  C   UNL     1       4.904   0.356   8.973  0.00  0.00    +0.007 C 
ATOM     19  C   UNL     1       4.858  -0.831   6.775  0.00  0.00    +0.032 C 
ENDBRANCH   5  10
BRANCH   1  20
ATOM     20  N   UNL     1       2.115   0.001   1.232  0.00  0.00    -0.327 N 
ATOM     21  H   UNL     1       2.559   0.173   0.387  0.00  0.00    +0.148 HD
BRANCH  20  28
ATOM     22  C   UNL     1       0.110   1.635  -0.072  0.00  0.00    +0.009 C 
ATOM     23  C   UNL     1       0.014   0.109  -0.016  0.00  0.00    +0.006 C 
ATOM     24  C   UNL     1       0.698  -0.491  -1.246  0.00  0.00    +0.005 C 
ATOM     25  C   UNL     1       0.602  -2.017  -1.190  0.00  0.00    +0.000 C 
ATOM     26  C   UNL     1       1.294  -2.525   0.076  0.00  0.00    +0.002 C 
ATOM     27  C   UNL     1       0.610  -1.925   1.307  0.00  0.00    +0.022 C 
ATOM     28  C   UNL     1       0.706  -0.399   1.250  0.00  0.00    +0.074 C 
ENDBRANCH  20  28
ENDBRANCH   1  20
TORSDOF 3
