REMARK  Name = ZINC40853392
REMARK  8 active torsions:
REMARK  status: ('A' for Active; 'I' for Inactive)
REMARK    1  A    between atoms: C_1  and  S_2
REMARK    2  A    between atoms: S_2  and  C_3
REMARK    3  A    between atoms: C_3  and  C_4
REMARK    4  A    between atoms: C_4  and  C_5
REMARK    5  A    between atoms: C_5  and  C_7
REMARK    6  A    between atoms: C_5  and  N_22
REMARK    7  A    between atoms: N_9  and  C_10
REMARK    8  A    between atoms: C_11  and  C_20
REMARK                            x       y       z     vdW  Elec       q    Type
REMARK                         _______ _______ _______ _____ _____    ______ ____
ROOT
ATOM      1  C   UNL     1      -3.482  -3.878  -0.109  0.00  0.00    +0.203 C 
ATOM      2  O   UNL     1      -3.682  -4.558   0.875  0.00  0.00    -0.277 OA
ATOM      3  N   UNL     1      -3.373  -4.460  -1.320  0.00  0.00    -0.280 N 
ATOM      4  H   UNL     1      -3.214  -3.916  -2.107  0.00  0.00    +0.155 HD
ENDROOT
BRANCH   3   5
ATOM      5  C   UNL     1      -3.489  -5.838  -1.440  0.00  0.00    +0.090 A 
ATOM      6  C   UNL     1      -3.400  -6.602  -2.590  0.00  0.00    +0.084 A 
ATOM      7  C   UNL     1      -3.559  -8.043  -2.452  0.00  0.00    -0.018 A 
ATOM      8  C   UNL     1      -3.784  -8.449  -1.184  0.00  0.00    -0.004 A 
ATOM      9  S   UNL     1      -3.762  -6.961  -0.223  0.00  0.00    -0.077 S 
ATOM     10  C   UNL     1      -4.009  -9.847  -0.698  0.00  0.00    +0.043 C 
ATOM     11  C   UNL     1      -2.921 -10.762  -1.276  0.00  0.00    +0.005 C 
ATOM     12  C   UNL     1      -3.404 -11.303  -2.618  0.00  0.00    +0.001 C 
ATOM     13  C   UNL     1      -4.274 -10.266  -3.324  0.00  0.00    +0.005 C 
ATOM     14  C   UNL     1      -3.466  -9.007  -3.625  0.00  0.00    +0.037 C 
BRANCH   6  15
ATOM     15  C   UNL     1      -3.161  -6.000  -3.867  0.00  0.00    +0.102 C 
ATOM     16  N   UNL     1      -2.972  -5.521  -4.880  0.00  0.00    -0.191 NA
ENDBRANCH   6  15
ENDBRANCH   3   5
BRANCH   1  17
ATOM     17  C   UNL     1      -3.356  -2.382   0.021  0.00  0.00    +0.014 C 
BRANCH  17  18
ATOM     18  N   UNL     1      -3.967  -1.948   1.285  0.00  0.00    +0.386 N 
ATOM     19  H   UNL     1      -3.495  -2.394   2.057  0.00  0.00    -0.089 HD
ATOM     20  H   UNL     1      -3.883  -0.946   1.372  0.00  0.00    -0.089 HD
ATOM     21  H   UNL     1      -4.943  -2.205   1.293  0.00  0.00    -0.089 HD
ENDBRANCH  17  18
BRANCH  17  22
ATOM     22  C   UNL     1      -1.877  -1.992   0.009  0.00  0.00    +0.003 C 
BRANCH  22  23
ATOM     23  C   UNL     1      -1.752  -0.467   0.016  0.00  0.00    +0.068 C 
BRANCH  23  25
ATOM     24  C   UNL     1      -0.022   1.810   0.012  0.00  0.00    +0.084 C 
ATOM     25  S   UNL     1       0.002  -0.004   0.002  0.00  0.00    -0.164 S 
ENDBRANCH  23  25
ENDBRANCH  22  23
ENDBRANCH  17  22
ENDBRANCH   1  17
TORSDOF 7
