REMARK  Name = ZINC04450402
REMARK  9 active torsions:
REMARK  status: ('A' for Active; 'I' for Inactive)
REMARK    1  A    between atoms: C_1  and  C_2
REMARK    2  A    between atoms: C_2  and  N_3
REMARK    3  A    between atoms: C_14  and  C_16
REMARK    4  A    between atoms: C_19  and  C_30
REMARK    5  A    between atoms: C_25  and  N_29
REMARK    6  A    between atoms: C_26  and  C_27
REMARK    7  A    between atoms: C_30  and  C_31
REMARK    8  A    between atoms: C_30  and  C_32
REMARK    9  A    between atoms: C_30  and  C_33
REMARK                            x       y       z     vdW  Elec       q    Type
REMARK                         _______ _______ _______ _____ _____    ______ ____
ROOT
ATOM      1  C   UNL     1       6.447  -1.815  -2.442  0.00  0.00    +0.101 C 
ATOM      2  C   UNL     1       6.758  -2.835  -1.377  0.00  0.00    +0.050 A 
ATOM      3  C   UNL     1       6.308  -4.091  -1.237  0.00  0.00    +0.049 A 
ATOM      4  N   UNL     1       6.872  -4.607  -0.121  0.00  0.00    -0.277 N 
ATOM      5  H   UNL     1       6.729  -5.501   0.228  0.00  0.00    +0.189 HD
ATOM      6  N   UNL     1       7.702  -3.625   0.442  0.00  0.00    -0.135 NA
ATOM      7  C   UNL     1       7.638  -2.562  -0.306  0.00  0.00    +0.245 A 
ATOM      8  O   UNL     1       8.261  -1.361  -0.174  0.00  0.00    -0.421 OA
ATOM      9  C   UNL     1       8.233  -0.526  -1.232  0.00  0.00    +0.201 C 
ATOM     10  C   UNL     1       7.427  -0.677  -2.305  0.00  0.00    +0.098 C 
ENDROOT
BRANCH   1  22
ATOM     11  N   UNL     1       1.155   0.113  -2.010  0.00  0.00    -0.340 N 
ATOM     12  C   UNL     1       0.785   0.187  -3.341  0.00  0.00    +0.050 A 
ATOM     13  C   UNL     1      -0.393   0.589  -3.965  0.00  0.00    +0.026 A 
ATOM     14  C   UNL     1      -0.489   0.561  -5.340  0.00  0.00    +0.002 A 
ATOM     15  C   UNL     1       0.580   0.135  -6.114  0.00  0.00    +0.001 A 
ATOM     16  C   UNL     1       1.754  -0.267  -5.514  0.00  0.00    +0.010 A 
ATOM     17  C   UNL     1       1.865  -0.244  -4.126  0.00  0.00    +0.008 A 
ATOM     18  C   UNL     1       2.948  -0.596  -3.189  0.00  0.00    +0.008 A 
ATOM     19  C   UNL     1       2.454  -0.350  -1.899  0.00  0.00    +0.050 A 
ATOM     20  C   UNL     1       3.272  -0.590  -0.800  0.00  0.00    +0.027 A 
ATOM     21  C   UNL     1       4.555  -1.061  -0.984  0.00  0.00    +0.006 A 
ATOM     22  C   UNL     1       5.042  -1.300  -2.259  0.00  0.00    -0.034 A 
ATOM     23  C   UNL     1       4.244  -1.077  -3.361  0.00  0.00    +0.015 A 
BRANCH  11  25
ATOM     24  C   UNL     1       0.488   1.962  -0.555  0.00  0.00    +0.027 C 
ATOM     25  C   UNL     1       0.297   0.479  -0.881  0.00  0.00    +0.119 C 
ENDBRANCH  11  25
ENDBRANCH   1  22
BRANCH   3  26
ATOM     26  C   UNL     1       5.346  -4.799  -2.157  0.00  0.00    +0.004 C 
ATOM     27  C   UNL     1       5.206  -6.259  -1.722  0.00  0.00    +0.017 C 
ATOM     28  C   UNL     1       3.980  -4.114  -2.092  0.00  0.00    +0.017 C 
ATOM     29  C   UNL     1       5.878  -4.742  -3.591  0.00  0.00    +0.017 C 
ENDBRANCH   3  26
BRANCH   9  30
ATOM     30  N   UNL     1       9.081   0.552  -1.217  0.00  0.00    -0.328 N 
ATOM     31  H   UNL     1       9.674   0.693  -0.462  0.00  0.00    +0.145 HD
ATOM     32  H   UNL     1       9.088   1.174  -1.961  0.00  0.00    +0.145 HD
ENDBRANCH   9  30
BRANCH  10  33
ATOM     33  C   UNL     1       7.508   0.286  -3.361  0.00  0.00    +0.101 C 
ATOM     34  N   UNL     1       7.572   1.050  -4.199  0.00  0.00    -0.191 NA
ENDBRANCH  10  33
TORSDOF 5
