REMARK  Name = ZINC13124158
REMARK  5 active torsions:
REMARK  status: ('A' for Active; 'I' for Inactive)
REMARK    1  A    between atoms: C_6  and  C_7
REMARK    2  A    between atoms: C_10  and  C_28
REMARK    3  A    between atoms: C_15  and  C_17
REMARK    4  A    between atoms: N_19  and  C_20
REMARK    5  A    between atoms: C_20  and  C_21
REMARK                            x       y       z     vdW  Elec       q    Type
REMARK                         _______ _______ _______ _____ _____    ______ ____
ROOT
ATOM      1  C   UNL     1      -1.293  -0.775   0.010  0.00  0.00    +0.104 C 
ATOM      2  C   UNL     1      -1.616  -1.254  -1.409  0.00  0.00    +0.063 C 
ATOM      3  C   UNL     1      -0.455  -2.094  -1.953  0.00  0.00    +0.215 C 
ATOM      4  N   UNL     1      -0.100  -3.111  -0.960  0.00  0.00    -0.238 N 
ATOM      5  C   UNL     1      -0.440  -3.032   0.361  0.00  0.00    +0.119 A 
ATOM      6  C   UNL     1       0.039  -4.126   0.985  0.00  0.00    +0.078 A 
ATOM      7  C   UNL     1       0.703  -4.913   0.016  0.00  0.00    +0.149 A 
ATOM      8  N   UNL     1       0.614  -4.294  -1.148  0.00  0.00    -0.164 NA
ATOM      9  N   UNL     1      -1.163  -1.953   0.889  0.00  0.00    -0.322 N 
ATOM     10  H   UNL     1      -1.556  -1.979   1.776  0.00  0.00    +0.148 HD
ENDROOT
BRANCH   1  16
ATOM     11  C   UNL     1      -0.017   1.378   0.010  0.00  0.00    +0.008 A 
ATOM     12  C   UNL     1       1.170   2.086   0.002  0.00  0.00    +0.038 A 
ATOM     13  C   UNL     1       2.379   1.410  -0.013  0.00  0.00    +0.123 A 
ATOM     14  C   UNL     1       2.396   0.026  -0.021  0.00  0.00    +0.038 A 
ATOM     15  C   UNL     1       1.208  -0.680  -0.013  0.00  0.00    +0.008 A 
ATOM     16  C   UNL     1       0.002  -0.004   0.002  0.00  0.00    -0.027 A 
ATOM     17  F   UNL     1       3.540   2.101  -0.021  0.00  0.00    -0.205 F 
ENDBRANCH   1  16
BRANCH   7  18
ATOM     18  C   UNL     1       1.378  -6.204   0.262  0.00  0.00    +0.264 C 
ATOM     19  O   UNL     1       1.394  -6.677   1.381  0.00  0.00    -0.268 OA
ATOM     20  N   UNL     1       1.976  -6.856  -0.755  0.00  0.00    -0.308 N 
ATOM     21  H   UNL     1       1.963  -6.478  -1.648  0.00  0.00    +0.149 HD
BRANCH  20  22
ATOM     22  C   UNL     1       2.646  -8.136  -0.510  0.00  0.00    +0.136 C 
BRANCH  22  23
ATOM     23  C   UNL     1       3.237  -8.660  -1.821  0.00  0.00    +0.135 C 
ATOM     24  C   UNL     1       3.839 -10.064  -1.599  0.00  0.00    +0.035 C 
ATOM     25  C   UNL     1       5.129 -10.010  -2.462  0.00  0.00    +0.031 C 
ATOM     26  C   UNL     1       5.535  -8.524  -2.291  0.00  0.00    +0.160 C 
ATOM     27  O   UNL     1       4.294  -7.798  -2.256  0.00  0.00    -0.375 OA
ENDBRANCH  22  23
ENDBRANCH  20  22
ENDBRANCH   7  18
BRANCH   3  28
ATOM     28  C   UNL     1      -0.882  -2.775  -3.256  0.00  0.00    +0.412 C 
ATOM     29  F   UNL     1      -1.232  -1.801  -4.197  0.00  0.00    -0.168 F 
ATOM     30  F   UNL     1       0.179  -3.541  -3.751  0.00  0.00    -0.168 F 
ATOM     31  F   UNL     1      -1.982  -3.603  -3.011  0.00  0.00    -0.168 F 
ENDBRANCH   3  28
TORSDOF 5
