REMARK  Name = ZINC40984014
REMARK  10 active torsions:
REMARK  status: ('A' for Active; 'I' for Inactive)
REMARK    1  A    between atoms: C_1  and  C_2
REMARK    2  A    between atoms: C_3  and  C_14
REMARK    3  A    between atoms: C_5  and  C_7
REMARK    4  A    between atoms: C_14  and  N_15
REMARK    5  A    between atoms: C_18  and  C_21
REMARK    6  A    between atoms: C_30  and  O_32
REMARK    7  A    between atoms: O_32  and  C_33
REMARK    8  A    between atoms: C_33  and  C_34
REMARK    9  A    between atoms: C_33  and  C_35
REMARK   10  A    between atoms: C_33  and  C_36
REMARK                            x       y       z     vdW  Elec       q    Type
REMARK                         _______ _______ _______ _____ _____    ______ ____
ROOT
ATOM      1  N   UNL     1      -3.182  -0.032  -1.283  0.00  0.00    +0.383 N 
ATOM      2  C   UNL     1      -2.902  -1.274  -2.013  0.00  0.00    -0.078 C 
ATOM      3  C   UNL     1      -3.305  -1.110  -3.480  0.00  0.00    -0.006 C 
ATOM      4  C   UNL     1      -4.801  -0.795  -3.561  0.00  0.00    +0.072 C 
ATOM      5  C   UNL     1      -5.094   0.461  -2.735  0.00  0.00    -0.006 C 
ATOM      6  C   UNL     1      -4.625   0.238  -1.295  0.00  0.00    -0.078 C 
ATOM      7  H   UNL     1      -2.694   0.733  -1.724  0.00  0.00    -0.081 HD
ENDROOT
BRANCH   4   8
ATOM      8  C   UNL     1      -5.189  -0.555  -4.997  0.00  0.00    +0.219 C 
ATOM      9  O   UNL     1      -4.351  -0.204  -5.801  0.00  0.00    -0.275 OA
ATOM     10  N   UNL     1      -6.466  -0.731  -5.389  0.00  0.00    -0.300 N 
ATOM     11  C   UNL     1      -6.765  -0.604  -6.815  0.00  0.00    +0.109 C 
ATOM     12  C   UNL     1      -6.798  -1.996  -7.413  0.00  0.00    +0.038 C 
ATOM     13  C   UNL     1      -8.193  -2.609  -7.260  0.00  0.00    +0.112 C 
ATOM     14  N   UNL     1      -8.792  -2.329  -5.947  0.00  0.00    -0.266 N 
ATOM     15  C   UNL     1      -8.053  -2.417  -4.699  0.00  0.00    +0.130 C 
ATOM     16  C   UNL     1      -7.429  -1.033  -4.388  0.00  0.00    +0.127 C 
ATOM     17  C   UNL     1     -10.091  -1.973  -5.898  0.00  0.00    +0.403 C 
ATOM     18  O   UNL     1     -10.737  -1.891  -6.923  0.00  0.00    -0.226 OA
BRANCH  17  19
ATOM     19  O   UNL     1     -10.672  -1.710  -4.713  0.00  0.00    -0.445 OA
BRANCH  19  20
ATOM     20  C   UNL     1     -12.052  -1.339  -4.735  0.00  0.00    +0.107 C 
ATOM     21  C   UNL     1     -12.875  -2.471  -5.354  0.00  0.00    +0.055 C 
ATOM     22  C   UNL     1     -12.534  -1.081  -3.306  0.00  0.00    +0.055 C 
ATOM     23  C   UNL     1     -12.225  -0.068  -5.569  0.00  0.00    +0.055 C 
ENDBRANCH  19  20
ENDBRANCH  17  19
ENDBRANCH   4   8
BRANCH   1  24
ATOM     24  C   UNL     1      -2.723  -0.167   0.106  0.00  0.00    -0.019 C 
BRANCH  24  27
ATOM     25  C   UNL     1      -0.631   2.149   0.290  0.00  0.00    +0.088 C 
ATOM     26  C   UNL     1      -0.325   0.675   0.206  0.00  0.00    +0.124 A 
ATOM     27  C   UNL     1      -1.224  -0.323   0.126  0.00  0.00    +0.066 A 
ATOM     28  N   UNL     1      -0.549  -1.480   0.069  0.00  0.00    -0.216 NA
ATOM     29  C   UNL     1       0.737  -1.219   0.110  0.00  0.00    +0.228 A 
ATOM     30  O   UNL     1       0.900   0.113   0.190  0.00  0.00    -0.440 OA
BRANCH  29  31
ATOM     31  C   UNL     1       1.823  -2.221   0.071  0.00  0.00    +0.038 A 
ATOM     32  C   UNL     1       1.520  -3.580  -0.024  0.00  0.00    +0.013 A 
ATOM     33  C   UNL     1       2.538  -4.510  -0.060  0.00  0.00    +0.002 A 
ATOM     34  C   UNL     1       3.857  -4.099  -0.003  0.00  0.00    +0.020 A 
ATOM     35  C   UNL     1       4.166  -2.753   0.091  0.00  0.00    +0.042 A 
ATOM     36  C   UNL     1       3.156  -1.811   0.123  0.00  0.00    +0.033 A 
ATOM     37 CL   UNL     1       5.825  -2.247   0.164  0.00  0.00    -0.084 Cl
ENDBRANCH  29  31
ENDBRANCH  24  27
ENDBRANCH   1  24
TORSDOF 6
