REMARK  Name = ZINC29233820
REMARK  13 active torsions:
REMARK  status: ('A' for Active; 'I' for Inactive)
REMARK    1  A    between atoms: C_1  and  C_2
REMARK    2  A    between atoms: C_2  and  C_3
REMARK    3  A    between atoms: C_2  and  C_4
REMARK    4  A    between atoms: C_4  and  C_6
REMARK    5  A    between atoms: C_4  and  N_35
REMARK    6  A    between atoms: C_6  and  O_8
REMARK    7  A    between atoms: O_8  and  C_9
REMARK    8  A    between atoms: C_9  and  C_10
REMARK    9  A    between atoms: C_10  and  N_11
REMARK   10  A    between atoms: C_13  and  C_28
REMARK   11  A    between atoms: C_14  and  C_21
REMARK   12  A    between atoms: C_15  and  C_18
REMARK   13  A    between atoms: C_18  and  C_20
REMARK                            x       y       z     vdW  Elec       q    Type
REMARK                         _______ _______ _______ _____ _____    ______ ____
ROOT
ATOM      1  N   UNL     1      -3.533   3.593  -0.016  0.00  0.00    -0.311 N 
ATOM      2  C   UNL     1      -4.081   4.061   1.131  0.00  0.00    +0.098 A 
ATOM      3  C   UNL     1      -3.551   3.734   2.358  0.00  0.00    +0.007 A 
ATOM      4  C   UNL     1      -2.418   2.889   2.429  0.00  0.00    +0.007 A 
ATOM      5  C   UNL     1      -1.855   2.415   1.227  0.00  0.00    +0.090 A 
ATOM      6  C   UNL     1      -2.452   2.792  -0.004  0.00  0.00    +0.263 A 
ATOM      7  O   UNL     1      -1.984   2.389  -1.054  0.00  0.00    -0.267 OA
ENDROOT
BRANCH   4   8
ATOM      8  C   UNL     1      -1.833   2.518   3.733  0.00  0.00    -0.016 A 
ATOM      9  C   UNL     1      -2.567   1.744   4.636  0.00  0.00    +0.010 A 
ATOM     10  C   UNL     1      -2.014   1.396   5.850  0.00  0.00    +0.020 A 
ATOM     11  C   UNL     1      -0.738   1.822   6.181  0.00  0.00    +0.041 A 
ATOM     12  C   UNL     1      -0.007   2.594   5.292  0.00  0.00    +0.020 A 
ATOM     13  C   UNL     1      -0.547   2.944   4.073  0.00  0.00    +0.010 A 
ATOM     14 CL   UNL     1      -0.051   1.386   7.714  0.00  0.00    -0.084 Cl
ENDBRANCH   4   8
BRANCH   3  15
ATOM     15  C   UNL     1      -4.168   4.259   3.600  0.00  0.00    -0.016 A 
ATOM     16  C   UNL     1      -3.456   5.134   4.419  0.00  0.00    +0.010 A 
ATOM     17  C   UNL     1      -4.037   5.625   5.571  0.00  0.00    +0.020 A 
ATOM     18  C   UNL     1      -5.320   5.240   5.920  0.00  0.00    +0.041 A 
ATOM     19  C   UNL     1      -6.030   4.367   5.112  0.00  0.00    +0.020 A 
ATOM     20  C   UNL     1      -5.460   3.876   3.956  0.00  0.00    +0.010 A 
ATOM     21 CL   UNL     1      -6.042   5.855   7.374  0.00  0.00    -0.084 Cl
ENDBRANCH   3  15
BRANCH   5  22
ATOM     22  C   UNL     1      -0.718   1.572   1.248  0.00  0.00    +0.166 C 
ATOM     23  O   UNL     1      -0.798   0.456   1.720  0.00  0.00    -0.292 OA
ATOM     24  C   UNL     1       0.591   2.059   0.683  0.00  0.00    +0.092 C 
ENDBRANCH   5  22
BRANCH   1  25
ATOM     25  C   UNL     1      -4.131   3.968  -1.300  0.00  0.00    +0.166 C 
BRANCH  25  26
ATOM     26  C   UNL     1      -5.197   2.941  -1.685  0.00  0.00    +0.253 C 
BRANCH  26  27
ATOM     27  O   UNL     1      -6.286   2.990  -0.725  0.00  0.00    -0.464 OA
BRANCH  27  28
ATOM     28  C   UNL     1      -7.310   2.145  -0.921  0.00  0.00    +0.293 C 
ATOM     29  O   UNL     1      -7.298   1.389  -1.864  0.00  0.00    -0.253 OA
BRANCH  28  30
ATOM     30  C   UNL     1      -8.476   2.139   0.034  0.00  0.00    +0.039 C 
BRANCH  30  31
ATOM     31  N   UNL     1      -9.201   0.868  -0.087  0.00  0.00    +0.387 N 
ATOM     32  H   UNL     1      -8.525   0.035   0.155  0.00  0.00    -0.089 HD
ATOM     33  H   UNL     1      -9.571   0.753  -1.117  0.00  0.00    -0.089 HD
ATOM     34  H   UNL     1     -10.052   0.863   0.610  0.00  0.00    -0.089 HD
ENDBRANCH  30  31
BRANCH  30  36
ATOM     35  C   UNL     1     -10.027   3.073  -1.688  0.00  0.00    +0.006 C 
ATOM     36  C   UNL     1      -9.417   3.298  -0.303  0.00  0.00    -0.021 C 
ATOM     37  C   UNL     1     -10.533   3.368   0.742  0.00  0.00    +0.006 C 
ENDBRANCH  30  36
ENDBRANCH  28  30
ENDBRANCH  27  28
ENDBRANCH  26  27
ENDBRANCH  25  26
ENDBRANCH   1  25
TORSDOF 10
