REMARK  Name = ZINC20831209
REMARK  10 active torsions:
REMARK  status: ('A' for Active; 'I' for Inactive)
REMARK    1  A    between atoms: C_1  and  C_2
REMARK    2  A    between atoms: C_2  and  C_3
REMARK    3  A    between atoms: C_2  and  S_4
REMARK    4  A    between atoms: S_4  and  C_5
REMARK    5  A    between atoms: C_11  and  C_13
REMARK    6  A    between atoms: C_13  and  S_14
REMARK    7  A    between atoms: S_14  and  C_15
REMARK    8  A    between atoms: C_18  and  C_23
REMARK    9  A    between atoms: N_19  and  C_20
REMARK   10  A    between atoms: C_20  and  C_21
REMARK                            x       y       z     vdW  Elec       q    Type
REMARK                         _______ _______ _______ _____ _____    ______ ____
ROOT
ATOM      1  S   UNL     1      -1.016  -5.378   0.171  0.00  0.00    -0.077 S 
ENDROOT
BRANCH   1   2
ATOM      2  C   UNL     1      -0.492  -7.053   0.015  0.00  0.00    +0.193 A 
ATOM      3  N   UNL     1       0.653  -7.468  -0.478  0.00  0.00    -0.122 NA
ATOM      4  N   UNL     1       0.709  -8.752  -0.443  0.00  0.00    -0.128 NA
ATOM      5  C   UNL     1      -0.397  -9.234   0.074  0.00  0.00    +0.165 A 
ATOM      6  N   UNL     1      -1.198  -8.161   0.388  0.00  0.00    -0.298 N 
BRANCH   5   7
ATOM      7  C   UNL     1      -0.719 -10.662   0.284  0.00  0.00    +0.019 A 
ATOM      8  C   UNL     1      -2.034 -11.110   0.158  0.00  0.00    +0.012 A 
ATOM      9  C   UNL     1      -2.328 -12.444   0.350  0.00  0.00    +0.016 A 
ATOM     10  C   UNL     1      -1.321 -13.336   0.679  0.00  0.00    +0.018 A 
ATOM     11  C   UNL     1      -0.015 -12.897   0.811  0.00  0.00    +0.016 A 
ATOM     12  C   UNL     1       0.292 -11.566   0.616  0.00  0.00    +0.012 A 
ATOM     13 BR   UNL     1      -1.733 -15.162   0.949  0.00  0.00    -0.050 Br
ENDBRANCH   5   7
BRANCH   6  14
ATOM     14  C   UNL     1      -2.531  -8.198   0.995  0.00  0.00    +0.152 C 
BRANCH  14  15
ATOM     15  C   UNL     1      -3.577  -8.115  -0.086  0.00  0.00    -0.013 C 
ATOM     16  C   UNL     1      -4.528  -9.014  -0.148  0.00  0.00    +0.005 C 
ENDBRANCH  14  15
ENDBRANCH   6  14
ENDBRANCH   1   2
BRANCH   1  17
ATOM     17  C   UNL     1       0.429  -4.531  -0.516  0.00  0.00    +0.173 C 
BRANCH  17  24
ATOM     18  C   UNL     1       0.875   1.833  -1.012  0.00  0.00    +0.160 A 
ATOM     19  N   UNL     1      -0.134   1.124  -0.527  0.00  0.00    -0.133 NA
ATOM     20  N   UNL     1      -0.103  -0.136  -0.483  0.00  0.00    -0.125 NA
ATOM     21  C   UNL     1       0.938  -0.828  -0.917  0.00  0.00    +0.189 A 
ATOM     22  S   UNL     1       1.999   0.511  -1.454  0.00  0.00    -0.024 S 
ATOM     23  N   UNL     1       1.149  -2.204  -0.947  0.00  0.00    -0.263 N 
ATOM     24  C   UNL     1       0.200  -3.042  -0.483  0.00  0.00    +0.229 C 
ATOM     25  O   UNL     1      -0.837  -2.597  -0.040  0.00  0.00    -0.275 OA
ATOM     26  H   UNL     1       2.090  -2.608  -1.349  0.00  0.00    +0.157 HD
BRANCH  18  27
ATOM     27  S   UNL     1       1.057   3.578  -1.176  0.00  0.00    -0.094 S 
BRANCH  27  29
ATOM     28  C   UNL     1      -0.418   5.773  -0.480  0.00  0.00    +0.019 C 
ATOM     29  C   UNL     1      -0.493   4.245  -0.513  0.00  0.00    +0.047 C 
ATOM     30  C   UNL     1      -1.658   3.811  -1.404  0.00  0.00    +0.019 C 
ENDBRANCH  27  29
ENDBRANCH  18  27
ENDBRANCH  17  24
ENDBRANCH   1  17
TORSDOF 8
