REMARK  Name = ZINC24228104
REMARK  12 active torsions:
REMARK  status: ('A' for Active; 'I' for Inactive)
REMARK    1  A    between atoms: C_1  and  C_2
REMARK    2  A    between atoms: C_7  and  N_8
REMARK    3  A    between atoms: C_9  and  C_11
REMARK    4  A    between atoms: C_11  and  C_13
REMARK    5  A    between atoms: C_11  and  S_14
REMARK    6  A    between atoms: S_14  and  C_15
REMARK    7  A    between atoms: C_18  and  C_27
REMARK    8  A    between atoms: N_19  and  C_20
REMARK    9  A    between atoms: C_27  and  C_29
REMARK   10  A    between atoms: C_27  and  N_30
REMARK   11  A    between atoms: N_30  and  C_31
REMARK   12  A    between atoms: N_30  and  C_32
REMARK                            x       y       z     vdW  Elec       q    Type
REMARK                         _______ _______ _______ _____ _____    ______ ____
ROOT
ATOM      1  C   UNL     1      -5.150   1.136  -0.446  0.00  0.00    +0.197 A 
ATOM      2  N   UNL     1      -5.187  -0.075   0.059  0.00  0.00    -0.122 NA
ATOM      3  N   UNL     1      -6.386  -0.535   0.006  0.00  0.00    -0.135 NA
ATOM      4  C   UNL     1      -7.180   0.344  -0.538  0.00  0.00    +0.125 A 
ATOM      5  N   UNL     1      -6.422   1.442  -0.847  0.00  0.00    -0.275 N 
ENDROOT
BRANCH   5   6
ATOM      6  C   UNL     1      -6.859   2.631  -1.449  0.00  0.00    +0.050 A 
ATOM      7  C   UNL     1      -7.761   3.454  -0.788  0.00  0.00    +0.029 A 
ATOM      8  C   UNL     1      -8.186   4.627  -1.380  0.00  0.00    +0.040 A 
ATOM      9  C   UNL     1      -7.721   4.978  -2.637  0.00  0.00    +0.124 A 
ATOM     10  C   UNL     1      -6.824   4.156  -3.299  0.00  0.00    +0.040 A 
ATOM     11  C   UNL     1      -6.394   2.984  -2.708  0.00  0.00    +0.029 A 
ATOM     12  F   UNL     1      -8.141   6.123  -3.216  0.00  0.00    -0.205 F 
ENDBRANCH   5   6
BRANCH   4  13
ATOM     13  C   UNL     1      -8.658   0.181  -0.782  0.00  0.00    -0.003 C 
ATOM     14  C   UNL     1      -8.879  -0.754  -1.973  0.00  0.00    -0.005 C 
BRANCH  13  15
ATOM     15  N   UNL     1      -9.292  -0.391   0.413  0.00  0.00    +0.382 N 
ATOM     16  C   UNL     1     -10.751  -0.454   0.256  0.00  0.00    -0.096 C 
ATOM     17  C   UNL     1      -8.738  -1.716   0.720  0.00  0.00    -0.096 C 
ATOM     18  H   UNL     1      -9.072   0.272   1.263  0.00  0.00    -0.082 HD
ENDBRANCH  13  15
ENDBRANCH   4  13
BRANCH   1  19
ATOM     19  S   UNL     1      -3.730   2.170  -0.588  0.00  0.00    -0.073 S 
BRANCH  19  20
ATOM     20  C   UNL     1      -2.478   1.086   0.142  0.00  0.00    +0.137 C 
ATOM     21  C   UNL     1      -2.800   0.858   1.620  0.00  0.00    +0.029 C 
BRANCH  20  23
ATOM     22  N   UNL     1      -0.011   0.966   0.007  0.00  0.00    -0.284 N 
ATOM     23  C   UNL     1      -1.121   1.730   0.017  0.00  0.00    +0.230 C 
ATOM     24  O   UNL     1      -1.028   2.936  -0.076  0.00  0.00    -0.274 OA
ATOM     25  H   UNL     1      -0.098  -0.131   0.022  0.00  0.00    +0.155 HD
BRANCH  22  32
ATOM     26  C   UNL     1       2.115  -0.308   1.405  0.00  0.00    +0.045 C 
ATOM     27  C   UNL     1       2.317   0.979   0.649  0.00  0.00    -0.029 A 
ATOM     28  C   UNL     1       3.563   1.575   0.620  0.00  0.00    +0.006 A 
ATOM     29  C   UNL     1       3.751   2.756  -0.074  0.00  0.00    +0.020 A 
ATOM     30  C   UNL     1       2.691   3.345  -0.742  0.00  0.00    +0.043 A 
ATOM     31  C   UNL     1       1.444   2.751  -0.722  0.00  0.00    +0.043 A 
ATOM     32  C   UNL     1       1.252   1.567  -0.020  0.00  0.00    +0.038 A 
ATOM     33 CL   UNL     1       2.931   4.828  -1.613  0.00  0.00    -0.083 Cl
ENDBRANCH  22  32
ENDBRANCH  20  23
ENDBRANCH  19  20
ENDBRANCH   1  19
TORSDOF 7
