REMARK  Name = ZINC01185894
REMARK  8 active torsions:
REMARK  status: ('A' for Active; 'I' for Inactive)
REMARK    1  A    between atoms: C_1  and  C_2
REMARK    2  A    between atoms: C_2  and  O_3
REMARK    3  A    between atoms: O_3  and  C_4
REMARK    4  A    between atoms: C_9  and  N_10
REMARK    5  A    between atoms: C_11  and  C_13
REMARK    6  A    between atoms: C_14  and  C_31
REMARK    7  A    between atoms: C_19  and  C_21
REMARK    8  A    between atoms: C_25  and  N_27
REMARK                            x       y       z     vdW  Elec       q    Type
REMARK                         _______ _______ _______ _____ _____    ______ ____
ROOT
ATOM      1  C   UNL     1      -0.518   1.369   0.024  0.00  0.00    +0.056 C 
ATOM      2  C   UNL     1       0.635   1.940   0.431  0.00  0.00    +0.017 C 
ATOM      3  N   UNL     1       1.779   1.205   0.559  0.00  0.00    -0.300 N 
ATOM      4  C   UNL     1       1.851  -0.107   0.301  0.00  0.00    +0.135 C 
ATOM      5  S   UNL     1       3.350  -0.909   0.502  0.00  0.00    -0.019 S 
ATOM      6  N   UNL     1       0.783  -0.816  -0.114  0.00  0.00    -0.315 N 
ATOM      7  C   UNL     1      -0.500  -0.115  -0.284  0.00  0.00    +0.139 C 
ATOM      8  C   UNL     1       0.661   3.413   0.748  0.00  0.00    +0.061 C 
ATOM      9  H   UNL     1       2.584   1.658   0.855  0.00  0.00    +0.154 HD
ATOM     10  H   UNL     1       0.858  -1.766  -0.296  0.00  0.00    +0.149 HD
ENDROOT
BRANCH   7  11
ATOM     11  C   UNL     1      -0.944  -0.297  -1.713  0.00  0.00    -0.020 A 
ATOM     12  C   UNL     1      -0.038  -0.132  -2.744  0.00  0.00    +0.007 A 
ATOM     13  C   UNL     1      -0.444  -0.300  -4.054  0.00  0.00    +0.018 A 
ATOM     14  C   UNL     1      -1.757  -0.633  -4.334  0.00  0.00    +0.048 A 
ATOM     15  C   UNL     1      -2.663  -0.798  -3.302  0.00  0.00    +0.140 A 
ATOM     16  C   UNL     1      -2.255  -0.635  -1.992  0.00  0.00    +0.039 A 
ATOM     17 BR   UNL     1      -2.313  -0.863  -6.127  0.00  0.00    -0.048 Br
BRANCH  15  18
ATOM     18  N   UNL     1      -4.068  -1.155  -3.601  0.00  0.00    +0.058 N 
ATOM     19  O   UNL     1      -4.886  -1.214  -2.700  0.00  0.00    -0.126 OA
ATOM     20  O   UNL     1      -4.407  -1.389  -4.747  0.00  0.00    -0.126 OA
ENDBRANCH  15  18
ENDBRANCH   7  11
BRANCH   1  22
ATOM     21  N   UNL     1      -1.859   2.948  -1.176  0.00  0.00    -0.279 N 
ATOM     22  C   UNL     1      -1.704   2.131  -0.115  0.00  0.00    +0.248 C 
ATOM     23  O   UNL     1      -2.582   2.050   0.724  0.00  0.00    -0.270 OA
ATOM     24  H   UNL     1      -1.198   2.953  -1.885  0.00  0.00    +0.155 HD
BRANCH  21  30
ATOM     25  C   UNL     1      -3.375   4.308  -2.484  0.00  0.00    +0.142 A 
ATOM     26  C   UNL     1      -4.480   5.140  -2.555  0.00  0.00    +0.047 A 
ATOM     27  C   UNL     1      -5.184   5.455  -1.407  0.00  0.00    +0.004 A 
ATOM     28  C   UNL     1      -4.788   4.942  -0.186  0.00  0.00    +0.002 A 
ATOM     29  C   UNL     1      -3.690   4.106  -0.107  0.00  0.00    +0.027 A 
ATOM     30  C   UNL     1      -2.976   3.790  -1.254  0.00  0.00    +0.076 A 
BRANCH  25  31
ATOM     31  O   UNL     1      -2.682   3.998  -3.612  0.00  0.00    -0.490 OA
BRANCH  31  33
ATOM     32  C   UNL     1      -2.259   4.106  -5.989  0.00  0.00    +0.048 C 
ATOM     33  C   UNL     1      -3.080   4.651  -4.818  0.00  0.00    +0.226 C 
ENDBRANCH  31  33
ENDBRANCH  25  31
ENDBRANCH  21  30
ENDBRANCH   1  22
TORSDOF 6
