REMARK  Name = ZINC13686765
REMARK  6 active torsions:
REMARK  status: ('A' for Active; 'I' for Inactive)
REMARK    1  A    between atoms: C_1  and  C_2
REMARK    2  A    between atoms: C_2  and  C_3
REMARK    3  A    between atoms: C_3  and  C_5
REMARK    4  A    between atoms: C_3  and  N_6
REMARK    5  A    between atoms: C_7  and  C_9
REMARK    6  A    between atoms: C_14  and  N_15
REMARK                            x       y       z     vdW  Elec       q    Type
REMARK                         _______ _______ _______ _____ _____    ______ ____
ROOT
ATOM      1  N   UNL     1       4.626   4.099   0.652  0.00  0.00    -0.268 N 
ATOM      2  C   UNL     1       3.676   3.258   0.197  0.00  0.00    +0.315 C 
ATOM      3  O   UNL     1       3.794   2.060   0.368  0.00  0.00    -0.252 OA
ATOM      4  N   UNL     1       2.598   3.744  -0.448  0.00  0.00    -0.222 N 
ATOM      5  C   UNL     1       2.415   5.131  -0.520  0.00  0.00    +0.057 A 
ATOM      6  C   UNL     1       2.745   5.937   0.559  0.00  0.00    +0.025 A 
ATOM      7  C   UNL     1       2.560   7.306   0.481  0.00  0.00    +0.002 A 
ATOM      8  C   UNL     1       2.041   7.879  -0.664  0.00  0.00    +0.001 A 
ATOM      9  C   UNL     1       1.713   7.085  -1.750  0.00  0.00    +0.017 A 
ATOM     10  C   UNL     1       1.897   5.716  -1.678  0.00  0.00    +0.035 A 
ATOM     11  S   UNL     1       1.482   4.676  -3.043  0.00  0.00    -0.086 S 
ATOM     12  C   UNL     1       1.082   3.151  -2.249  0.00  0.00    +0.035 A 
ATOM     13  C   UNL     1       1.690   2.849  -1.028  0.00  0.00    +0.057 A 
ATOM     14  C   UNL     1       1.384   1.654  -0.395  0.00  0.00    +0.025 A 
ATOM     15  C   UNL     1       0.485   0.775  -0.973  0.00  0.00    +0.002 A 
ATOM     16  C   UNL     1      -0.113   1.079  -2.181  0.00  0.00    +0.001 A 
ATOM     17  C   UNL     1       0.185   2.269  -2.822  0.00  0.00    +0.017 A 
ATOM     18  H   UNL     1       4.514   5.058   0.549  0.00  0.00    +0.156 HD
ENDROOT
BRANCH   1  24
ATOM     19  C   UNL     1       6.968   4.317   1.231  0.00  0.00    +0.058 A 
ATOM     20  C   UNL     1       8.104   3.801   1.859  0.00  0.00    +0.015 A 
ATOM     21  C   UNL     1       8.042   2.583   2.500  0.00  0.00    +0.001 A 
ATOM     22  C   UNL     1       6.855   1.868   2.531  0.00  0.00    +0.002 A 
ATOM     23  C   UNL     1       5.723   2.368   1.920  0.00  0.00    +0.024 A 
ATOM     24  C   UNL     1       5.767   3.594   1.269  0.00  0.00    +0.047 A 
BRANCH  19  26
ATOM     25  N   UNL     1       8.149   6.365   0.606  0.00  0.00    -0.309 N 
ATOM     26  C   UNL     1       7.029   5.618   0.538  0.00  0.00    +0.246 C 
ATOM     27  O   UNL     1       6.070   6.016  -0.094  0.00  0.00    -0.270 OA
ATOM     28  H   UNL     1       8.914   6.048   1.110  0.00  0.00    +0.149 HD
BRANCH  25  29
ATOM     29  C   UNL     1       8.210   7.657  -0.083  0.00  0.00    +0.070 C 
ATOM     30  C   UNL     1       7.608   8.741   0.813  0.00  0.00    +0.028 C 
BRANCH  29  32
ATOM     31  C   UNL     1      10.233   6.986  -1.386  0.00  0.00    +0.005 C 
ATOM     32  C   UNL     1       9.668   8.002  -0.391  0.00  0.00    +0.018 C 
ENDBRANCH  29  32
ENDBRANCH  25  29
ENDBRANCH  19  26
ENDBRANCH   1  24
TORSDOF 4
