REMARK  Name = ZINC04799983
REMARK  10 active torsions:
REMARK  status: ('A' for Active; 'I' for Inactive)
REMARK    1  A    between atoms: C_1  and  C_2
REMARK    2  A    between atoms: C_7  and  N_12
REMARK    3  A    between atoms: C_9  and  C_11
REMARK    4  A    between atoms: C_13  and  C_15
REMARK    5  A    between atoms: N_20  and  C_31
REMARK    6  A    between atoms: C_21  and  C_23
REMARK    7  A    between atoms: C_26  and  O_29
REMARK    8  A    between atoms: O_29  and  C_30
REMARK    9  A    between atoms: C_34  and  O_37
REMARK   10  A    between atoms: O_37  and  C_38
REMARK                            x       y       z     vdW  Elec       q    Type
REMARK                         _______ _______ _______ _____ _____    ______ ____
ROOT
ATOM      1  C   UNL     1      -0.942   1.740   1.196  0.00  0.00    +0.109 C 
ATOM      2  C   UNL     1      -0.448   1.408  -0.231  0.00  0.00    +0.111 C 
ATOM      3  C   UNL     1      -1.628   1.732  -1.120  0.00  0.00    +0.221 C 
ATOM      4  O   UNL     1      -1.572   1.880  -2.322  0.00  0.00    -0.275 OA
ATOM      5  N   UNL     1      -2.748   1.833  -0.383  0.00  0.00    -0.263 N 
ATOM      6  C   UNL     1      -2.475   1.590   1.038  0.00  0.00    +0.124 C 
ENDROOT
BRANCH   6   7
ATOM      7  C   UNL     1      -3.188   2.609   1.888  0.00  0.00    -0.026 A 
ATOM      8  C   UNL     1      -3.365   3.897   1.419  0.00  0.00    +0.009 A 
ATOM      9  C   UNL     1      -4.024   4.832   2.194  0.00  0.00    +0.046 A 
ATOM     10  C   UNL     1      -4.499   4.479   3.449  0.00  0.00    +0.120 A 
ATOM     11  C   UNL     1      -4.316   3.187   3.920  0.00  0.00    +0.046 A 
ATOM     12  C   UNL     1      -3.661   2.255   3.139  0.00  0.00    +0.009 A 
BRANCH  10  13
ATOM     13  O   UNL     1      -5.143   5.398   4.216  0.00  0.00    -0.495 OA
ATOM     14  C   UNL     1      -5.296   6.709   3.667  0.00  0.00    +0.277 C 
ENDBRANCH  10  13
ENDBRANCH   6   7
BRANCH   5  15
ATOM     15  C   UNL     1      -4.013   2.132  -0.905  0.00  0.00    +0.037 A 
ATOM     16  C   UNL     1      -5.133   2.075  -0.087  0.00  0.00    +0.027 A 
ATOM     17  C   UNL     1      -6.380   2.375  -0.600  0.00  0.00    +0.047 A 
ATOM     18  C   UNL     1      -6.514   2.722  -1.937  0.00  0.00    +0.120 A 
ATOM     19  C   UNL     1      -5.396   2.775  -2.756  0.00  0.00    +0.047 A 
ATOM     20  C   UNL     1      -4.148   2.481  -2.242  0.00  0.00    +0.027 A 
BRANCH  18  21
ATOM     21  O   UNL     1      -7.742   3.012  -2.443  0.00  0.00    -0.495 OA
ATOM     22  C   UNL     1      -8.849   2.938  -1.543  0.00  0.00    +0.277 C 
ENDBRANCH  18  21
ENDBRANCH   5  15
BRANCH   1  24
ATOM     23  N   UNL     1      -0.056   3.404   2.799  0.00  0.00    -0.312 N 
ATOM     24  C   UNL     1      -0.574   3.150   1.580  0.00  0.00    +0.219 C 
ATOM     25  O   UNL     1      -0.744   4.057   0.793  0.00  0.00    -0.275 OA
ATOM     26  H   UNL     1       0.080   2.678   3.428  0.00  0.00    +0.149 HD
BRANCH  23  32
ATOM     27  C   UNL     1       1.938   3.969   6.563  0.00  0.00    +0.008 C 
ATOM     28  C   UNL     1       0.855   4.001   5.482  0.00  0.00    -0.009 C 
ATOM     29  C   UNL     1      -0.382   4.722   6.020  0.00  0.00    +0.003 C 
ATOM     30  C   UNL     1      -1.464   4.754   4.939  0.00  0.00    +0.002 C 
ATOM     31  C   UNL     1      -0.935   5.496   3.710  0.00  0.00    +0.022 C 
ATOM     32  C   UNL     1       0.302   4.774   3.172  0.00  0.00    +0.076 C 
ATOM     33  C   UNL     1       1.384   4.743   4.253  0.00  0.00    +0.009 C 
ATOM     34  C   UNL     1       2.621   4.021   3.715  0.00  0.00    +0.009 C 
ENDBRANCH  23  32
ENDBRANCH   1  24
TORSDOF 6
