REMARK  Name = ZINC54476087
REMARK  6 active torsions:
REMARK  status: ('A' for Active; 'I' for Inactive)
REMARK    1  A    between atoms: C_1  and  C_2
REMARK    2  A    between atoms: C_2  and  C_3
REMARK    3  A    between atoms: C_3  and  N_4
REMARK    4  A    between atoms: C_5  and  C_7
REMARK    5  A    between atoms: C_10  and  N_14
REMARK    6  A    between atoms: C_21  and  C_23
REMARK                            x       y       z     vdW  Elec       q    Type
REMARK                         _______ _______ _______ _____ _____    ______ ____
ROOT
ATOM      1  C   UNL     1       1.364  -4.122   2.241  0.00  0.00    +0.055 A 
ATOM      2  C   UNL     1       1.379  -4.812   1.025  0.00  0.00    +0.016 A 
ATOM      3  C   UNL     1       1.404  -6.188   1.017  0.00  0.00    +0.024 A 
ATOM      4  C   UNL     1       1.414  -6.894   2.217  0.00  0.00    +0.036 A 
ATOM      5  C   UNL     1       1.399  -6.212   3.429  0.00  0.00    +0.044 A 
ATOM      6  C   UNL     1       1.381  -4.834   3.445  0.00  0.00    +0.055 A 
ATOM      7 CL   UNL     1       1.371  -3.983   4.958  0.00  0.00    -0.083 Cl
ENDROOT
BRANCH   4   8
ATOM      8  N   UNL     1       1.439  -8.288   2.203  0.00  0.00    -0.269 N 
ATOM      9  C   UNL     1       2.122  -8.959   3.152  0.00  0.00    +0.307 C 
ATOM     10  O   UNL     1       2.646  -8.353   4.067  0.00  0.00    -0.252 OA
ATOM     11  N   UNL     1       2.223 -10.301   3.087  0.00  0.00    -0.278 N 
ATOM     12  C   UNL     1       1.645 -11.157   2.035  0.00  0.00    +0.110 C 
ATOM     13  C   UNL     1       2.515 -12.438   2.042  0.00  0.00    +0.021 C 
ATOM     14  C   UNL     1       2.802 -12.611   3.557  0.00  0.00    +0.029 C 
ATOM     15  C   UNL     1       2.934 -11.155   4.051  0.00  0.00    +0.114 C 
ATOM     16  H   UNL     1       0.965  -8.775   1.511  0.00  0.00    +0.156 HD
BRANCH  15  17
ATOM     17  C   UNL     1       2.308 -11.019   5.415  0.00  0.00    +0.010 A 
ATOM     18  C   UNL     1       2.909 -10.977   6.629  0.00  0.00    +0.013 A 
ATOM     19  C   UNL     1       2.125 -10.846   7.760  0.00  0.00    +0.008 A 
ATOM     20  C   UNL     1       0.779 -10.765   7.622  0.00  0.00    +0.045 A 
ATOM     21  S   UNL     1       0.584 -10.866   5.850  0.00  0.00    -0.100 S 
ENDBRANCH  15  17
ENDBRANCH   4   8
BRANCH   1  23
ATOM     22  N   UNL     1       1.321  -1.964   1.093  0.00  0.00    -0.311 N 
ATOM     23  C   UNL     1       1.337  -2.648   2.254  0.00  0.00    +0.245 C 
ATOM     24  O   UNL     1       1.330  -2.049   3.312  0.00  0.00    -0.270 OA
ATOM     25  H   UNL     1       1.327  -2.441   0.249  0.00  0.00    +0.149 HD
BRANCH  22  26
ATOM     26  C   UNL     1       1.294  -0.499   1.106  0.00  0.00    +0.104 C 
BRANCH  26  28
ATOM     27  C   UNL     1       1.253   1.553  -0.319  0.00  0.00    +0.005 C 
ATOM     28  C   UNL     1       1.280   0.023  -0.332  0.00  0.00    +0.015 C 
ENDBRANCH  26  28
ENDBRANCH  22  26
ENDBRANCH   1  23
TORSDOF 5
