REMARK  Name = ZINC15908478
REMARK  10 active torsions:
REMARK  status: ('A' for Active; 'I' for Inactive)
REMARK    1  A    between atoms: C_1  and  C_2
REMARK    2  A    between atoms: C_2  and  C_3
REMARK    3  A    between atoms: C_2  and  C_4
REMARK    4  A    between atoms: C_4  and  O_5
REMARK    5  A    between atoms: O_5  and  C_6
REMARK    6  A    between atoms: C_7  and  O_24
REMARK    7  A    between atoms: C_9  and  C_13
REMARK    8  A    between atoms: N_15  and  N_16
REMARK    9  A    between atoms: C_17  and  C_19
REMARK   10  A    between atoms: O_24  and  C_25
REMARK                            x       y       z     vdW  Elec       q    Type
REMARK                         _______ _______ _______ _____ _____    ______ ____
ROOT
ATOM      1  C   UNL     1      -3.380  -0.552  -1.351  0.00  0.00    +0.180 A 
ATOM      2  C   UNL     1      -3.667  -1.782  -1.943  0.00  0.00    +0.164 A 
ATOM      3  C   UNL     1      -4.979  -2.185  -2.097  0.00  0.00    +0.062 A 
ATOM      4  C   UNL     1      -6.017  -1.358  -1.658  0.00  0.00    +0.043 A 
ATOM      5  C   UNL     1      -5.723  -0.128  -1.066  0.00  0.00    +0.037 A 
ATOM      6  C   UNL     1      -4.411   0.267  -0.910  0.00  0.00    +0.087 A 
ATOM      7 CL   UNL     1      -4.048   1.793  -0.168  0.00  0.00    -0.080 Cl
ENDROOT
BRANCH   4   8
ATOM      8  C   UNL     1      -7.421  -1.784  -1.821  0.00  0.00    +0.260 C 
ATOM      9  O   UNL     1      -7.675  -2.856  -2.337  0.00  0.00    -0.269 OA
ATOM     10  N   UNL     1      -8.421  -0.986  -1.398  0.00  0.00    -0.230 N 
ATOM     11  H   UNL     1      -8.218  -0.132  -0.986  0.00  0.00    +0.173 HD
BRANCH  10  12
ATOM     12  N   UNL     1      -9.753  -1.391  -1.553  0.00  0.00    -0.230 N 
ATOM     13  C   UNL     1     -10.753  -0.593  -1.129  0.00  0.00    +0.267 C 
ATOM     14  O   UNL     1     -10.499   0.479  -0.613  0.00  0.00    -0.268 OA
ATOM     15  H   UNL     1      -9.956  -2.245  -1.964  0.00  0.00    +0.173 HD
BRANCH  13  16
ATOM     16  C   UNL     1     -12.147  -1.016  -1.291  0.00  0.00    +0.075 A 
ATOM     17  C   UNL     1     -13.310  -0.350  -0.934  0.00  0.00    +0.021 A 
ATOM     18  C   UNL     1     -14.484  -1.007  -1.215  0.00  0.00    +0.008 A 
ATOM     19  C   UNL     1     -14.432  -2.226  -1.806  0.00  0.00    +0.046 A 
ATOM     20  S   UNL     1     -12.790  -2.518  -2.006  0.00  0.00    -0.092 S 
ENDBRANCH  13  16
ENDBRANCH  10  12
ENDBRANCH   4   8
BRANCH   2  21
ATOM     21  O   UNL     1      -2.654  -2.584  -2.369  0.00  0.00    -0.491 OA
ATOM     22  C   UNL     1      -3.021  -3.829  -2.966  0.00  0.00    +0.277 C 
ENDBRANCH   2  21
BRANCH   1  23
ATOM     23  O   UNL     1      -2.089  -0.158  -1.200  0.00  0.00    -0.487 OA
BRANCH  23  24
ATOM     24  C   UNL     1      -1.433  -0.534   0.013  0.00  0.00    +0.232 C 
BRANCH  24  26
ATOM     25  C   UNL     1      -0.019   1.526   0.010  0.00  0.00    +0.010 C 
ATOM     26  C   UNL     1       0.002  -0.004   0.002  0.00  0.00    +0.020 C 
ATOM     27  C   UNL     1       0.742  -0.511   1.242  0.00  0.00    +0.010 C 
ENDBRANCH  24  26
ENDBRANCH  23  24
ENDBRANCH   1  23
TORSDOF 7
