REMARK  Name = ZINC04724176
REMARK  7 active torsions:
REMARK  status: ('A' for Active; 'I' for Inactive)
REMARK    1  A    between atoms: C_1  and  C_2
REMARK    2  A    between atoms: C_2  and  N_3
REMARK    3  A    between atoms: C_10  and  C_13
REMARK    4  A    between atoms: C_10  and  O_25
REMARK    5  A    between atoms: C_13  and  C_15
REMARK    6  A    between atoms: C_13  and  C_16
REMARK    7  A    between atoms: C_16  and  C_18
REMARK                            x       y       z     vdW  Elec       q    Type
REMARK                         _______ _______ _______ _____ _____    ______ ____
ROOT
ATOM      1  N   UNL     1      -2.573   3.584   0.046  0.00  0.00    -0.269 N 
ATOM      2  C   UNL     1      -1.251   3.137   0.031  0.00  0.00    +0.043 A 
ATOM      3  C   UNL     1      -0.050   3.844   0.023  0.00  0.00    +0.024 A 
ATOM      4  C   UNL     1       1.152   3.168   0.008  0.00  0.00    +0.002 A 
ATOM      5  C   UNL     1       1.176   1.785   0.000  0.00  0.00    +0.000 A 
ATOM      6  C   UNL     1      -0.013   1.076   0.008  0.00  0.00    +0.009 A 
ATOM      7  C   UNL     1      -1.214   1.749   0.017  0.00  0.00    +0.015 A 
ATOM      8  C   UNL     1      -2.652   1.285   0.021  0.00  0.00    +0.178 C 
ATOM      9  C   UNL     1      -3.453   2.569   0.032  0.00  0.00    +0.257 C 
ATOM     10  O   UNL     1      -4.662   2.664   0.038  0.00  0.00    -0.272 OA
ENDROOT
BRANCH   1  12
ATOM     11  C   UNL     1      -3.103   5.498  -1.381  0.00  0.00    +0.025 C 
ATOM     12  C   UNL     1      -2.956   4.998   0.057  0.00  0.00    +0.110 C 
ENDBRANCH   1  12
BRANCH   8  13
ATOM     13  C   UNL     1      -2.946   0.459   1.276  0.00  0.00    +0.102 C 
ATOM     14  C   UNL     1      -2.028  -0.765   1.307  0.00  0.00    +0.019 C 
BRANCH  13  15
ATOM     15  C   UNL     1      -4.384   0.009   1.256  0.00  0.00    +0.169 C 
ATOM     16  O   UNL     1      -4.944  -0.185   0.197  0.00  0.00    -0.292 OA
BRANCH  15  17
ATOM     17  C   UNL     1      -5.108  -0.195   2.519  0.00  0.00    +0.018 A 
ATOM     18  C   UNL     1      -4.464   0.022   3.742  0.00  0.00    +0.013 A 
ATOM     19  C   UNL     1      -5.150  -0.167   4.922  0.00  0.00    +0.020 A 
ATOM     20  C   UNL     1      -6.472  -0.581   4.899  0.00  0.00    +0.041 A 
ATOM     21  C   UNL     1      -7.116  -0.802   3.692  0.00  0.00    +0.020 A 
ATOM     22  C   UNL     1      -6.443  -0.613   2.504  0.00  0.00    +0.013 A 
ATOM     23 CL   UNL     1      -7.327  -0.822   6.391  0.00  0.00    -0.084 Cl
ENDBRANCH  15  17
ENDBRANCH  13  15
ENDBRANCH   8  13
BRANCH   8  24
ATOM     24  O   UNL     1      -2.936   0.524  -1.155  0.00  0.00    -0.374 OA
ATOM     25  H   UNL     1      -2.795   1.008  -1.980  0.00  0.00    +0.211 HD
ENDBRANCH   8  24
TORSDOF 5
