REMARK  Name = ZINC30201552
REMARK  13 active torsions:
REMARK  status: ('A' for Active; 'I' for Inactive)
REMARK    1  A    between atoms: C_1  and  C_2
REMARK    2  A    between atoms: C_2  and  C_3
REMARK    3  A    between atoms: C_2  and  C_4
REMARK    4  A    between atoms: C_2  and  O_5
REMARK    5  A    between atoms: O_5  and  C_6
REMARK    6  A    between atoms: N_8  and  C_9
REMARK    7  A    between atoms: C_12  and  C_15
REMARK    8  A    between atoms: C_15  and  C_16
REMARK    9  A    between atoms: N_18  and  C_19
REMARK   10  A    between atoms: C_19  and  C_20
REMARK   11  A    between atoms: C_20  and  S_21
REMARK   12  A    between atoms: S_21  and  C_22
REMARK   13  A    between atoms: C_22  and  C_23
REMARK                            x       y       z     vdW  Elec       q    Type
REMARK                         _______ _______ _______ _____ _____    ______ ____
ROOT
ATOM      1  C   UNL     1      11.880  -3.029  -7.750  0.00  0.00    +0.036 A 
ATOM      2  C   UNL     1      11.825  -1.760  -7.189  0.00  0.00    +0.024 A 
ATOM      3  C   UNL     1      11.279  -1.585  -5.932  0.00  0.00    +0.006 A 
ATOM      4  C   UNL     1      10.788  -2.671  -5.233  0.00  0.00    -0.039 A 
ATOM      5  C   UNL     1      10.846  -3.937  -5.786  0.00  0.00    +0.006 A 
ATOM      6  C   UNL     1      11.385  -4.119  -7.044  0.00  0.00    +0.024 A 
ENDROOT
BRANCH   1   9
ATOM      7  C   UNL     1      13.452  -2.431  -9.432  0.00  0.00    +0.405 C 
ATOM      8  O   UNL     1      13.957  -1.637  -8.663  0.00  0.00    -0.226 OA
ATOM      9  N   UNL     1      12.431  -3.210  -9.023  0.00  0.00    -0.251 N 
ATOM     10  H   UNL     1      12.032  -3.988  -9.690  0.00  0.00    +0.158 HD
BRANCH   7  11
ATOM     11  O   UNL     1      13.912  -2.531 -10.694  0.00  0.00    -0.444 OA
BRANCH  11  13
ATOM     12  C   UNL     1      16.216  -1.948 -10.165  0.00  0.00    +0.055 C 
ATOM     13  C   UNL     1      15.013  -1.661 -11.065  0.00  0.00    +0.107 C 
ATOM     14  C   UNL     1      15.396  -1.917 -12.524  0.00  0.00    +0.055 C 
ATOM     15  C   UNL     1      14.588  -0.201 -10.898  0.00  0.00    +0.055 C 
ENDBRANCH  11  13
ENDBRANCH   7  11
ENDBRANCH   1   9
BRANCH   4  16
ATOM     16  C   UNL     1      10.193  -2.477  -3.862  0.00  0.00    +0.130 C 
BRANCH  16  17
ATOM     17  C   UNL     1       8.715  -2.209  -3.989  0.00  0.00    +0.217 C 
ATOM     18  O   UNL     1       8.196  -2.179  -5.085  0.00  0.00    -0.275 OA
ATOM     19  N   UNL     1       7.970  -2.002  -2.885  0.00  0.00    -0.314 N 
ATOM     20  H   UNL     1       8.441  -2.029  -1.891  0.00  0.00    +0.149 HD
BRANCH  19  21
ATOM     21  C   UNL     1       6.534  -1.742  -3.009  0.00  0.00    +0.115 C 
BRANCH  21  22
ATOM     22  C   UNL     1       5.930  -1.544  -1.617  0.00  0.00    +0.088 C 
BRANCH  22  23
ATOM     23  S   UNL     1       4.151  -1.221  -1.770  0.00  0.00    -0.154 S 
BRANCH  23  24
ATOM     24  C   UNL     1       3.594  -1.012  -0.056  0.00  0.00    +0.111 C 
BRANCH  24  25
ATOM     25  C   UNL     1       2.113  -0.735  -0.040  0.00  0.00    +0.001 A 
ATOM     26  C   UNL     1       1.082  -1.611   0.033  0.00  0.00    +0.013 A 
ATOM     27  C   UNL     1      -0.212  -1.125   0.032  0.00  0.00    +0.023 A 
ATOM     28  C   UNL     1      -0.411   0.215  -0.041  0.00  0.00    +0.055 A 
ATOM     29  S   UNL     1       1.262   0.833  -0.112  0.00  0.00    -0.086 S 
ATOM     30 BR   UNL     1      -2.038   1.178  -0.068  0.00  0.00    -0.043 Br
ENDBRANCH  24  25
ENDBRANCH  23  24
ENDBRANCH  22  23
ENDBRANCH  21  22
ENDBRANCH  19  21
ENDBRANCH  16  17
ENDBRANCH   4  16
TORSDOF 10
