REMARK  Name = ZINC45166528
REMARK  5 active torsions:
REMARK  status: ('A' for Active; 'I' for Inactive)
REMARK    1  A    between atoms: C_3  and  N_21
REMARK    2  A    between atoms: C_4  and  S_8
REMARK    3  A    between atoms: S_8  and  N_11
REMARK    4  A    between atoms: N_11  and  C_12
REMARK    5  A    between atoms: C_12  and  C_13
REMARK                            x       y       z     vdW  Elec       q    Type
REMARK                         _______ _______ _______ _____ _____    ______ ____
ROOT
ATOM      1  S   UNL     1       3.764  -0.766  -1.070  0.00  0.00    +0.062 S 
ATOM      2  O   UNL     1       3.335  -2.022  -1.578  0.00  0.00    -0.153 OA
ATOM      3  O   UNL     1       4.469   0.177  -1.866  0.00  0.00    -0.153 OA
ENDROOT
BRANCH   1   7
ATOM      4  C   UNL     1       0.059   1.346   0.464  0.00  0.00    +0.003 A 
ATOM      5  C   UNL     1       0.103  -0.034   0.443  0.00  0.00    +0.025 A 
ATOM      6  C   UNL     1       1.236  -0.685  -0.026  0.00  0.00    +0.053 A 
ATOM      7  C   UNL     1       2.323   0.054  -0.474  0.00  0.00    +0.144 A 
ATOM      8  C   UNL     1       2.273   1.435  -0.451  0.00  0.00    +0.069 A 
ATOM      9  C   UNL     1       1.142   2.080   0.018  0.00  0.00    +0.022 A 
ATOM     10 CL   UNL     1       3.631   2.362  -1.010  0.00  0.00    -0.081 Cl
BRANCH   6  11
ATOM     11  N   UNL     1       1.284  -2.081  -0.048  0.00  0.00    -0.356 N 
ATOM     12  H   UNL     1       0.463  -2.595   0.016  0.00  0.00    +0.142 HD
ATOM     13  H   UNL     1       2.136  -2.537  -0.126  0.00  0.00    +0.142 HD
ENDBRANCH   6  11
ENDBRANCH   1   7
BRANCH   1  14
ATOM     14  N   UNL     1       4.722  -1.089   0.241  0.00  0.00    -0.185 NA
ATOM     15  H   UNL     1       5.589  -0.663   0.325  0.00  0.00    +0.148 HD
BRANCH  14  16
ATOM     16  C   UNL     1       4.259  -2.017   1.276  0.00  0.00    +0.142 C 
BRANCH  16  17
ATOM     17  C   UNL     1       5.423  -2.421   2.145  0.00  0.00    -0.015 A 
ATOM     18  C   UNL     1       6.053  -3.633   1.935  0.00  0.00    +0.044 A 
ATOM     19  C   UNL     1       7.122  -4.005   2.733  0.00  0.00    +0.124 A 
ATOM     20  C   UNL     1       7.558  -3.161   3.741  0.00  0.00    +0.039 A 
ATOM     21  C   UNL     1       6.927  -1.950   3.949  0.00  0.00    +0.018 A 
ATOM     22  C   UNL     1       5.862  -1.577   3.148  0.00  0.00    +0.022 A 
ATOM     23 BR   UNL     1       5.005   0.085   3.429  0.00  0.00    -0.050 Br
ATOM     24  F   UNL     1       7.738  -5.189   2.529  0.00  0.00    -0.205 F 
ENDBRANCH  16  17
ENDBRANCH  14  16
ENDBRANCH   1  14
TORSDOF 5
