REMARK  Name = ZINC36214795
REMARK  12 active torsions:
REMARK  status: ('A' for Active; 'I' for Inactive)
REMARK    1  A    between atoms: C_1  and  C_2
REMARK    2  A    between atoms: C_5  and  S_8
REMARK    3  A    between atoms: S_8  and  N_11
REMARK    4  A    between atoms: C_14  and  C_17
REMARK    5  A    between atoms: C_17  and  C_19
REMARK    6  A    between atoms: C_17  and  N_28
REMARK    7  A    between atoms: N_21  and  C_22
REMARK    8  A    between atoms: C_22  and  C_24
REMARK    9  A    between atoms: C_22  and  C_25
REMARK   10  A    between atoms: C_25  and  C_26
REMARK   11  A    between atoms: C_25  and  C_27
REMARK   12  A    between atoms: C_29  and  C_31
REMARK                            x       y       z     vdW  Elec       q    Type
REMARK                         _______ _______ _______ _____ _____    ______ ____
ROOT
ATOM      1  C   UNL     1       4.508  -8.153  -0.078  0.00  0.00    +0.162 C 
ENDROOT
BRANCH   1   5
ATOM      2  N   UNL     1       1.651  -4.999  -0.034  0.00  0.00    -0.177 NA
ATOM      3  C   UNL     1       2.364  -5.199  -1.304  0.00  0.00    +0.110 C 
ATOM      4  C   UNL     1       2.984  -6.599  -1.306  0.00  0.00    +0.023 C 
ATOM      5  C   UNL     1       3.858  -6.767  -0.061  0.00  0.00    +0.021 C 
ATOM      6  C   UNL     1       2.995  -6.624   1.194  0.00  0.00    +0.023 C 
ATOM      7  C   UNL     1       2.376  -5.218   1.225  0.00  0.00    +0.110 C 
BRANCH   2   8
ATOM      8  S   UNL     1       0.063  -4.530  -0.023  0.00  0.00    +0.061 S 
ATOM      9  O   UNL     1      -0.476  -4.950   1.223  0.00  0.00    -0.153 OA
ATOM     10  O   UNL     1      -0.490  -4.937  -1.267  0.00  0.00    -0.153 OA
BRANCH   8  15
ATOM     11  C   UNL     1      -0.018   1.503   0.010  0.00  0.00    +0.044 C 
ATOM     12  C   UNL     1       0.002  -0.004   0.002  0.00  0.00    -0.050 A 
ATOM     13  C   UNL     1       0.006  -0.689  -1.199  0.00  0.00    +0.005 A 
ATOM     14  C   UNL     1       0.025  -2.071  -1.206  0.00  0.00    +0.029 A 
ATOM     15  C   UNL     1       0.040  -2.768  -0.013  0.00  0.00    +0.105 A 
ATOM     16  C   UNL     1       0.037  -2.084   1.188  0.00  0.00    +0.029 A 
ATOM     17  C   UNL     1       0.023  -0.702   1.195  0.00  0.00    +0.005 A 
ENDBRANCH   8  15
ENDBRANCH   2   8
ENDBRANCH   1   5
BRANCH   1  18
ATOM     18  C   UNL     1       5.369  -8.319   1.148  0.00  0.00    +0.234 C 
ATOM     19  O   UNL     1       6.570  -8.168   1.070  0.00  0.00    -0.274 OA
ATOM     20  N   UNL     1       4.804  -8.634   2.330  0.00  0.00    -0.311 N 
ATOM     21  H   UNL     1       3.844  -8.755   2.393  0.00  0.00    +0.149 HD
BRANCH  20  22
ATOM     22  C   UNL     1       5.641  -8.796   3.522  0.00  0.00    +0.072 C 
ATOM     23  C   UNL     1       6.191 -10.223   3.570  0.00  0.00    +0.028 C 
BRANCH  22  24
ATOM     24  C   UNL     1       4.803  -8.530   4.774  0.00  0.00    +0.003 C 
ATOM     25  C   UNL     1       5.677  -8.698   6.018  0.00  0.00    +0.009 C 
ATOM     26  C   UNL     1       4.253  -7.103   4.726  0.00  0.00    +0.009 C 
ENDBRANCH  22  24
ENDBRANCH  20  22
ENDBRANCH   1  18
BRANCH   1  27
ATOM     27  N   UNL     1       5.336  -8.290  -1.278  0.00  0.00    -0.299 N 
ATOM     28  C   UNL     1       6.365  -7.445  -1.487  0.00  0.00    +0.251 C 
ATOM     29  O   UNL     1       6.607  -6.569  -0.678  0.00  0.00    -0.270 OA
ATOM     30  H   UNL     1       5.143  -8.988  -1.923  0.00  0.00    +0.150 HD
BRANCH  28  31
ATOM     31  C   UNL     1       7.194  -7.582  -2.688  0.00  0.00    +0.074 A 
ATOM     32  C   UNL     1       8.290  -6.831  -3.085  0.00  0.00    +0.021 A 
ATOM     33  C   UNL     1       8.868  -7.201  -4.275  0.00  0.00    +0.008 A 
ATOM     34  C   UNL     1       8.347  -8.246  -4.964  0.00  0.00    +0.046 A 
ATOM     35  S   UNL     1       7.061  -8.764  -4.016  0.00  0.00    -0.092 S 
ENDBRANCH  28  31
ENDBRANCH   1  27
TORSDOF 8
