REMARK  Name = ZINC55160947
REMARK  7 active torsions:
REMARK  status: ('A' for Active; 'I' for Inactive)
REMARK    1  A    between atoms: C_1  and  C_2
REMARK    2  A    between atoms: C_2  and  C_3
REMARK    3  A    between atoms: C_3  and  C_5
REMARK    4  A    between atoms: C_3  and  N_11
REMARK    5  A    between atoms: C_12  and  C_14
REMARK    6  A    between atoms: C_19  and  C_22
REMARK    7  A    between atoms: C_22  and  N_23
REMARK                            x       y       z     vdW  Elec       q    Type
REMARK                         _______ _______ _______ _____ _____    ______ ____
ROOT
ATOM      1  N   UNL     1       2.125  -0.091  -1.209  0.00  0.00    -0.312 N 
ATOM      2  C   UNL     1       2.487   1.134  -1.640  0.00  0.00    +0.216 C 
ATOM      3  O   UNL     1       1.649   1.899  -2.066  0.00  0.00    -0.276 OA
ATOM      4  H   UNL     1       2.795  -0.703  -0.868  0.00  0.00    +0.149 HD
ENDROOT
BRANCH   2   5
ATOM      5  C   UNL     1       3.934   1.552  -1.591  0.00  0.00    +0.075 C 
ATOM      6  C   UNL     1       4.430   1.507  -0.144  0.00  0.00    +0.013 C 
ATOM      7  C   UNL     1       5.899   1.931  -0.094  0.00  0.00    +0.001 C 
ATOM      8  C   UNL     1       6.037   3.355  -0.637  0.00  0.00    +0.002 C 
ATOM      9  C   UNL     1       5.542   3.400  -2.084  0.00  0.00    -0.028 C 
ATOM     10  C   UNL     1       4.072   2.976  -2.133  0.00  0.00    +0.014 C 
BRANCH   9  11
ATOM     11  C   UNL     1       5.679   4.824  -2.626  0.00  0.00    -0.083 C 
BRANCH  11  12
ATOM     12  N   UNL     1       7.101   5.188  -2.690  0.00  0.00    +0.378 N 
ATOM     13  H   UNL     1       7.503   5.140  -1.766  0.00  0.00    -0.090 HD
ATOM     14  H   UNL     1       7.585   4.547  -3.301  0.00  0.00    -0.090 HD
ATOM     15  H   UNL     1       7.192   6.127  -3.048  0.00  0.00    -0.090 HD
ENDBRANCH  11  12
ENDBRANCH   9  11
ENDBRANCH   2   5
BRANCH   1  16
ATOM     16  C   UNL     1       0.718  -0.497  -1.257  0.00  0.00    +0.076 C 
BRANCH  16  17
ATOM     17  C   UNL     1       0.630  -2.023  -1.329  0.00  0.00    +0.009 C 
ATOM     18  C   UNL     1       1.295  -2.631  -0.092  0.00  0.00    +0.005 C 
ATOM     19  C   UNL     1       1.208  -4.157  -0.164  0.00  0.00    +0.000 C 
ATOM     20  C   UNL     1       1.924  -4.650  -1.423  0.00  0.00    +0.000 C 
ATOM     21  C   UNL     1       1.259  -4.043  -2.659  0.00  0.00    +0.000 C 
ATOM     22  C   UNL     1       1.347  -2.517  -2.587  0.00  0.00    +0.005 C 
ENDBRANCH  16  17
BRANCH  16  24
ATOM     23  C   UNL     1      -0.019   1.526   0.010  0.00  0.00    +0.006 C 
ATOM     24  C   UNL     1       0.002  -0.004   0.002  0.00  0.00    +0.019 C 
ENDBRANCH  16  24
ENDBRANCH   1  16
TORSDOF 6
