REMARK  Name = ZINC35870592
REMARK  4 active torsions:
REMARK  status: ('A' for Active; 'I' for Inactive)
REMARK    1  A    between atoms: C_8  and  C_24
REMARK    2  A    between atoms: N_15  and  C_17
REMARK    3  A    between atoms: N_26  and  C_27
REMARK    4  A    between atoms: C_27  and  C_28
REMARK                            x       y       z     vdW  Elec       q    Type
REMARK                         _______ _______ _______ _____ _____    ______ ____
ROOT
ATOM      1  C   UNL     1      -0.025   1.360   0.012  0.00  0.00    +0.000 A 
ATOM      2  C   UNL     1       1.161   2.072   0.018  0.00  0.00    +0.002 A 
ATOM      3  C   UNL     1       2.368   1.403   0.007  0.00  0.00    +0.023 A 
ATOM      4  C   UNL     1       2.392   0.011  -0.014  0.00  0.00    +0.033 A 
ATOM      5  C   UNL     1       1.204  -0.695  -0.029  0.00  0.00    -0.026 A 
ATOM      6  C   UNL     1      -0.004  -0.022  -0.011  0.00  0.00    +0.005 A 
ATOM      7  C   UNL     1       1.214  -2.201  -0.082  0.00  0.00    +0.051 C 
ATOM      8  C   UNL     1       2.482  -2.658  -0.802  0.00  0.00    +0.101 C 
ATOM      9  C   UNL     1       3.717  -2.087  -0.098  0.00  0.00    +0.103 C 
ATOM     10  N   UNL     1       3.638  -0.639  -0.010  0.00  0.00    -0.323 N 
ATOM     11  C   UNL     1       4.817   0.211   0.144  0.00  0.00    +0.124 C 
ATOM     12  C   UNL     1       6.008  -0.272  -0.658  0.00  0.00    +0.124 C 
ATOM     13  N   UNL     1       6.106  -1.722  -0.641  0.00  0.00    -0.327 N 
ATOM     14  C   UNL     1       4.955  -2.584  -0.826  0.00  0.00    +0.128 C 
ENDROOT
BRANCH  13  15
ATOM     15  C   UNL     1       7.357  -2.309  -0.438  0.00  0.00    +0.031 A 
ATOM     16  C   UNL     1       7.467  -3.687  -0.304  0.00  0.00    +0.023 A 
ATOM     17  C   UNL     1       8.705  -4.264  -0.104  0.00  0.00    +0.003 A 
ATOM     18  C   UNL     1       9.836  -3.472  -0.037  0.00  0.00    +0.020 A 
ATOM     19  C   UNL     1       9.732  -2.098  -0.170  0.00  0.00    +0.043 A 
ATOM     20  C   UNL     1       8.495  -1.515  -0.376  0.00  0.00    +0.043 A 
ATOM     21 CL   UNL     1      11.155  -1.107  -0.084  0.00  0.00    -0.083 Cl
ENDBRANCH  13  15
BRANCH   8  22
ATOM     22  C   UNL     1       2.551  -4.164  -0.786  0.00  0.00    +0.219 C 
ATOM     23  O   UNL     1       3.489  -4.722  -0.258  0.00  0.00    -0.275 OA
ATOM     24  N   UNL     1       1.570  -4.889  -1.359  0.00  0.00    -0.311 N 
ATOM     25  H   UNL     1       0.820  -4.443  -1.781  0.00  0.00    +0.149 HD
BRANCH  24  26
ATOM     26  C   UNL     1       1.637  -6.353  -1.343  0.00  0.00    +0.139 C 
BRANCH  26  27
ATOM     27  C   UNL     1       0.429  -6.918  -2.044  0.00  0.00    -0.028 A 
ATOM     28  C   UNL     1      -0.722  -7.189  -1.327  0.00  0.00    +0.005 A 
ATOM     29  C   UNL     1      -1.831  -7.708  -1.968  0.00  0.00    +0.003 A 
ATOM     30  C   UNL     1      -1.790  -7.958  -3.327  0.00  0.00    +0.038 A 
ATOM     31  C   UNL     1      -0.639  -7.687  -4.046  0.00  0.00    +0.124 A 
ATOM     32  C   UNL     1       0.470  -7.161  -3.403  0.00  0.00    +0.043 A 
ATOM     33  F   UNL     1      -0.598  -7.931  -5.374  0.00  0.00    -0.205 F 
ENDBRANCH  26  27
ENDBRANCH  24  26
ENDBRANCH   8  22
TORSDOF 4
