REMARK  Name = ZINC01086205
REMARK  15 active torsions:
REMARK  status: ('A' for Active; 'I' for Inactive)
REMARK    1  A    between atoms: C_1  and  C_2
REMARK    2  A    between atoms: C_9  and  N_38
REMARK    3  A    between atoms: C_10  and  C_36
REMARK    4  A    between atoms: C_11  and  C_13
REMARK    5  A    between atoms: C_16  and  O_34
REMARK    6  A    between atoms: C_17  and  C_19
REMARK    7  A    between atoms: C_19  and  O_20
REMARK    8  A    between atoms: O_20  and  C_21
REMARK    9  A    between atoms: C_24  and  C_27
REMARK   10  A    between atoms: C_27  and  O_29
REMARK   11  A    between atoms: O_29  and  C_30
REMARK   12  A    between atoms: C_30  and  C_31
REMARK   13  A    between atoms: C_31  and  C_32
REMARK   14  A    between atoms: C_31  and  C_33
REMARK   15  A    between atoms: O_34  and  C_35
REMARK                            x       y       z     vdW  Elec       q    Type
REMARK                         _______ _______ _______ _____ _____    ______ ____
ROOT
ATOM      1  C   UNL     1      -0.730   1.578   1.239  0.00  0.00    -0.034 A 
ATOM      2  C   UNL     1      -0.872   2.936   1.459  0.00  0.00    +0.008 A 
ATOM      3  C   UNL     1      -1.529   3.389   2.585  0.00  0.00    +0.046 A 
ATOM      4  C   UNL     1      -2.048   2.481   3.497  0.00  0.00    +0.126 A 
ATOM      5  C   UNL     1      -1.904   1.119   3.275  0.00  0.00    +0.032 A 
ATOM      6  C   UNL     1      -1.251   0.671   2.143  0.00  0.00    +0.015 A 
ENDROOT
BRANCH   1  17
ATOM      7  C   UNL     1       2.471   0.197   1.868  0.00  0.00    +0.068 C 
ATOM      8  C   UNL     1       2.481   1.247   0.786  0.00  0.00    +0.068 A 
ATOM      9  C   UNL     1       1.399   1.613  -0.003  0.00  0.00    +0.049 A 
ATOM     10  C   UNL     1       1.813   2.595  -0.860  0.00  0.00    +0.222 A 
ATOM     11  N   UNL     1       3.111   2.831  -0.610  0.00  0.00    -0.246 N 
ATOM     12  H   UNL     1       3.689   3.498  -1.079  0.00  0.00    +0.192 HD
ATOM     13  N   UNL     1       3.512   1.974   0.427  0.00  0.00    -0.176 NA
ATOM     14  O   UNL     1       0.988   3.168  -1.770  0.00  0.00    -0.423 OA
ATOM     15  C   UNL     1      -0.194   2.564  -2.009  0.00  0.00    +0.200 C 
ATOM     16  C   UNL     1      -0.714   1.592  -1.228  0.00  0.00    +0.098 C 
ATOM     17  C   UNL     1      -0.013   1.086   0.008  0.00  0.00    +0.101 C 
BRANCH  15  18
ATOM     18  N   UNL     1      -0.911   2.960  -3.111  0.00  0.00    -0.328 N 
ATOM     19  H   UNL     1      -0.564   3.656  -3.691  0.00  0.00    +0.145 HD
ATOM     20  H   UNL     1      -1.765   2.545  -3.309  0.00  0.00    +0.145 HD
ENDBRANCH  15  18
BRANCH  16  21
ATOM     21  C   UNL     1      -1.978   1.021  -1.586  0.00  0.00    +0.101 C 
ATOM     22  N   UNL     1      -2.980   0.569  -1.870  0.00  0.00    -0.191 NA
ENDBRANCH  16  21
ENDBRANCH   1  17
BRANCH   4  23
ATOM     23  O   UNL     1      -2.696   2.924   4.606  0.00  0.00    -0.495 OA
ATOM     24  C   UNL     1      -2.806   4.340   4.771  0.00  0.00    +0.277 C 
ENDBRANCH   4  23
BRANCH   5  25
ATOM     25  C   UNL     1      -2.466   0.130   4.263  0.00  0.00    +0.268 C 
BRANCH  25  26
ATOM     26  O   UNL     1      -2.192  -1.199   3.815  0.00  0.00    -0.487 OA
BRANCH  26  27
ATOM     27  C   UNL     1      -2.633  -2.216   4.597  0.00  0.00    +0.121 A 
ATOM     28  C   UNL     1      -3.313  -1.938   5.777  0.00  0.00    +0.046 A 
ATOM     29  C   UNL     1      -3.768  -2.967   6.571  0.00  0.00    +0.018 A 
ATOM     30  C   UNL     1      -3.535  -4.293   6.194  0.00  0.00    +0.059 A 
ATOM     31  C   UNL     1      -2.846  -4.568   5.009  0.00  0.00    +0.018 A 
ATOM     32  C   UNL     1      -2.400  -3.533   4.218  0.00  0.00    +0.046 A 
BRANCH  30  33
ATOM     33  C   UNL     1      -4.015  -5.399   7.044  0.00  0.00    +0.339 C 
ATOM     34  O   UNL     1      -3.811  -6.550   6.715  0.00  0.00    -0.245 OA
BRANCH  33  35
ATOM     35  O   UNL     1      -4.678  -5.131   8.186  0.00  0.00    -0.461 OA
BRANCH  35  36
ATOM     36  C   UNL     1      -5.121  -6.269   8.973  0.00  0.00    +0.235 C 
BRANCH  36  37
ATOM     37  C   UNL     1      -5.850  -5.771  10.223  0.00  0.00    +0.020 C 
ATOM     38  C   UNL     1      -7.130  -5.042   9.810  0.00  0.00    +0.010 C 
ATOM     39  C   UNL     1      -6.206  -6.963  11.113  0.00  0.00    +0.010 C 
ENDBRANCH  36  37
ENDBRANCH  35  36
ENDBRANCH  33  35
ENDBRANCH  30  33
ENDBRANCH  26  27
ENDBRANCH  25  26
ENDBRANCH   5  25
TORSDOF 11
