REMARK  Name = ZINC66863398
REMARK  7 active torsions:
REMARK  status: ('A' for Active; 'I' for Inactive)
REMARK    1  A    between atoms: C_1  and  C_2
REMARK    2  A    between atoms: C_3  and  N_9
REMARK    3  A    between atoms: C_4  and  C_8
REMARK    4  A    between atoms: N_5  and  C_7
REMARK    5  A    between atoms: C_10  and  C_12
REMARK    6  A    between atoms: C_12  and  C_14
REMARK    7  A    between atoms: C_12  and  N_15
REMARK                            x       y       z     vdW  Elec       q    Type
REMARK                         _______ _______ _______ _____ _____    ______ ____
ROOT
ATOM      1  C   UNL     1      -0.140   1.400  -4.213  0.00  0.00    +0.140 C 
ATOM      2  C   UNL     1       0.602   0.532  -5.232  0.00  0.00    +0.034 C 
ENDROOT
BRANCH   1   3
ATOM      3  N   UNL     1       0.344   2.784  -4.304  0.00  0.00    -0.289 NA
ATOM      4  C   UNL     1       1.804   2.842  -4.160  0.00  0.00    +0.104 C 
ATOM      5  C   UNL     1       2.249   4.306  -4.080  0.00  0.00    +0.122 C 
ATOM      6  N   UNL     1       1.710   5.023  -5.245  0.00  0.00    -0.314 N 
ATOM      7  C   UNL     1       0.273   4.900  -5.535  0.00  0.00    +0.122 C 
ATOM      8  C   UNL     1      -0.093   3.413  -5.558  0.00  0.00    +0.104 C 
ATOM      9  C   UNL     1       2.537   5.795  -6.053  0.00  0.00    +0.099 A 
ATOM     10  C   UNL     1       2.029   6.363  -7.217  0.00  0.00    +0.042 A 
ATOM     11  C   UNL     1       2.862   7.130  -8.011  0.00  0.00    +0.005 A 
ATOM     12  C   UNL     1       4.181   7.303  -7.613  0.00  0.00    +0.018 A 
ATOM     13  C   UNL     1       4.619   6.710  -6.446  0.00  0.00    +0.084 A 
ATOM     14  N   UNL     1       3.799   5.989  -5.705  0.00  0.00    -0.350 N 
ATOM     15  H   UNL     1       4.131   5.587  -4.887  0.00  0.00    +0.166 HD
ENDBRANCH   1   3
BRANCH   1  17
ATOM     16  N   UNL     1      -0.252  -0.388  -2.507  0.00  0.00    -0.281 N 
ATOM     17  C   UNL     1       0.112   0.871  -2.824  0.00  0.00    +0.234 C 
ATOM     18  O   UNL     1       0.642   1.577  -1.993  0.00  0.00    -0.274 OA
ATOM     19  H   UNL     1      -0.624  -0.971  -3.186  0.00  0.00    +0.155 HD
BRANCH  16  22
ATOM     20  C   UNL     1      -0.543   1.381   0.041  0.00  0.00    +0.069 C 
ATOM     21  C   UNL     1      -0.215  -0.089  -0.020  0.00  0.00    +0.081 A 
ATOM     22  C   UNL     1      -0.091  -0.855  -1.188  0.00  0.00    +0.077 A 
ATOM     23  C   UNL     1       0.210  -2.127  -0.822  0.00  0.00    +0.057 A 
ATOM     24  N   UNL     1       0.274  -2.159   0.534  0.00  0.00    -0.270 N 
ATOM     25  N   UNL     1       0.008  -0.867   1.008  0.00  0.00    -0.175 NA
ATOM     26  C   UNL     1       0.572  -3.334   1.356  0.00  0.00    +0.172 C 
ATOM     27  C   UNL     1       0.433  -3.292  -1.752  0.00  0.00    +0.067 C 
ENDBRANCH  16  22
ENDBRANCH   1  17
TORSDOF 3
