REMARK  Name = ZINC09220853
REMARK  14 active torsions:
REMARK  status: ('A' for Active; 'I' for Inactive)
REMARK    1  A    between atoms: C_1  and  C_2
REMARK    2  A    between atoms: C_2  and  N_68
REMARK    3  A    between atoms: C_3  and  C_4
REMARK    4  A    between atoms: C_3  and  N_68
REMARK    5  A    between atoms: N_6  and  C_7
REMARK    6  A    between atoms: C_10  and  N_13
REMARK    7  A    between atoms: C_14  and  C_16
REMARK    8  A    between atoms: C_17  and  C_19
REMARK    9  A    between atoms: C_17  and  C_20
REMARK   10  A    between atoms: C_17  and  N_68
REMARK   11  A    between atoms: C_20  and  C_22
REMARK   12  A    between atoms: C_24  and  C_33
REMARK   13  A    between atoms: C_24  and  C_34
REMARK   14  A    between atoms: N_31  and  C_32
REMARK                            x       y       z     vdW  Elec       q    Type
REMARK                         _______ _______ _______ _____ _____    ______ ____
ROOT
ATOM      1  N   UNL     1      -0.041  11.784  -3.781  0.00  0.00    +0.392 N 
ATOM      2  H   UNL     1       0.241  11.221  -4.592  0.00  0.00    -0.080 HD
ENDROOT
BRANCH   1   4
ATOM      3  C   UNL     1       2.081  12.898  -4.264  0.00  0.00    -0.017 C 
ATOM      4  C   UNL     1       1.167  12.367  -3.159  0.00  0.00    -0.081 C 
ENDBRANCH   1   4
BRANCH   1   5
ATOM      5  C   UNL     1      -0.739  10.914  -2.812  0.00  0.00    +0.001 C 
ATOM      6  C   UNL     1      -0.896  11.627  -1.468  0.00  0.00    -0.005 C 
BRANCH   5   7
ATOM      7  C   UNL     1       0.069   9.656  -2.621  0.00  0.00    +0.144 C 
ATOM      8  O   UNL     1       1.235   9.624  -2.962  0.00  0.00    -0.294 OA
BRANCH   7   9
ATOM      9  C   UNL     1      -0.525   8.521  -2.051  0.00  0.00    +0.064 C 
ATOM     10  C   UNL     1       0.229   7.431  -1.766  0.00  0.00    +0.024 C 
ATOM     11  C   UNL     1       1.705   7.257  -2.054  0.00  0.00    +0.030 C 
ATOM     12  C   UNL     1       2.022   5.874  -1.533  0.00  0.00    -0.015 A 
ATOM     13  C   UNL     1       3.183   5.133  -1.499  0.00  0.00    +0.006 A 
ATOM     14  C   UNL     1       3.176   3.864  -0.948  0.00  0.00    +0.000 A 
ATOM     15  C   UNL     1       2.003   3.342  -0.434  0.00  0.00    +0.002 A 
ATOM     16  C   UNL     1       0.837   4.079  -0.472  0.00  0.00    +0.024 A 
ATOM     17  C   UNL     1       0.837   5.361  -1.021  0.00  0.00    +0.038 A 
ATOM     18  N   UNL     1      -0.195   6.287  -1.167  0.00  0.00    -0.305 N 
ATOM     19  C   UNL     1      -1.573   6.054  -0.727  0.00  0.00    +0.135 C 
ATOM     20  C   UNL     1       2.525   8.311  -1.306  0.00  0.00    +0.022 C 
ATOM     21  C   UNL     1       1.971   7.337  -3.558  0.00  0.00    +0.022 C 
ENDBRANCH   7   9
ENDBRANCH   5   7
ENDBRANCH   1   5
BRANCH   1  22
ATOM     22  C   UNL     1      -0.945  12.861  -4.236  0.00  0.00    +0.020 C 
BRANCH  22  23
ATOM     23  C   UNL     1      -0.490  13.330  -5.594  0.00  0.00    +0.201 C 
ATOM     24  O   UNL     1       0.403  12.745  -6.170  0.00  0.00    -0.278 OA
ATOM     25  N   UNL     1      -1.075  14.400  -6.168  0.00  0.00    -0.287 N 
ATOM     26  H   UNL     1      -1.748  14.903  -5.683  0.00  0.00    +0.155 HD
BRANCH  25  27
ATOM     27  C   UNL     1      -0.711  14.785  -7.465  0.00  0.00    +0.033 A 
ATOM     28  C   UNL     1      -0.739  16.126  -7.825  0.00  0.00    +0.025 A 
ATOM     29  C   UNL     1      -0.377  16.506  -9.101  0.00  0.00    +0.025 A 
ATOM     30  C   UNL     1       0.006  15.546 -10.029  0.00  0.00    +0.033 A 
ATOM     31  C   UNL     1       0.029  14.204  -9.671  0.00  0.00    +0.025 A 
ATOM     32  C   UNL     1      -0.328  13.825  -8.393  0.00  0.00    +0.025 A 
BRANCH  30  33
ATOM     33  N   UNL     1       0.370  15.931 -11.326  0.00  0.00    -0.286 N 
ATOM     34  C   UNL     1       0.971  17.119 -11.532  0.00  0.00    +0.214 C 
ATOM     35  O   UNL     1       1.264  17.823 -10.589  0.00  0.00    -0.276 OA
ATOM     36  C   UNL     1       1.280  17.573 -12.936  0.00  0.00    +0.109 C 
ATOM     37  H   UNL     1       0.188  15.342 -12.075  0.00  0.00    +0.155 HD
ENDBRANCH  30  33
ENDBRANCH  25  27
ENDBRANCH  22  23
ENDBRANCH   1  22
TORSDOF 8
