REMARK  Name = ZINC00981773
REMARK  5 active torsions:
REMARK  status: ('A' for Active; 'I' for Inactive)
REMARK    1  A    between atoms: C_2  and  C_3
REMARK    2  A    between atoms: C_3  and  N_4
REMARK    3  A    between atoms: C_8  and  C_9
REMARK    4  A    between atoms: C_12  and  C_14
REMARK    5  A    between atoms: C_17  and  C_21
REMARK                            x       y       z     vdW  Elec       q    Type
REMARK                         _______ _______ _______ _____ _____    ______ ____
ROOT
ATOM      1  C   UNL     1       5.169  -2.295  -0.060  0.00  0.00    +0.130 A 
ATOM      2  C   UNL     1       5.879  -1.107  -0.060  0.00  0.00    +0.050 A 
ATOM      3  C   UNL     1       4.938  -0.074  -0.051  0.00  0.00    +0.050 A 
ATOM      4  C   UNL     1       3.694  -0.664  -0.037  0.00  0.00    +0.136 A 
ATOM      5  O   UNL     1       3.853  -2.001  -0.046  0.00  0.00    -0.455 OA
ENDROOT
BRANCH   1  10
ATOM      6  N   UNL     1       4.253  -6.974  -0.077  0.00  0.00    -0.225 N 
ATOM      7  C   UNL     1       5.260  -6.117  -0.082  0.00  0.00    +0.261 C 
ATOM      8  O   UNL     1       6.418  -6.493  -0.095  0.00  0.00    -0.269 OA
ATOM      9  C   UNL     1       4.912  -4.686  -0.071  0.00  0.00    +0.083 C 
ATOM     10  C   UNL     1       5.727  -3.593  -0.073  0.00  0.00    +0.066 C 
ATOM     11  S   UNL     1       3.126  -4.775  -0.046  0.00  0.00    -0.026 S 
ATOM     12  C   UNL     1       2.971  -6.554  -0.062  0.00  0.00    +0.286 C 
ATOM     13  O   UNL     1       1.956  -7.224  -0.056  0.00  0.00    -0.262 OA
BRANCH   6  14
ATOM     14  C   UNL     1       4.535  -8.412  -0.088  0.00  0.00    +0.144 C 
BRANCH  14  16
ATOM     15  C   UNL     1       3.898  -9.911   1.731  0.00  0.00    +0.005 C 
ATOM     16  C   UNL     1       4.646  -8.913   1.329  0.00  0.00    -0.015 C 
ENDBRANCH  14  16
ENDBRANCH   6  14
ENDBRANCH   1  10
BRANCH   4  17
ATOM     17  C   UNL     1       2.404   0.049  -0.021  0.00  0.00    +0.019 A 
ATOM     18  C   UNL     1       2.378   1.448  -0.012  0.00  0.00    +0.012 A 
ATOM     19  C   UNL     1       1.185   2.111   0.002  0.00  0.00    +0.017 A 
ATOM     20  C   UNL     1      -0.017   1.396   0.010  0.00  0.00    +0.081 A 
ATOM     21  C   UNL     1       0.002  -0.004   0.002  0.00  0.00    +0.056 A 
ATOM     22  C   UNL     1       1.206  -0.673  -0.013  0.00  0.00    +0.032 A 
ATOM     23 CL   UNL     1      -1.488  -0.894   0.011  0.00  0.00    -0.083 Cl
BRANCH  20  24
ATOM     24  C   UNL     1      -1.304   2.116   0.020  0.00  0.00    +0.388 C 
ATOM     25  O   UNL     1      -2.348   1.494   0.021  0.00  0.00    -0.241 OA
ATOM     26  O   UNL     1      -1.322   3.463   0.027  0.00  0.00    -0.241 OA
ENDBRANCH  20  24
ENDBRANCH   4  17
TORSDOF 5
