REMARK  Name = ZINC52904652
REMARK  6 active torsions:
REMARK  status: ('A' for Active; 'I' for Inactive)
REMARK    1  A    between atoms: C_1  and  C_2
REMARK    2  A    between atoms: C_2  and  N_3
REMARK    3  A    between atoms: N_3  and  C_4
REMARK    4  A    between atoms: N_3  and  C_11
REMARK    5  A    between atoms: C_9  and  C_10
REMARK    6  A    between atoms: C_16  and  C_17
REMARK                            x       y       z     vdW  Elec       q    Type
REMARK                         _______ _______ _______ _____ _____    ______ ____
ROOT
ATOM      1  C   UNL     1      -0.040  -0.935  -2.342  0.00  0.00    +0.046 A 
ATOM      2  C   UNL     1      -0.161  -0.079  -3.429  0.00  0.00    +0.024 A 
ATOM      3  C   UNL     1      -0.874  -0.472  -4.543  0.00  0.00    +0.003 A 
ATOM      4  C   UNL     1      -1.473  -1.720  -4.589  0.00  0.00    +0.021 A 
ATOM      5  C   UNL     1      -1.363  -2.585  -3.519  0.00  0.00    +0.053 A 
ATOM      6  C   UNL     1      -0.640  -2.203  -2.386  0.00  0.00    +0.052 A 
ATOM      7 CL   UNL     1      -2.117  -4.147  -3.583  0.00  0.00    -0.083 Cl
ENDROOT
BRANCH   6   8
ATOM      8  C   UNL     1      -0.513  -3.124  -1.241  0.00  0.00    +0.097 C 
ATOM      9  N   UNL     1       0.151  -4.272  -1.379  0.00  0.00    -0.387 N 
ATOM     10  N   UNL     1      -1.062  -2.809  -0.067  0.00  0.00    -0.344 N 
ATOM     11  H   UNL     1       0.551  -4.501  -2.232  0.00  0.00    +0.157 HD
ATOM     12  H   UNL     1      -1.546  -1.974   0.033  0.00  0.00    +0.144 HD
ATOM     13  H   UNL     1      -0.979  -3.415   0.685  0.00  0.00    +0.144 HD
ATOM     14  H   UNL     1       0.235  -4.878  -0.626  0.00  0.00    +0.157 HD
ENDBRANCH   6   8
BRANCH   1  15
ATOM     15  N   UNL     1       0.677  -0.540  -1.218  0.00  0.00    -0.300 N 
BRANCH  15  16
ATOM     16  C   UNL     1       2.005  -0.946  -1.059  0.00  0.00    +0.037 A 
ATOM     17  C   UNL     1       2.295  -2.141  -0.412  0.00  0.00    +0.024 A 
ATOM     18  C   UNL     1       3.608  -2.539  -0.256  0.00  0.00    +0.002 A 
ATOM     19  C   UNL     1       4.634  -1.749  -0.742  0.00  0.00    +0.000 A 
ATOM     20  C   UNL     1       4.349  -0.559  -1.386  0.00  0.00    +0.005 A 
ATOM     21  C   UNL     1       3.037  -0.158  -1.551  0.00  0.00    -0.029 A 
ATOM     22  C   UNL     1       2.727   1.136  -2.259  0.00  0.00    +0.045 C 
ENDBRANCH  15  16
BRANCH  15  24
ATOM     23  C   UNL     1       0.264   1.774  -0.546  0.00  0.00    +0.024 C 
ATOM     24  C   UNL     1       0.041   0.301  -0.201  0.00  0.00    +0.107 C 
ENDBRANCH  15  24
ENDBRANCH   1  15
TORSDOF 4
