REMARK  Name = ZINC36700706
REMARK  6 active torsions:
REMARK  status: ('A' for Active; 'I' for Inactive)
REMARK    1  A    between atoms: C_1  and  C_2
REMARK    2  A    between atoms: C_5  and  C_26
REMARK    3  A    between atoms: N_8  and  C_10
REMARK    4  A    between atoms: C_10  and  C_11
REMARK    5  A    between atoms: N_16  and  C_17
REMARK    6  A    between atoms: C_17  and  C_19
REMARK                            x       y       z     vdW  Elec       q    Type
REMARK                         _______ _______ _______ _____ _____    ______ ____
ROOT
ATOM      1  C   UNL     1       2.971  -2.034   2.241  0.00  0.00    +0.008 A 
ATOM      2  C   UNL     1       3.536  -1.180   3.102  0.00  0.00    +0.067 A 
ATOM      3  S   UNL     1       5.192  -1.044   2.455  0.00  0.00    -0.061 S 
ATOM      4  C   UNL     1       5.039  -2.083   1.142  0.00  0.00    +0.163 A 
ATOM      5  N   UNL     1       3.749  -2.507   1.231  0.00  0.00    -0.341 N 
ATOM      6  N   UNL     1       5.959  -2.415   0.238  0.00  0.00    -0.151 NA
ATOM      7  H   UNL     1       3.389  -3.133   0.583  0.00  0.00    +0.167 HD
ENDROOT
BRANCH   6   8
ATOM      8  C   UNL     1       7.187  -1.899   0.314  0.00  0.00    +0.290 C 
ATOM      9  O   UNL     1       7.467  -1.123   1.212  0.00  0.00    -0.266 OA
BRANCH   8  10
ATOM     10  C   UNL     1       8.210  -2.268  -0.692  0.00  0.00    +0.150 A 
ATOM     11  C   UNL     1       9.500  -1.732  -0.610  0.00  0.00    +0.040 A 
ATOM     12  C   UNL     1      10.421  -2.107  -1.573  0.00  0.00    +0.076 A 
ATOM     13  C   UNL     1      10.007  -2.995  -2.564  0.00  0.00    +0.288 A 
ATOM     14  O   UNL     1      10.875  -3.390  -3.527  0.00  0.00    -0.264 OA
ATOM     15  N   UNL     1       8.763  -3.454  -2.564  0.00  0.00    -0.106 NA
ATOM     16  N   UNL     1       7.908  -3.112  -1.670  0.00  0.00    -0.141 NA
ENDBRANCH   8  10
ENDBRANCH   6   8
BRANCH   1  17
ATOM     17  C   UNL     1       1.534  -2.461   2.390  0.00  0.00    -0.024 C 
BRANCH  17  23
ATOM     18  C   UNL     1      -0.019   1.526   0.010  0.00  0.00    +0.005 C 
ATOM     19  C   UNL     1       0.002  -0.004   0.002  0.00  0.00    -0.031 C 
ATOM     20  C   UNL     1      -1.434  -0.535   0.015  0.00  0.00    +0.003 C 
ATOM     21  C   UNL     1      -1.402  -2.064   0.086  0.00  0.00    -0.031 C 
ATOM     22  C   UNL     1      -0.613  -2.496   1.324  0.00  0.00    -0.075 C 
ATOM     23  N   UNL     1       0.758  -1.980   1.239  0.00  0.00    +0.384 N 
ATOM     24  C   UNL     1       0.740  -0.512   1.242  0.00  0.00    -0.075 C 
ATOM     25  C   UNL     1      -0.728  -2.620  -1.170  0.00  0.00    +0.005 C 
ATOM     26  H   UNL     1       1.188  -2.307   0.386  0.00  0.00    -0.081 HD
ENDBRANCH  17  23
ENDBRANCH   1  17
TORSDOF 4
