REMARK  Name = ZINC63194038
REMARK  5 active torsions:
REMARK  status: ('A' for Active; 'I' for Inactive)
REMARK    1  A    between atoms: C_1  and  C_2
REMARK    2  A    between atoms: C_2  and  C_4
REMARK    3  A    between atoms: C_2  and  N_21
REMARK    4  A    between atoms: N_10  and  S_11
REMARK    5  A    between atoms: S_11  and  C_14
REMARK                            x       y       z     vdW  Elec       q    Type
REMARK                         _______ _______ _______ _____ _____    ______ ____
ROOT
ATOM      1  C   UNL     1       0.845  -1.355   1.971  0.00  0.00    +0.065 C 
ATOM      2  C   UNL     1       2.339  -1.034   2.080  0.00  0.00    +0.019 C 
ATOM      3  C   UNL     1       3.057  -2.193   2.776  0.00  0.00    +0.003 C 
ATOM      4  C   UNL     1       2.896  -3.468   1.944  0.00  0.00    +0.017 C 
ATOM      5  C   UNL     1       1.408  -3.816   1.833  0.00  0.00    +0.110 C 
ATOM      6  N   UNL     1       0.685  -2.653   1.301  0.00  0.00    -0.175 NA
ENDROOT
BRANCH   6   7
ATOM      7  S   UNL     1      -0.288  -2.800  -0.030  0.00  0.00    +0.061 S 
ATOM      8  O   UNL     1      -1.009  -4.015   0.126  0.00  0.00    -0.153 OA
ATOM      9  O   UNL     1      -0.935  -1.547  -0.201  0.00  0.00    -0.153 OA
BRANCH   7  10
ATOM     10  C   UNL     1       0.767  -3.017  -1.425  0.00  0.00    +0.106 A 
ATOM     11  C   UNL     1       0.900  -2.003  -2.355  0.00  0.00    +0.029 A 
ATOM     12  C   UNL     1       1.727  -2.172  -3.449  0.00  0.00    +0.016 A 
ATOM     13  C   UNL     1       2.422  -3.357  -3.614  0.00  0.00    +0.013 A 
ATOM     14  C   UNL     1       2.289  -4.371  -2.683  0.00  0.00    +0.016 A 
ATOM     15  C   UNL     1       1.465  -4.199  -1.586  0.00  0.00    +0.029 A 
ATOM     16  I   UNL     1       3.676  -3.614  -5.272  0.00  0.00    -0.044 I 
ENDBRANCH   7  10
ENDBRANCH   6   7
BRANCH   1  18
ATOM     17  C   UNL     1       0.783  -0.179  -0.232  0.00  0.00    -0.013 C 
ATOM     18  C   UNL     1       0.145  -0.267   1.155  0.00  0.00    -0.059 C 
BRANCH  18  19
ATOM     19  N   UNL     1       0.284   1.025   1.841  0.00  0.00    +0.381 N 
ATOM     20  H   UNL     1      -0.251   1.726   1.350  0.00  0.00    -0.090 HD
ATOM     21  H   UNL     1      -0.057   0.943   2.787  0.00  0.00    -0.090 HD
ATOM     22  H   UNL     1       1.257   1.295   1.856  0.00  0.00    -0.090 HD
ENDBRANCH  18  19
ENDBRANCH   1  18
TORSDOF 4
