REMARK  Name = ZINC55680161
REMARK  9 active torsions:
REMARK  status: ('A' for Active; 'I' for Inactive)
REMARK    1  A    between atoms: C_1  and  C_2
REMARK    2  A    between atoms: C_2  and  C_3
REMARK    3  A    between atoms: C_2  and  N_12
REMARK    4  A    between atoms: C_3  and  O_4
REMARK    5  A    between atoms: O_4  and  C_5
REMARK    6  A    between atoms: C_13  and  C_15
REMARK    7  A    between atoms: N_17  and  C_29
REMARK    8  A    between atoms: C_19  and  C_20
REMARK    9  A    between atoms: C_23  and  N_26
REMARK                            x       y       z     vdW  Elec       q    Type
REMARK                         _______ _______ _______ _____ _____    ______ ____
ROOT
ATOM      1  N   UNL     1       0.624  -0.757   1.135  0.00  0.00    -0.305 N 
ATOM      2  C   UNL     1       0.035  -0.685   2.345  0.00  0.00    +0.248 C 
ATOM      3  O   UNL     1      -1.093  -0.240   2.447  0.00  0.00    -0.270 OA
ATOM      4  H   UNL     1       1.523  -1.112   1.054  0.00  0.00    +0.149 HD
ENDROOT
BRANCH   2   5
ATOM      5  C   UNL     1       0.756  -1.145   3.544  0.00  0.00    +0.082 A 
ATOM      6  C   UNL     1       2.067  -1.569   3.608  0.00  0.00    +0.121 A 
ATOM      7  N   UNL     1       2.332  -1.900   4.881  0.00  0.00    -0.273 N 
ATOM      8  N   UNL     1       1.194  -1.696   5.666  0.00  0.00    -0.171 NA
ATOM      9  C   UNL     1       0.225  -1.237   4.907  0.00  0.00    +0.105 A 
ATOM     10  C   UNL     1       3.618  -2.399   5.373  0.00  0.00    +0.172 C 
BRANCH   9  11
ATOM     11  C   UNL     1      -1.147  -0.883   5.346  0.00  0.00    +0.003 A 
ATOM     12  C   UNL     1      -2.248  -1.281   4.589  0.00  0.00    +0.012 A 
ATOM     13  C   UNL     1      -3.522  -0.949   5.002  0.00  0.00    +0.033 A 
ATOM     14  C   UNL     1      -3.708  -0.223   6.164  0.00  0.00    +0.126 A 
ATOM     15  C   UNL     1      -2.619   0.175   6.919  0.00  0.00    +0.033 A 
ATOM     16  C   UNL     1      -1.341  -0.156   6.519  0.00  0.00    +0.012 A 
BRANCH  14  17
ATOM     17  N   UNL     1      -5.077   0.130   6.602  0.00  0.00    +0.056 N 
ATOM     18  O   UNL     1      -6.030  -0.216   5.943  0.00  0.00    -0.126 OA
ATOM     19  O   UNL     1      -5.242   0.765   7.617  0.00  0.00    -0.126 OA
ENDBRANCH  14  17
ENDBRANCH   9  11
ENDBRANCH   2   5
BRANCH   1  21
ATOM     20  C   UNL     1       0.095   1.210  -0.219  0.00  0.00    +0.031 C 
ATOM     21  C   UNL     1      -0.094  -0.300  -0.058  0.00  0.00    +0.108 C 
BRANCH  21  22
ATOM     22  C   UNL     1       0.458  -1.018  -1.291  0.00  0.00    +0.251 C 
BRANCH  22  23
ATOM     23  O   UNL     1       1.818  -0.632  -1.498  0.00  0.00    -0.487 OA
BRANCH  23  24
ATOM     24  C   UNL     1       2.461  -1.184  -2.561  0.00  0.00    +0.156 A 
ATOM     25  C   UNL     1       1.795  -2.072  -3.391  0.00  0.00    +0.048 A 
ATOM     26  C   UNL     1       2.451  -2.632  -4.471  0.00  0.00    +0.004 A 
ATOM     27  C   UNL     1       3.771  -2.307  -4.725  0.00  0.00    +0.003 A 
ATOM     28  C   UNL     1       4.439  -1.422  -3.900  0.00  0.00    +0.042 A 
ATOM     29  C   UNL     1       3.785  -0.854  -2.821  0.00  0.00    +0.165 A 
ATOM     30  F   UNL     1       4.436   0.016  -2.018  0.00  0.00    -0.202 F 
ENDBRANCH  23  24
ENDBRANCH  22  23
ENDBRANCH  21  22
ENDBRANCH   1  21
TORSDOF 7
