REMARK  Name = ZINC39696171
REMARK  10 active torsions:
REMARK  status: ('A' for Active; 'I' for Inactive)
REMARK    1  A    between atoms: C_1  and  C_2
REMARK    2  A    between atoms: C_2  and  C_3
REMARK    3  A    between atoms: C_6  and  C_9
REMARK    4  A    between atoms: C_9  and  C_11
REMARK    5  A    between atoms: C_9  and  N_12
REMARK    6  A    between atoms: C_13  and  C_15
REMARK    7  A    between atoms: C_26  and  C_28
REMARK    8  A    between atoms: C_31  and  O_38
REMARK    9  A    between atoms: C_32  and  C_34
REMARK   10  A    between atoms: O_38  and  C_39
REMARK                            x       y       z     vdW  Elec       q    Type
REMARK                         _______ _______ _______ _____ _____    ______ ____
ROOT
ATOM      1  C   UNL     1       5.304  -0.013  -6.413  0.00  0.00    +0.100 C 
ATOM      2  C   UNL     1       5.467   1.450  -5.944  0.00  0.00    +0.121 C 
ATOM      3  N   UNL     1       6.420   2.048  -6.908  0.00  0.00    -0.296 N 
ATOM      4  C   UNL     1       6.028   1.475  -8.218  0.00  0.00    +0.115 C 
ATOM      5  C   UNL     1       5.672   0.008  -7.906  0.00  0.00    -0.004 C 
ATOM      6  C   UNL     1       6.875  -0.894  -8.166  0.00  0.00    -0.010 C 
ATOM      7  C   UNL     1       7.187  -0.901  -9.665  0.00  0.00    -0.082 C 
ATOM      8  N   UNL     1       6.018  -1.386 -10.408  0.00  0.00    +0.379 N 
ATOM      9  C   UNL     1       4.891  -0.463 -10.226  0.00  0.00    -0.082 C 
ATOM     10  C   UNL     1       4.482  -0.437  -8.751  0.00  0.00    -0.010 C 
ATOM     11  C   UNL     1       7.418   2.917  -6.652  0.00  0.00    +0.247 C 
ATOM     12  O   UNL     1       7.699   3.199  -5.503  0.00  0.00    -0.270 OA
ATOM     13  H   UNL     1       6.246  -1.448 -11.389  0.00  0.00    -0.086 HD
ATOM     14  H   UNL     1       5.760  -2.300 -10.067  0.00  0.00    -0.086 HD
ENDROOT
BRANCH  11  15
ATOM     15  C   UNL     1       8.169   3.527  -7.767  0.00  0.00    +0.038 A 
ATOM     16  C   UNL     1       7.611   3.572  -9.047  0.00  0.00    +0.016 A 
ATOM     17  C   UNL     1       8.315   4.142 -10.084  0.00  0.00    +0.047 A 
ATOM     18  C   UNL     1       9.579   4.674  -9.858  0.00  0.00    +0.132 A 
ATOM     19  C   UNL     1      10.138   4.631  -8.587  0.00  0.00    +0.097 A 
ATOM     20  C   UNL     1       9.438   4.067  -7.543  0.00  0.00    +0.029 A 
BRANCH  19  21
ATOM     21  C   UNL     1      11.510   5.208  -8.348  0.00  0.00    +0.421 C 
ATOM     22  F   UNL     1      11.855   5.050  -7.002  0.00  0.00    -0.166 F 
ATOM     23  F   UNL     1      12.442   4.542  -9.150  0.00  0.00    -0.166 F 
ATOM     24  F   UNL     1      11.506   6.569  -8.671  0.00  0.00    -0.166 F 
ENDBRANCH  19  21
BRANCH  18  25
ATOM     25  O   UNL     1      10.270   5.235 -10.883  0.00  0.00    -0.495 OA
ATOM     26  C   UNL     1       9.637   5.244 -12.164  0.00  0.00    +0.277 C 
ENDBRANCH  18  25
ENDBRANCH  11  15
BRANCH   1  28
ATOM     27  N   UNL     1       3.610  -1.763  -5.982  0.00  0.00    -0.308 N 
ATOM     28  C   UNL     1       3.878  -0.466  -6.231  0.00  0.00    +0.219 C 
ATOM     29  O   UNL     1       2.972   0.336  -6.309  0.00  0.00    -0.275 OA
ATOM     30  H   UNL     1       4.334  -2.405  -5.920  0.00  0.00    +0.149 HD
BRANCH  27  31
ATOM     31  C   UNL     1       2.224  -2.204  -5.805  0.00  0.00    +0.100 C 
ATOM     32  C   UNL     1       1.601  -2.490  -7.173  0.00  0.00    +0.033 C 
BRANCH  31  36
ATOM     33  C   UNL     1       2.150  -5.759  -3.438  0.00  0.00    -0.048 A 
ATOM     34  C   UNL     1       1.194  -4.780  -3.244  0.00  0.00    +0.004 A 
ATOM     35  C   UNL     1       1.218  -3.629  -4.010  0.00  0.00    +0.006 A 
ATOM     36  C   UNL     1       2.198  -3.458  -4.969  0.00  0.00    -0.027 A 
ATOM     37  C   UNL     1       3.155  -4.437  -5.163  0.00  0.00    +0.006 A 
ATOM     38  C   UNL     1       3.133  -5.586  -4.394  0.00  0.00    +0.004 A 
BRANCH  33  40
ATOM     39  C   UNL     1       2.958  -6.802  -1.338  0.00  0.00    +0.009 C 
ATOM     40  C   UNL     1       2.124  -7.014  -2.603  0.00  0.00    +0.032 C 
ENDBRANCH  33  40
ENDBRANCH  31  36
ENDBRANCH  27  31
ENDBRANCH   1  28
TORSDOF 7
