REMARK  Name = ZINC25465268
REMARK  6 active torsions:
REMARK  status: ('A' for Active; 'I' for Inactive)
REMARK    1  A    between atoms: C_4  and  C_7
REMARK    2  A    between atoms: C_12  and  O_13
REMARK    3  A    between atoms: O_13  and  C_14
REMARK    4  A    between atoms: C_14  and  C_15
REMARK    5  A    between atoms: N_17  and  N_18
REMARK    6  A    between atoms: C_19  and  C_21
REMARK                            x       y       z     vdW  Elec       q    Type
REMARK                         _______ _______ _______ _____ _____    ______ ____
ROOT
ATOM      1  C   UNL     1       4.839   1.168  -0.038  0.00  0.00    +0.326 C 
ENDROOT
BRANCH   1   2
ATOM      2  C   UNL     1       3.524   1.904  -0.021  0.00  0.00    +0.267 C 
ATOM      3  O   UNL     1       3.508   3.117  -0.015  0.00  0.00    -0.271 OA
ATOM      4  N   UNL     1       2.366   1.214  -0.014  0.00  0.00    -0.232 N 
ATOM      5  H   UNL     1       2.381   0.115  -0.020  0.00  0.00    +0.173 HD
BRANCH   4   6
ATOM      6  N   UNL     1       1.143   1.898   0.001  0.00  0.00    -0.234 N 
ATOM      7  C   UNL     1      -0.014   1.209   0.009  0.00  0.00    +0.235 C 
ATOM      8  O   UNL     1       0.002  -0.004   0.002  0.00  0.00    -0.274 OA
ATOM      9  H   UNL     1       1.129   2.998   0.007  0.00  0.00    +0.173 HD
BRANCH   7  10
ATOM     10  C   UNL     1      -1.330   1.944   0.019  0.00  0.00    +0.115 C 
ATOM     11  C   UNL     1      -2.182   1.851   1.286  0.00  0.00    +0.055 C 
ATOM     12  C   UNL     1      -2.609   1.105   0.020  0.00  0.00    +0.130 C 
ATOM     13 CL   UNL     1      -4.028   1.748  -0.886  0.00  0.00    -0.100 Cl
ATOM     14 CL   UNL     1      -2.427  -0.689   0.009  0.00  0.00    -0.100 Cl
ENDBRANCH   7  10
ENDBRANCH   4   6
ENDBRANCH   1   2
BRANCH   1  15
ATOM     15  O   UNL     1       5.913   2.112  -0.043  0.00  0.00    -0.482 OA
BRANCH  15  21
ATOM     16  C   UNL     1       8.274   2.474  -0.070  0.00  0.00    +0.024 A 
ATOM     17  C   UNL     1       9.564   1.950  -0.080  0.00  0.00    +0.012 A 
ATOM     18  C   UNL     1       9.752   0.583  -0.088  0.00  0.00    +0.001 A 
ATOM     19  C   UNL     1       8.662  -0.271  -0.082  0.00  0.00    +0.004 A 
ATOM     20  C   UNL     1       7.378   0.239  -0.067  0.00  0.00    +0.046 A 
ATOM     21  C   UNL     1       7.175   1.610  -0.058  0.00  0.00    +0.129 A 
BRANCH  16  25
ATOM     22  C   UNL     1       7.679   6.684  -0.058  0.00  0.00    +0.000 A 
ATOM     23  C   UNL     1       8.549   6.109   0.851  0.00  0.00    +0.001 A 
ATOM     24  C   UNL     1       8.746   4.742   0.851  0.00  0.00    +0.008 A 
ATOM     25  C   UNL     1       8.066   3.943  -0.065  0.00  0.00    -0.014 A 
ATOM     26  C   UNL     1       7.195   4.529  -0.982  0.00  0.00    +0.008 A 
ATOM     27  C   UNL     1       7.001   5.895  -0.969  0.00  0.00    +0.001 A 
ENDBRANCH  16  25
ENDBRANCH  15  21
ENDBRANCH   1  15
TORSDOF 6
