REMARK  Name = ZINC22916311
REMARK  8 active torsions:
REMARK  status: ('A' for Active; 'I' for Inactive)
REMARK    1  A    between atoms: C_1  and  C_2
REMARK    2  A    between atoms: C_3  and  S_8
REMARK    3  A    between atoms: C_4  and  C_7
REMARK    4  A    between atoms: S_8  and  N_11
REMARK    5  A    between atoms: C_17  and  C_19
REMARK    6  A    between atoms: C_19  and  N_20
REMARK    7  A    between atoms: N_23  and  C_26
REMARK    8  A    between atoms: C_26  and  C_27
REMARK                            x       y       z     vdW  Elec       q    Type
REMARK                         _______ _______ _______ _____ _____    ______ ____
ROOT
ATOM      1  N   UNL     1       0.215   3.866   2.181  0.00  0.00    -0.173 NA
ATOM      2  C   UNL     1       1.047   3.986   0.976  0.00  0.00    +0.128 C 
ATOM      3  C   UNL     1       0.732   5.332   0.300  0.00  0.00    +0.125 C 
ATOM      4  N   UNL     1       0.798   6.392   1.316  0.00  0.00    -0.300 N 
ATOM      5  C   UNL     1      -0.030   6.269   2.523  0.00  0.00    +0.125 C 
ATOM      6  C   UNL     1       0.281   4.926   3.196  0.00  0.00    +0.128 C 
ATOM      7  C   UNL     1       1.604   7.459   1.143  0.00  0.00    +0.199 C 
ATOM      8  O   UNL     1       1.650   8.328   1.987  0.00  0.00    -0.278 OA
ENDROOT
BRANCH   1   9
ATOM      9  S   UNL     1      -0.775   2.555   2.394  0.00  0.00    +0.066 S 
ATOM     10  O   UNL     1      -0.984   2.427   3.794  0.00  0.00    -0.153 OA
ATOM     11  O   UNL     1      -0.234   1.505   1.605  0.00  0.00    -0.153 OA
BRANCH   9  14
ATOM     12  C   UNL     1      -1.985   2.121  -0.761  0.00  0.00    +0.071 C 
ATOM     13  C   UNL     1      -2.773   2.751   0.359  0.00  0.00    +0.107 A 
ATOM     14  C   UNL     1      -2.337   2.962   1.687  0.00  0.00    +0.170 A 
ATOM     15  C   UNL     1      -3.398   3.549   2.291  0.00  0.00    +0.161 A 
ATOM     16  O   UNL     1      -4.355   3.654   1.358  0.00  0.00    -0.358 OA
ATOM     17  N   UNL     1      -3.989   3.212   0.294  0.00  0.00    -0.081 NA
ATOM     18  C   UNL     1      -3.486   3.996   3.727  0.00  0.00    +0.091 C 
ENDBRANCH   9  14
ENDBRANCH   1   9
BRANCH   7  19
ATOM     19  C   UNL     1       2.448   7.571  -0.101  0.00  0.00    +0.019 C 
BRANCH  19  20
ATOM     20  N   UNL     1       3.230   8.814  -0.051  0.00  0.00    +0.387 N 
ATOM     21  C   UNL     1       2.354   9.991  -0.119  0.00  0.00    -0.063 C 
ATOM     22  C   UNL     1       3.198  11.261   0.016  0.00  0.00    +0.066 C 
ATOM     23  N   UNL     1       4.203  11.293  -1.056  0.00  0.00    -0.298 NA
ATOM     24  C   UNL     1       5.080  10.116  -0.988  0.00  0.00    +0.066 C 
ATOM     25  C   UNL     1       4.236   8.846  -1.122  0.00  0.00    -0.063 C 
ATOM     26  H   UNL     1       3.760   8.840   0.913  0.00  0.00    -0.081 HD
BRANCH  23  27
ATOM     27  C   UNL     1       4.986  12.536  -1.006  0.00  0.00    +0.198 C 
BRANCH  27  28
ATOM     28  C   UNL     1       5.637  12.783  -2.368  0.00  0.00    +0.402 C 
ATOM     29  F   UNL     1       4.656  12.762  -3.365  0.00  0.00    -0.169 F 
ATOM     30  F   UNL     1       6.269  14.031  -2.362  0.00  0.00    -0.169 F 
ATOM     31  F   UNL     1       6.582  11.783  -2.621  0.00  0.00    -0.169 F 
ENDBRANCH  27  28
ENDBRANCH  23  27
ENDBRANCH  19  20
ENDBRANCH   7  19
TORSDOF 6
