REMARK  Name = ZINC12484099
REMARK  12 active torsions:
REMARK  status: ('A' for Active; 'I' for Inactive)
REMARK    1  A    between atoms: C_1  and  C_2
REMARK    2  A    between atoms: C_2  and  N_3
REMARK    3  A    between atoms: C_7  and  C_34
REMARK    4  A    between atoms: C_8  and  C_33
REMARK    5  A    between atoms: C_12  and  S_13
REMARK    6  A    between atoms: S_13  and  C_14
REMARK    7  A    between atoms: C_14  and  C_15
REMARK    8  A    between atoms: N_17  and  C_18
REMARK    9  A    between atoms: C_19  and  C_31
REMARK   10  A    between atoms: C_20  and  C_30
REMARK   11  A    between atoms: C_21  and  C_29
REMARK   12  A    between atoms: N_22  and  C_23
REMARK                            x       y       z     vdW  Elec       q    Type
REMARK                         _______ _______ _______ _____ _____    ______ ____
ROOT
ATOM      1  C   UNL     1      -0.787   0.900  -1.352  0.00  0.00    +0.229 C 
ATOM      2  O   UNL     1      -1.996   0.902  -1.259  0.00  0.00    -0.275 OA
ATOM      3  N   UNL     1      -0.198   1.327  -2.487  0.00  0.00    -0.270 N 
ATOM      4  H   UNL     1       0.768   1.396  -2.535  0.00  0.00    +0.156 HD
ENDROOT
BRANCH   3   5
ATOM      5  C   UNL     1      -0.974   1.668  -3.585  0.00  0.00    +0.128 A 
ATOM      6  C   UNL     1      -1.098   0.935  -4.756  0.00  0.00    +0.095 A 
ATOM      7  C   UNL     1      -2.020   1.692  -5.612  0.00  0.00    -0.010 A 
ATOM      8  C   UNL     1      -2.369   2.793  -4.927  0.00  0.00    +0.027 A 
ATOM      9  N   UNL     1      -1.742   2.784  -3.707  0.00  0.00    -0.300 N 
ATOM     10  C   UNL     1      -3.301   3.869  -5.420  0.00  0.00    +0.064 C 
ATOM     11  C   UNL     1      -2.482   1.311  -6.995  0.00  0.00    +0.047 C 
BRANCH   9  12
ATOM     12  C   UNL     1      -1.875   3.779  -2.729  0.00  0.00    +0.048 A 
ATOM     13  C   UNL     1      -3.091   3.966  -2.087  0.00  0.00    +0.026 A 
ATOM     14  C   UNL     1      -3.217   4.945  -1.120  0.00  0.00    +0.002 A 
ATOM     15  C   UNL     1      -2.136   5.745  -0.799  0.00  0.00    +0.000 A 
ATOM     16  C   UNL     1      -0.924   5.564  -1.440  0.00  0.00    +0.002 A 
ATOM     17  C   UNL     1      -0.791   4.584  -2.404  0.00  0.00    +0.026 A 
ENDBRANCH   9  12
BRANCH   6  18
ATOM     18  C   UNL     1      -0.459  -0.308  -5.067  0.00  0.00    +0.103 C 
ATOM     19  N   UNL     1       0.048  -1.294  -5.313  0.00  0.00    -0.191 NA
ENDBRANCH   6  18
ENDBRANCH   3   5
BRANCH   1  20
ATOM     20  C   UNL     1       0.057   0.418  -0.200  0.00  0.00    +0.173 C 
BRANCH  20  21
ATOM     21  S   UNL     1      -1.018  -0.085   1.166  0.00  0.00    -0.078 S 
BRANCH  21  31
ATOM     22  N   UNL     1      -0.201  -1.054   3.561  0.00  0.00    -0.288 N 
ATOM     23  C   UNL     1       0.696  -1.447   4.483  0.00  0.00    +0.263 A 
ATOM     24  O   UNL     1       0.325  -1.861   5.568  0.00  0.00    -0.267 OA
ATOM     25  C   UNL     1       2.091  -1.372   4.175  0.00  0.00    +0.075 A 
ATOM     26  C   UNL     1       3.235  -1.732   4.995  0.00  0.00    -0.026 A 
ATOM     27  C   UNL     1       4.471  -1.576   4.498  0.00  0.00    -0.008 A 
ATOM     28  S   UNL     1       4.183  -0.924   2.865  0.00  0.00    -0.073 S 
ATOM     29  C   UNL     1       2.409  -0.878   2.895  0.00  0.00    +0.117 A 
ATOM     30  N   UNL     1       1.473  -0.512   2.029  0.00  0.00    -0.216 NA
ATOM     31  C   UNL     1       0.195  -0.587   2.341  0.00  0.00    +0.173 A 
ATOM     32  C   UNL     1       5.789  -1.880   5.163  0.00  0.00    +0.052 C 
ATOM     33  C   UNL     1       3.035  -2.273   6.387  0.00  0.00    +0.045 C 
BRANCH  22  35
ATOM     34  C   UNL     1      -2.173  -2.497   3.451  0.00  0.00    +0.027 C 
ATOM     35  C   UNL     1      -1.631  -1.130   3.871  0.00  0.00    +0.124 C 
ENDBRANCH  22  35
ENDBRANCH  21  31
ENDBRANCH  20  21
ENDBRANCH   1  20
TORSDOF 7
