REMARK  Name = ZINC21236945
REMARK  10 active torsions:
REMARK  status: ('A' for Active; 'I' for Inactive)
REMARK    1  A    between atoms: C_1  and  C_2
REMARK    2  A    between atoms: C_2  and  O_3
REMARK    3  A    between atoms: O_3  and  C_4
REMARK    4  A    between atoms: C_8  and  C_10
REMARK    5  A    between atoms: C_15  and  C_20
REMARK    6  A    between atoms: C_23  and  O_28
REMARK    7  A    between atoms: C_24  and  O_26
REMARK    8  A    between atoms: O_26  and  C_27
REMARK    9  A    between atoms: O_28  and  C_29
REMARK   10  A    between atoms: C_29  and  C_30
REMARK                            x       y       z     vdW  Elec       q    Type
REMARK                         _______ _______ _______ _____ _____    ______ ____
ROOT
ATOM      1  C   UNL     1       2.489   1.048  -0.016  0.00  0.00    +0.136 C 
ATOM      2  C   UNL     1       2.955   0.930  -1.448  0.00  0.00    +0.036 C 
ATOM      3  C   UNL     1       3.995   1.581  -1.994  0.00  0.00    +0.017 C 
ATOM      4  C   UNL     1       4.328   1.398  -3.466  0.00  0.00    +0.059 C 
ATOM      5  C   UNL     1       3.989  -0.026  -3.902  0.00  0.00    +0.032 C 
ATOM      6  C   UNL     1       2.489  -0.241  -3.669  0.00  0.00    +0.088 C 
ATOM      7  C   UNL     1       2.184   0.035  -2.227  0.00  0.00    +0.163 C 
ATOM      8  O   UNL     1       1.242  -0.531  -1.708  0.00  0.00    -0.292 OA
ATOM      9  N   UNL     1       4.810   2.440  -1.332  0.00  0.00    -0.316 N 
ATOM     10  C   UNL     1       4.372   3.459  -0.493  0.00  0.00    +0.052 A 
ATOM     11  C   UNL     1       4.581   4.796  -0.782  0.00  0.00    +0.025 A 
ATOM     12  C   UNL     1       4.158   5.759   0.118  0.00  0.00    +0.002 A 
ATOM     13  C   UNL     1       3.536   5.388   1.296  0.00  0.00    +0.002 A 
ATOM     14  C   UNL     1       3.311   4.052   1.578  0.00  0.00    +0.025 A 
ATOM     15  C   UNL     1       3.714   3.087   0.669  0.00  0.00    +0.049 A 
ATOM     16  N   UNL     1       3.413   1.739   0.859  0.00  0.00    -0.331 N 
ATOM     17  H   UNL     1       5.901   2.357  -1.440  0.00  0.00    +0.152 HD
ATOM     18  H   UNL     1       3.890   1.200   1.691  0.00  0.00    +0.147 HD
ENDROOT
BRANCH   1  23
ATOM     19  C   UNL     1      -0.099   3.772  -0.413  0.00  0.00    +0.121 A 
ATOM     20  C   UNL     1      -1.245   3.129   0.032  0.00  0.00    +0.045 A 
ATOM     21  C   UNL     1      -1.177   1.819   0.464  0.00  0.00    +0.004 A 
ATOM     22  C   UNL     1       0.032   1.147   0.449  0.00  0.00    +0.006 A 
ATOM     23  C   UNL     1       1.174   1.783   0.000  0.00  0.00    -0.019 A 
ATOM     24  C   UNL     1       1.111   3.094  -0.433  0.00  0.00    +0.051 A 
BRANCH  19  25
ATOM     25  O   UNL     1      -0.163   5.063  -0.834  0.00  0.00    -0.492 OA
BRANCH  25  27
ATOM     26  C   UNL     1      -1.316   7.136  -1.294  0.00  0.00    +0.048 C 
ATOM     27  C   UNL     1      -1.442   5.698  -0.785  0.00  0.00    +0.225 C 
ENDBRANCH  25  27
ENDBRANCH  19  25
ENDBRANCH   1  23
BRANCH   5  28
ATOM     28  C   UNL     1       4.308  -0.202  -5.365  0.00  0.00    -0.040 A 
ATOM     29  C   UNL     1       3.676   0.587  -6.308  0.00  0.00    +0.008 A 
ATOM     30  C   UNL     1       3.969   0.433  -7.651  0.00  0.00    +0.050 A 
ATOM     31  C   UNL     1       4.890  -0.521  -8.054  0.00  0.00    +0.162 A 
ATOM     32  C   UNL     1       5.522  -1.318  -7.104  0.00  0.00    +0.162 A 
ATOM     33  C   UNL     1       5.227  -1.155  -5.760  0.00  0.00    +0.053 A 
BRANCH  32  34
ATOM     34  O   UNL     1       6.426  -2.256  -7.495  0.00  0.00    -0.491 OA
ATOM     35  C   UNL     1       7.035  -3.039  -6.466  0.00  0.00    +0.277 C 
ENDBRANCH  32  34
BRANCH  31  36
ATOM     36  O   UNL     1       5.176  -0.677  -9.374  0.00  0.00    -0.489 OA
BRANCH  36  37
ATOM     37  C   UNL     1       4.489   0.176 -10.292  0.00  0.00    +0.226 C 
ATOM     38  C   UNL     1       4.937  -0.144 -11.719  0.00  0.00    +0.048 C 
ENDBRANCH  36  37
ENDBRANCH  31  36
ENDBRANCH   5  28
TORSDOF 7
