REMARK  Name = ZINC66512370
REMARK  4 active torsions:
REMARK  status: ('A' for Active; 'I' for Inactive)
REMARK    1  A    between atoms: C_1  and  C_2
REMARK    2  A    between atoms: C_2  and  C_23
REMARK    3  A    between atoms: C_5  and  C_17
REMARK    4  A    between atoms: C_9  and  C_11
REMARK                            x       y       z     vdW  Elec       q    Type
REMARK                         _______ _______ _______ _____ _____    ______ ____
ROOT
ATOM      1  C   UNL     1      -0.021   1.526   0.013  0.00  0.00    +0.034 C 
ATOM      2  C   UNL     1       0.001  -0.004   0.003  0.00  0.00    +0.055 C 
ATOM      3  C   UNL     1      -1.425  -0.542   0.168  0.00  0.00    +0.186 C 
ATOM      4  O   UNL     1      -1.376  -1.960   0.344  0.00  0.00    -0.368 OA
ATOM      5  C   UNL     1      -0.680  -2.379   1.520  0.00  0.00    +0.166 C 
ATOM      6  C   UNL     1       0.784  -1.936   1.425  0.00  0.00    +0.144 C 
ATOM      7  N   UNL     1       0.814  -0.495   1.127  0.00  0.00    -0.291 N 
ATOM      8  C   UNL     1       1.565   0.350   1.861  0.00  0.00    +0.222 C 
ATOM      9  O   UNL     1       1.508   1.544   1.658  0.00  0.00    -0.275 OA
ATOM     10  C   UNL     1       0.591  -0.502  -1.317  0.00  0.00    +0.034 C 
ENDROOT
BRANCH   5  11
ATOM     11  C   UNL     1      -0.746  -3.881   1.634  0.00  0.00    -0.017 A 
ATOM     12  C   UNL     1      -0.608  -4.667   0.506  0.00  0.00    +0.006 A 
ATOM     13  C   UNL     1      -0.668  -6.044   0.611  0.00  0.00    +0.000 A 
ATOM     14  C   UNL     1      -0.866  -6.635   1.845  0.00  0.00    +0.000 A 
ATOM     15  C   UNL     1      -1.003  -5.848   2.974  0.00  0.00    +0.000 A 
ATOM     16  C   UNL     1      -0.938  -4.471   2.869  0.00  0.00    +0.006 A 
ENDBRANCH   5  11
BRANCH   8  17
ATOM     17  C   UNL     1       2.474  -0.189   2.935  0.00  0.00    +0.103 C 
ATOM     18  C   UNL     1       3.263   0.962   3.606  0.00  0.00    +0.043 C 
ATOM     19  C   UNL     1       4.670   0.336   3.775  0.00  0.00    +0.160 C 
ATOM     20  O   UNL     1       4.832  -0.457   2.579  0.00  0.00    -0.379 OA
ATOM     21  C   UNL     1       3.563  -1.088   2.318  0.00  0.00    +0.172 C 
ENDBRANCH   8  17
TORSDOF 2
