REMARK  Name = ZINC42438931
REMARK  4 active torsions:
REMARK  status: ('A' for Active; 'I' for Inactive)
REMARK    1  A    between atoms: C_1  and  C_2
REMARK    2  A    between atoms: C_6  and  C_19
REMARK    3  A    between atoms: C_13  and  C_16
REMARK    4  A    between atoms: C_16  and  N_18
REMARK                            x       y       z     vdW  Elec       q    Type
REMARK                         _______ _______ _______ _____ _____    ______ ____
ROOT
ATOM      1  C   UNL     1      -0.151   1.296  -0.243  0.00  0.00    +0.028 C 
ATOM      2  C   UNL     1       0.070  -0.211  -0.100  0.00  0.00    +0.072 C 
ATOM      3  C   UNL     1       0.976  -0.707  -1.231  0.00  0.00    +0.023 C 
ATOM      4  C   UNL     1       2.364  -0.081  -1.079  0.00  0.00    +0.016 C 
ATOM      5  C   UNL     1       2.977  -0.513   0.256  0.00  0.00    +0.092 C 
ATOM      6  C   UNL     1       2.093  -0.014   1.403  0.00  0.00    +0.119 C 
ATOM      7  N   UNL     1       0.718  -0.493   1.188  0.00  0.00    -0.312 N 
ATOM      8  C   UNL     1       0.049  -1.198   2.175  0.00  0.00    +0.121 A 
ATOM      9  C   UNL     1      -1.316  -1.444   2.039  0.00  0.00    +0.044 A 
ATOM     10  C   UNL     1      -1.974  -2.141   3.016  0.00  0.00    +0.015 A 
ATOM     11  C   UNL     1      -1.242  -2.586   4.129  0.00  0.00    +0.021 A 
ATOM     12  C   UNL     1       0.123  -2.304   4.199  0.00  0.00    +0.123 A 
ATOM     13  N   UNL     1       0.718  -1.635   3.234  0.00  0.00    -0.240 NA
ENDROOT
BRANCH   5  14
ATOM     14  C   UNL     1       4.357   0.077   0.390  0.00  0.00    +0.215 C 
ATOM     15  O   UNL     1       4.807   0.775  -0.495  0.00  0.00    -0.276 OA
ATOM     16  N   UNL     1       5.091  -0.170   1.492  0.00  0.00    -0.329 N 
ATOM     17  H   UNL     1       4.731  -0.727   2.200  0.00  0.00    +0.145 HD
ATOM     18  H   UNL     1       5.980   0.210   1.579  0.00  0.00    +0.145 HD
ENDBRANCH   5  14
BRANCH  11  19
ATOM     19  C   UNL     1      -1.907  -3.340   5.207  0.00  0.00    +0.078 C 
ATOM     20  S   UNL     1      -3.178  -4.425   4.835  0.00  0.00    -0.035 S 
BRANCH  19  21
ATOM     21  N   UNL     1      -1.513  -3.176   6.485  0.00  0.00    -0.352 N 
ATOM     22  H   UNL     1      -0.793  -2.561   6.696  0.00  0.00    +0.143 HD
ATOM     23  H   UNL     1      -1.950  -3.672   7.195  0.00  0.00    +0.143 HD
ENDBRANCH  19  21
ENDBRANCH  11  19
TORSDOF 3
