REMARK  Name = ZINC39280342
REMARK  4 active torsions:
REMARK  status: ('A' for Active; 'I' for Inactive)
REMARK    1  A    between atoms: C_4  and  C_7
REMARK    2  A    between atoms: C_9  and  C_13
REMARK    3  A    between atoms: C_17  and  S_21
REMARK    4  A    between atoms: N_19  and  N_20
REMARK                            x       y       z     vdW  Elec       q    Type
REMARK                         _______ _______ _______ _____ _____    ______ ____
ROOT
ATOM      1  C   UNL     1       5.782  -3.012   1.181  0.00  0.00    +0.185 C 
ATOM      2  N   UNL     1       5.472  -2.227   2.398  0.00  0.00    -0.234 NA
ATOM      3  N   UNL     1       6.607  -2.482   3.299  0.00  0.00    -0.228 NA
ATOM      4  C   UNL     1       7.769  -2.519   2.373  0.00  0.00    +0.211 C 
ATOM      5  N   UNL     1       7.247  -3.199   1.163  0.00  0.00    -0.197 NA
ATOM      6  H   UNL     1       5.393  -1.244   2.185  0.00  0.00    +0.143 HD
ATOM      7  H   UNL     1       6.498  -3.363   3.778  0.00  0.00    +0.143 HD
ENDROOT
BRANCH   1  10
ATOM      8  C   UNL     1       3.699  -0.689  -0.037  0.00  0.00    +0.091 C 
ATOM      9  C   UNL     1       3.832  -2.029  -0.051  0.00  0.00    +0.034 C 
ATOM     10  C   UNL     1       5.335  -2.245  -0.065  0.00  0.00    +0.187 C 
ATOM     11  N   UNL     1       5.871  -0.874  -0.056  0.00  0.00    -0.176 NA
ATOM     12  N   UNL     1       4.919  -0.090  -0.047  0.00  0.00    -0.154 NA
BRANCH   8  16
ATOM     13  C   UNL     1      -0.017   1.379   0.010  0.00  0.00    +0.000 A 
ATOM     14  C   UNL     1       1.169   2.092   0.002  0.00  0.00    +0.001 A 
ATOM     15  C   UNL     1       2.377   1.426  -0.013  0.00  0.00    +0.010 A 
ATOM     16  C   UNL     1       2.402   0.033  -0.021  0.00  0.00    +0.002 A 
ATOM     17  C   UNL     1       1.205  -0.680  -0.013  0.00  0.00    +0.010 A 
ATOM     18  C   UNL     1       0.002  -0.004   0.002  0.00  0.00    +0.001 A 
ENDBRANCH   8  16
ENDBRANCH   1  10
BRANCH   5  19
ATOM     19  N   UNL     1       7.593  -4.611   1.167  0.00  0.00    -0.264 NA
ATOM     20  H   UNL     1       8.594  -4.739   1.155  0.00  0.00    +0.137 HD
ATOM     21  H   UNL     1       7.178  -5.082   1.958  0.00  0.00    +0.137 HD
ENDBRANCH   5  19
BRANCH   4  22
ATOM     22  S   UNL     1       8.317  -0.837   1.974  0.00  0.00    -0.142 S 
ATOM     23  H   UNL     1       8.680  -0.323   3.163  0.00  0.00    +0.105 HD
ENDBRANCH   4  22
TORSDOF 4
