REMARK  Name = ZINC59580924
REMARK  6 active torsions:
REMARK  status: ('A' for Active; 'I' for Inactive)
REMARK    1  A    between atoms: C_1  and  C_2
REMARK    2  A    between atoms: C_3  and  C_15
REMARK    3  A    between atoms: C_4  and  C_7
REMARK    4  A    between atoms: N_17  and  C_18
REMARK    5  A    between atoms: C_18  and  C_19
REMARK    6  A    between atoms: N_22  and  C_24
REMARK                            x       y       z     vdW  Elec       q    Type
REMARK                         _______ _______ _______ _____ _____    ______ ____
ROOT
ATOM      1  C   UNL     1      -2.459  -0.424   0.515  0.00  0.00    +0.250 C 
ATOM      2  O   UNL     1      -3.207  -0.136  -0.399  0.00  0.00    -0.270 OA
ATOM      3  N   UNL     1      -2.898  -0.369   1.788  0.00  0.00    -0.306 N 
ATOM      4  H   UNL     1      -2.302  -0.598   2.518  0.00  0.00    +0.149 HD
ENDROOT
BRANCH   1   7
ATOM      5  C   UNL     1       0.008   1.484   0.315  0.00  0.00    +0.090 C 
ATOM      6  C   UNL     1       0.014  -0.013   0.142  0.00  0.00    +0.147 A 
ATOM      7  C   UNL     1      -1.073  -0.832   0.232  0.00  0.00    +0.106 A 
ATOM      8  C   UNL     1      -0.593  -2.201  -0.007  0.00  0.00    +0.130 A 
ATOM      9  N   UNL     1       0.697  -2.121  -0.217  0.00  0.00    -0.077 NA
ATOM     10  O   UNL     1       1.084  -0.764  -0.132  0.00  0.00    -0.359 OA
BRANCH   8  11
ATOM     11  C   UNL     1      -1.412  -3.436  -0.010  0.00  0.00    +0.058 A 
ATOM     12  C   UNL     1      -2.571  -3.507  -0.785  0.00  0.00    +0.134 A 
ATOM     13  C   UNL     1      -3.331  -4.662  -0.782  0.00  0.00    +0.039 A 
ATOM     14  C   UNL     1      -2.945  -5.745  -0.014  0.00  0.00    +0.004 A 
ATOM     15  C   UNL     1      -1.798  -5.681   0.756  0.00  0.00    +0.021 A 
ATOM     16  C   UNL     1      -1.026  -4.535   0.758  0.00  0.00    +0.053 A 
ATOM     17 CL   UNL     1       0.417  -4.460   1.720  0.00  0.00    -0.083 Cl
ATOM     18  F   UNL     1      -2.950  -2.449  -1.535  0.00  0.00    -0.205 F 
ENDBRANCH   8  11
ENDBRANCH   1   7
BRANCH   3  19
ATOM     19  C   UNL     1      -4.277   0.037   2.070  0.00  0.00    +0.162 C 
BRANCH  19  20
ATOM     20  C   UNL     1      -4.513   0.016   3.558  0.00  0.00    +0.084 A 
ATOM     21  C   UNL     1      -4.970  -1.082   4.302  0.00  0.00    -0.002 A 
ATOM     22  C   UNL     1      -5.049  -0.701   5.597  0.00  0.00    +0.048 A 
ATOM     23  N   UNL     1      -4.657   0.594   5.671  0.00  0.00    -0.236 N 
ATOM     24  N   UNL     1      -4.322   1.016   4.379  0.00  0.00    -0.169 NA
ATOM     25  C   UNL     1      -5.539  -1.849   6.452  0.00  0.00    +0.056 C 
ATOM     26  C   UNL     1      -6.159  -2.853   5.457  0.00  0.00    +0.011 C 
ATOM     27  C   UNL     1      -5.397  -2.526   4.154  0.00  0.00    +0.039 C 
BRANCH  23  28
ATOM     28  C   UNL     1      -4.593   1.371   6.836  0.00  0.00    +0.066 A 
ATOM     29  C   UNL     1      -5.529   1.190   7.845  0.00  0.00    +0.028 A 
ATOM     30  C   UNL     1      -5.464   1.957   8.991  0.00  0.00    +0.002 A 
ATOM     31  C   UNL     1      -4.468   2.905   9.135  0.00  0.00    +0.000 A 
ATOM     32  C   UNL     1      -3.534   3.088   8.131  0.00  0.00    +0.002 A 
ATOM     33  C   UNL     1      -3.591   2.320   6.985  0.00  0.00    +0.028 A 
ENDBRANCH  23  28
ENDBRANCH  19  20
ENDBRANCH   3  19
TORSDOF 5
