REMARK  Name = ZINC09275029
REMARK  9 active torsions:
REMARK  status: ('A' for Active; 'I' for Inactive)
REMARK    1  A    between atoms: C_1  and  C_2
REMARK    2  A    between atoms: C_5  and  C_8
REMARK    3  A    between atoms: C_11  and  C_12
REMARK    4  A    between atoms: C_11  and  O_23
REMARK    5  A    between atoms: C_13  and  C_22
REMARK    6  A    between atoms: C_20  and  C_21
REMARK    7  A    between atoms: N_28  and  C_29
REMARK    8  A    between atoms: C_29  and  C_30
REMARK    9  A    between atoms: C_30  and  N_65
REMARK                            x       y       z     vdW  Elec       q    Type
REMARK                         _______ _______ _______ _____ _____    ______ ____
ROOT
ATOM      1  C   UNL     1      -5.887   3.699   1.381  0.00  0.00    +0.144 C 
ATOM      2  C   UNL     1      -4.408   3.951   1.200  0.00  0.00    +0.073 C 
ATOM      3  C   UNL     1      -3.652   3.703   0.058  0.00  0.00    +0.151 C 
ATOM      4  C   UNL     1      -3.954   4.489   2.403  0.00  0.00    +0.249 C 
ATOM      5  O   UNL     1      -2.808   4.829   2.646  0.00  0.00    -0.282 OA
ATOM      6  C   UNL     1      -5.103   4.578   3.340  0.00  0.00    +0.288 C 
ATOM      7  O   UNL     1      -5.045   5.005   4.475  0.00  0.00    -0.266 OA
ATOM      8  N   UNL     1      -6.218   4.117   2.747  0.00  0.00    -0.285 N 
ENDROOT
BRANCH   3   9
ATOM      9  C   UNL     1      -2.275   4.001   0.046  0.00  0.00    +0.111 A 
ATOM     10  C   UNL     1      -1.695   5.267   0.048  0.00  0.00    +0.068 A 
ATOM     11  N   UNL     1      -0.383   5.119   0.034  0.00  0.00    -0.232 NA
ATOM     12  C   UNL     1      -0.072   3.821   0.023  0.00  0.00    +0.141 A 
ATOM     13  N   UNL     1      -1.229   3.094   0.030  0.00  0.00    -0.296 N 
ATOM     14  C   UNL     1      -1.194   1.736   0.017  0.00  0.00    +0.093 A 
ATOM     15  C   UNL     1      -0.013   1.076   0.008  0.00  0.00    +0.018 A 
ATOM     16  C   UNL     1       1.192   1.792   0.000  0.00  0.00    +0.008 A 
ATOM     17  C   UNL     1       1.165   3.156   0.008  0.00  0.00    -0.008 A 
ATOM     18  C   UNL     1       2.451   3.941   0.000  0.00  0.00    +0.047 C 
ATOM     19  C   UNL     1      -2.436   6.579   0.062  0.00  0.00    +0.068 C 
ENDBRANCH   3   9
BRANCH   1  24
ATOM     20  C   UNL     1      -7.031  -1.926   0.712  0.00  0.00    +0.044 C 
ATOM     21  C   UNL     1      -6.733  -0.459   0.886  0.00  0.00    -0.050 A 
ATOM     22  C   UNL     1      -6.996   0.427  -0.142  0.00  0.00    +0.004 A 
ATOM     23  C   UNL     1      -6.723   1.772   0.018  0.00  0.00    +0.006 A 
ATOM     24  C   UNL     1      -6.186   2.232   1.206  0.00  0.00    -0.022 A 
ATOM     25  C   UNL     1      -5.917   1.345   2.232  0.00  0.00    +0.006 A 
ATOM     26  C   UNL     1      -6.195   0.000   2.074  0.00  0.00    +0.004 A 
ENDBRANCH   1  24
BRANCH   3  27
ATOM     27  O   UNL     1      -4.239   3.174  -1.040  0.00  0.00    -0.504 OA
ATOM     28  H   UNL     1      -3.555   3.062  -1.762  0.00  0.00    +0.292 HD
ENDBRANCH   3  27
BRANCH   8  29
ATOM     29  C   UNL     1      -7.546   4.050   3.361  0.00  0.00    +0.090 C 
BRANCH  29  30
ATOM     30  C   UNL     1      -8.299   5.354   3.092  0.00  0.00    -0.059 C 
BRANCH  30  36
ATOM     31  C   UNL     1     -10.464   4.268   3.053  0.00  0.00    -0.050 C 
ATOM     32  C   UNL     1     -11.818   4.190   3.763  0.00  0.00    +0.141 C 
ATOM     33  O   UNL     1     -12.432   5.481   3.751  0.00  0.00    -0.383 OA
ATOM     34  C   UNL     1     -11.649   6.498   4.381  0.00  0.00    +0.141 C 
ATOM     35  C   UNL     1     -10.293   6.599   3.677  0.00  0.00    -0.050 C 
ATOM     36  N   UNL     1      -9.629   5.279   3.734  0.00  0.00    +0.384 N 
ATOM     37  H   UNL     1      -9.510   5.008   4.717  0.00  0.00    -0.082 HD
ENDBRANCH  30  36
ENDBRANCH  29  30
ENDBRANCH   8  29
TORSDOF 6
