REMARK  Name = ZINC47131728
REMARK  12 active torsions:
REMARK  status: ('A' for Active; 'I' for Inactive)
REMARK    1  A    between atoms: C_1  and  C_2
REMARK    2  A    between atoms: C_5  and  C_31
REMARK    3  A    between atoms: C_6  and  O_8
REMARK    4  A    between atoms: O_8  and  C_9
REMARK    5  A    between atoms: C_9  and  C_10
REMARK    6  A    between atoms: N_12  and  C_13
REMARK    7  A    between atoms: N_12  and  C_19
REMARK    8  A    between atoms: C_13  and  C_14
REMARK    9  A    between atoms: C_19  and  C_20
REMARK   10  A    between atoms: C_23  and  N_25
REMARK   11  A    between atoms: C_31  and  C_32
REMARK   12  A    between atoms: C_31  and  C_33
REMARK                            x       y       z     vdW  Elec       q    Type
REMARK                         _______ _______ _______ _____ _____    ______ ____
ROOT
ATOM      1  C   UNL     1       0.063  -2.932   4.751  0.00  0.00    +0.254 C 
ATOM      2  O   UNL     1       0.078  -4.133   4.584  0.00  0.00    -0.272 OA
ATOM      3  N   UNL     1       0.062  -2.425   6.000  0.00  0.00    -0.284 N 
ENDROOT
BRANCH   1   4
ATOM      4  C   UNL     1       0.045  -2.006   3.562  0.00  0.00    +0.324 C 
BRANCH   4   5
ATOM      5  O   UNL     1       0.050  -2.776   2.358  0.00  0.00    -0.482 OA
BRANCH   5  11
ATOM      6  C   UNL     1      -0.018   1.503   0.010  0.00  0.00    +0.044 C 
ATOM      7  C   UNL     1       0.002  -0.004   0.002  0.00  0.00    -0.047 A 
ATOM      8  C   UNL     1       0.006  -0.688  -1.200  0.00  0.00    +0.004 A 
ATOM      9  C   UNL     1       0.024  -2.071  -1.211  0.00  0.00    +0.008 A 
ATOM     10  C   UNL     1       0.039  -2.772  -0.020  0.00  0.00    -0.003 A 
ATOM     11  C   UNL     1       0.035  -2.088   1.186  0.00  0.00    +0.125 A 
ATOM     12  C   UNL     1       0.023  -0.700   1.195  0.00  0.00    +0.049 A 
BRANCH  10  13
ATOM     13  C   UNL     1       0.059  -4.279  -0.033  0.00  0.00    +0.016 C 
ATOM     14  C   UNL     1      -1.188  -4.799  -0.753  0.00  0.00    +0.012 C 
ATOM     15  C   UNL     1       1.311  -4.766  -0.764  0.00  0.00    +0.012 C 
ENDBRANCH  10  13
ENDBRANCH   5  11
ENDBRANCH   4   5
ENDBRANCH   1   4
BRANCH   3  16
ATOM     16  C   UNL     1       0.043  -0.974   6.202  0.00  0.00    +0.182 C 
BRANCH  16  17
ATOM     17  C   UNL     1      -1.383  -0.496   6.278  0.00  0.00    +0.122 A 
ATOM     18  C   UNL     1      -2.120  -0.391   7.399  0.00  0.00    +0.046 A 
ATOM     19  C   UNL     1      -3.389   0.095   7.011  0.00  0.00    +0.041 A 
ATOM     20  C   UNL     1      -3.353   0.258   5.676  0.00  0.00    +0.195 A 
ATOM     21  O   UNL     1      -2.134  -0.096   5.238  0.00  0.00    -0.466 OA
ENDBRANCH  16  17
ENDBRANCH   3  16
BRANCH   3  22
ATOM     22  C   UNL     1       0.079  -3.326   7.156  0.00  0.00    +0.182 C 
BRANCH  22  23
ATOM     23  C   UNL     1       1.506  -3.615   7.545  0.00  0.00    +0.125 A 
ATOM     24  C   UNL     1       2.239  -2.909   8.423  0.00  0.00    +0.048 A 
ATOM     25  C   UNL     1       3.510  -3.524   8.488  0.00  0.00    +0.066 A 
ATOM     26  C   UNL     1       3.478  -4.578   7.639  0.00  0.00    +0.189 A 
ATOM     27  O   UNL     1       2.258  -4.629   7.077  0.00  0.00    -0.445 OA
BRANCH  26  28
ATOM     28  N   UNL     1       4.526  -5.461   7.395  0.00  0.00    -0.301 N 
ATOM     29  C   UNL     1       5.813  -5.305   8.086  0.00  0.00    +0.108 C 
ATOM     30  C   UNL     1       6.172  -6.630   8.765  0.00  0.00    +0.019 C 
ATOM     31  C   UNL     1       6.149  -7.754   7.727  0.00  0.00    +0.003 C 
ATOM     32  C   UNL     1       4.741  -7.878   7.139  0.00  0.00    +0.019 C 
ATOM     33  C   UNL     1       4.364  -6.571   6.446  0.00  0.00    +0.108 C 
ENDBRANCH  26  28
ENDBRANCH  22  23
ENDBRANCH   3  22
TORSDOF 9
