REMARK  Name = ZINC37556118
REMARK  5 active torsions:
REMARK  status: ('A' for Active; 'I' for Inactive)
REMARK    1  A    between atoms: C_5  and  N_7
REMARK    2  A    between atoms: N_7  and  S_8
REMARK    3  A    between atoms: S_8  and  C_11
REMARK    4  A    between atoms: C_12  and  N_19
REMARK    5  A    between atoms: N_19  and  N_20
REMARK                            x       y       z     vdW  Elec       q    Type
REMARK                         _______ _______ _______ _____ _____    ______ ____
ROOT
ATOM      1  C   UNL     1       0.131  -2.672  -2.470  0.00  0.00    +0.225 A 
ATOM      2  C   UNL     1      -0.448  -1.680  -3.178  0.00  0.00    +0.179 A 
ATOM      3  N   UNL     1      -0.111  -1.832  -4.470  0.00  0.00    -0.203 NA
ATOM      4  C   UNL     1       0.655  -2.881  -4.589  0.00  0.00    +0.181 A 
ATOM      5  N   UNL     1       0.857  -3.462  -3.366  0.00  0.00    -0.276 N 
ATOM      6  C   UNL     1       1.656  -4.583  -3.333  0.00  0.00    +0.102 A 
ATOM      7  C   UNL     1       2.202  -5.066  -4.448  0.00  0.00    +0.067 A 
ATOM      8  S   UNL     1       1.590  -3.926  -5.680  0.00  0.00    -0.058 S 
ENDROOT
BRANCH   1   9
ATOM      9  S   UNL     1       0.001  -2.922  -0.731  0.00  0.00    +0.092 S 
ATOM     10  O   UNL     1       0.263  -4.300  -0.498  0.00  0.00    -0.148 OA
ATOM     11  O   UNL     1      -1.207  -2.297  -0.320  0.00  0.00    -0.148 OA
BRANCH   9  12
ATOM     12  N   UNL     1       1.236  -2.079  -0.021  0.00  0.00    -0.212 N 
ATOM     13  H   UNL     1       1.917  -2.550   0.485  0.00  0.00    +0.174 HD
BRANCH  12  18
ATOM     14  C   UNL     1       0.195   1.437  -0.293  0.00  0.00    +0.002 A 
ATOM     15  C   UNL     1       1.421   2.066  -0.409  0.00  0.00    +0.003 A 
ATOM     16  C   UNL     1       2.587   1.323  -0.396  0.00  0.00    +0.040 A 
ATOM     17  C   UNL     1       2.530  -0.053  -0.268  0.00  0.00    +0.146 A 
ATOM     18  C   UNL     1       1.298  -0.688  -0.151  0.00  0.00    +0.083 A 
ATOM     19  C   UNL     1       0.131   0.062  -0.164  0.00  0.00    +0.027 A 
ATOM     20  F   UNL     1       3.670  -0.779  -0.256  0.00  0.00    -0.204 F 
ENDBRANCH  12  18
ENDBRANCH   9  12
ENDBRANCH   1   9
BRANCH   2  21
ATOM     21  N   UNL     1      -1.262  -0.664  -2.655  0.00  0.00    -0.265 N 
ATOM     22  H   UNL     1      -1.451  -0.635  -1.704  0.00  0.00    +0.168 HD
BRANCH  21  23
ATOM     23  N   UNL     1      -1.788   0.285  -3.485  0.00  0.00    -0.255 NA
ATOM     24  H   UNL     1      -2.349   0.946  -2.969  0.00  0.00    +0.140 HD
ATOM     25  H   UNL     1      -1.062   0.754  -4.004  0.00  0.00    +0.140 HD
ENDBRANCH  21  23
ENDBRANCH   2  21
TORSDOF 5
