REMARK  Name = ZINC36215817
REMARK  10 active torsions:
REMARK  status: ('A' for Active; 'I' for Inactive)
REMARK    1  A    between atoms: C_1  and  C_2
REMARK    2  A    between atoms: C_7  and  C_16
REMARK    3  A    between atoms: N_9  and  C_10
REMARK    4  A    between atoms: C_10  and  C_11
REMARK    5  A    between atoms: C_11  and  C_12
REMARK    6  A    between atoms: C_12  and  N_13
REMARK    7  A    between atoms: N_13  and  C_14
REMARK    8  A    between atoms: N_13  and  C_15
REMARK    9  A    between atoms: C_17  and  C_19
REMARK   10  A    between atoms: C_21  and  C_24
REMARK                            x       y       z     vdW  Elec       q    Type
REMARK                         _______ _______ _______ _____ _____    ______ ____
ROOT
ATOM      1  C   UNL     1      -0.535   1.531   0.001  0.00  0.00    +0.026 C 
ATOM      2  C   UNL     1      -0.405   0.007  -0.042  0.00  0.00    +0.071 C 
ATOM      3  C   UNL     1      -1.794  -0.629   0.088  0.00  0.00    +0.126 C 
ATOM      4  N   UNL     1      -1.632  -2.087   0.195  0.00  0.00    -0.293 N 
ATOM      5  C   UNL     1      -0.692  -2.611   1.197  0.00  0.00    +0.126 C 
ATOM      6  C   UNL     1       0.653  -1.897   1.023  0.00  0.00    +0.071 C 
ATOM      7  N   UNL     1       0.443  -0.444   1.069  0.00  0.00    -0.294 NA
ATOM      8  C   UNL     1       1.601  -2.313   2.150  0.00  0.00    +0.026 C 
ATOM      9  C   UNL     1      -2.327  -2.920  -0.604  0.00  0.00    +0.268 C 
ATOM     10  O   UNL     1      -2.263  -4.121  -0.432  0.00  0.00    -0.268 OA
ENDROOT
BRANCH   9  11
ATOM     11  C   UNL     1      -3.171  -2.371  -1.693  0.00  0.00    +0.168 A 
ATOM     12  C   UNL     1      -4.054  -3.108  -2.508  0.00  0.00    +0.089 A 
ATOM     13  C   UNL     1      -4.639  -2.241  -3.383  0.00  0.00    +0.203 A 
ATOM     14  O   UNL     1      -4.151  -1.011  -3.134  0.00  0.00    -0.351 OA
ATOM     15  N   UNL     1      -3.231  -1.113  -2.063  0.00  0.00    -0.073 NA
BRANCH  13  16
ATOM     16  C   UNL     1      -5.628  -2.587  -4.415  0.00  0.00    +0.172 A 
ATOM     17  C   UNL     1      -6.208  -1.719  -5.292  0.00  0.00    +0.053 A 
ATOM     18  C   UNL     1      -7.083  -2.476  -6.091  0.00  0.00    +0.042 A 
ATOM     19  C   UNL     1      -6.998  -3.755  -5.671  0.00  0.00    +0.196 A 
ATOM     20  O   UNL     1      -6.115  -3.819  -4.662  0.00  0.00    -0.460 OA
ENDBRANCH  13  16
ENDBRANCH   9  11
BRANCH   7  21
ATOM     21  C   UNL     1       1.725   0.273   1.078  0.00  0.00    +0.083 C 
BRANCH  21  22
ATOM     22  C   UNL     1       2.509  -0.068  -0.190  0.00  0.00    -0.003 C 
BRANCH  22  23
ATOM     23  C   UNL     1       3.892   0.583  -0.126  0.00  0.00    -0.078 C 
BRANCH  23  24
ATOM     24  N   UNL     1       4.646   0.255  -1.343  0.00  0.00    +0.376 N 
ATOM     25  C   UNL     1       3.984   0.861  -2.506  0.00  0.00    -0.097 C 
ATOM     26  C   UNL     1       6.013   0.778  -1.229  0.00  0.00    -0.097 C 
ATOM     27  H   UNL     1       4.678  -0.747  -1.459  0.00  0.00    -0.083 HD
ENDBRANCH  23  24
ENDBRANCH  22  23
ENDBRANCH  21  22
ENDBRANCH   7  21
TORSDOF 6
