REMARK  Name = ZINC09444545
REMARK  12 active torsions:
REMARK  status: ('A' for Active; 'I' for Inactive)
REMARK    1  A    between atoms: C_1  and  C_2
REMARK    2  A    between atoms: C_2  and  O_3
REMARK    3  A    between atoms: O_3  and  C_4
REMARK    4  A    between atoms: C_4  and  C_6
REMARK    5  A    between atoms: C_7  and  C_32
REMARK    6  A    between atoms: C_11  and  C_20
REMARK    7  A    between atoms: C_12  and  O_19
REMARK    8  A    between atoms: C_20  and  N_61
REMARK    9  A    between atoms: C_24  and  C_27
REMARK   10  A    between atoms: C_27  and  O_29
REMARK   11  A    between atoms: O_29  and  C_30
REMARK   12  A    between atoms: C_30  and  C_31
REMARK                            x       y       z     vdW  Elec       q    Type
REMARK                         _______ _______ _______ _____ _____    ______ ____
ROOT
ATOM      1  C   UNL     1       2.778   4.247   2.621  0.00  0.00    +0.108 A 
ATOM      2  C   UNL     1       3.778   4.685   3.437  0.00  0.00    +0.117 A 
ATOM      3  O   UNL     1       4.859   4.974   2.705  0.00  0.00    -0.459 OA
ATOM      4  C   UNL     1       4.638   4.749   1.394  0.00  0.00    +0.144 A 
ATOM      5  C   UNL     1       3.331   4.288   1.253  0.00  0.00    +0.040 A 
ATOM      6  C   UNL     1       2.815   3.961  -0.010  0.00  0.00    -0.010 A 
ATOM      7  C   UNL     1       3.579   4.097  -1.129  0.00  0.00    +0.127 A 
ATOM      8  C   UNL     1       4.908   4.567  -1.026  0.00  0.00    +0.027 A 
ATOM      9  C   UNL     1       5.442   4.896   0.243  0.00  0.00    +0.028 A 
ATOM     10  C   UNL     1       6.763   5.362   0.337  0.00  0.00    +0.012 A 
ATOM     11  C   UNL     1       7.513   5.493  -0.792  0.00  0.00    +0.001 A 
ATOM     12  C   UNL     1       6.988   5.170  -2.041  0.00  0.00    +0.001 A 
ATOM     13  C   UNL     1       5.711   4.715  -2.167  0.00  0.00    +0.012 A 
ATOM     14  C   UNL     1       3.681   4.821   4.934  0.00  0.00    +0.087 C 
ENDROOT
BRANCH   1  15
ATOM     15  C   UNL     1       1.427   3.827   3.021  0.00  0.00    +0.343 C 
ATOM     16  O   UNL     1       0.511   4.625   2.995  0.00  0.00    -0.245 OA
BRANCH  15  17
ATOM     17  O   UNL     1       1.205   2.558   3.415  0.00  0.00    -0.461 OA
BRANCH  17  19
ATOM     18  C   UNL     1      -0.153   0.800   4.413  0.00  0.00    +0.048 C 
ATOM     19  C   UNL     1      -0.126   2.242   3.904  0.00  0.00    +0.229 C 
ENDBRANCH  17  19
ENDBRANCH  15  17
ENDBRANCH   1  15
BRANCH   7  20
ATOM     20  O   UNL     1       3.063   3.781  -2.346  0.00  0.00    -0.506 OA
ATOM     21  H   UNL     1       2.628   4.520  -2.792  0.00  0.00    +0.292 HD
ENDBRANCH   7  20
BRANCH   6  22
ATOM     22  C   UNL     1       1.399   3.460  -0.130  0.00  0.00    -0.039 C 
BRANCH  22  28
ATOM     23  C   UNL     1       0.882   5.578  -1.182  0.00  0.00    -0.078 C 
ATOM     24  C   UNL     1      -0.011   6.817  -1.089  0.00  0.00    -0.018 C 
ATOM     25  C   UNL     1      -1.471   6.405  -1.301  0.00  0.00    +0.011 C 
ATOM     26  C   UNL     1      -1.853   5.354  -0.256  0.00  0.00    +0.081 C 
ATOM     27  C   UNL     1      -0.906   4.157  -0.374  0.00  0.00    -0.064 C 
ATOM     28  N   UNL     1       0.478   4.616  -0.135  0.00  0.00    +0.383 N 
ATOM     29  H   UNL     1       0.522   5.081   0.779  0.00  0.00    -0.081 HD
BRANCH  26  30
ATOM     30  C   UNL     1      -3.270   4.899  -0.495  0.00  0.00    +0.308 C 
ATOM     31  O   UNL     1      -3.500   3.737  -0.735  0.00  0.00    -0.251 OA
BRANCH  30  32
ATOM     32  O   UNL     1      -4.277   5.785  -0.442  0.00  0.00    -0.465 OA
BRANCH  32  33
ATOM     33  C   UNL     1      -5.616   5.277  -0.682  0.00  0.00    +0.229 C 
ATOM     34  C   UNL     1      -6.623   6.424  -0.580  0.00  0.00    +0.048 C 
ENDBRANCH  32  33
ENDBRANCH  30  32
ENDBRANCH  26  30
ENDBRANCH  22  28
ENDBRANCH   6  22
TORSDOF 9
