REMARK  Name = ZINC11012909
REMARK  9 active torsions:
REMARK  status: ('A' for Active; 'I' for Inactive)
REMARK    1  A    between atoms: C_1  and  N_49
REMARK    2  A    between atoms: C_2  and  C_3
REMARK    3  A    between atoms: C_2  and  N_49
REMARK    4  A    between atoms: C_5  and  N_10
REMARK    5  A    between atoms: C_13  and  C_14
REMARK    6  A    between atoms: C_13  and  N_49
REMARK    7  A    between atoms: N_16  and  C_17
REMARK    8  A    between atoms: C_17  and  C_19
REMARK    9  A    between atoms: C_17  and  C_26
REMARK                            x       y       z     vdW  Elec       q    Type
REMARK                         _______ _______ _______ _____ _____    ______ ____
ROOT
ATOM      1  C   UNL     1       2.209  -2.483   2.177  0.00  0.00    +0.197 C 
ATOM      2  O   UNL     1       2.986  -1.669   2.628  0.00  0.00    -0.278 OA
ATOM      3  N   UNL     1       1.929  -2.490   0.859  0.00  0.00    -0.306 N 
ATOM      4  H   UNL     1       1.307  -3.141   0.498  0.00  0.00    +0.150 HD
ENDROOT
BRANCH   1   5
ATOM      5  C   UNL     1       1.555  -3.487   3.091  0.00  0.00    +0.019 C 
BRANCH   5   7
ATOM      6  C   UNL     1       1.559  -1.977   4.984  0.00  0.00    -0.095 C 
ATOM      7  N   UNL     1       2.050  -3.272   4.467  0.00  0.00    +0.386 N 
ATOM      8  H   UNL     1       3.076  -3.258   4.454  0.00  0.00    -0.081 HD
BRANCH   7   9
ATOM      9  C   UNL     1       1.596  -4.371   5.345  0.00  0.00    -0.041 C 
BRANCH   9  10
ATOM     10  C   UNL     1       2.289  -4.248   6.677  0.00  0.00    -0.043 A 
ATOM     11  C   UNL     1       1.593  -3.789   7.779  0.00  0.00    +0.036 A 
ATOM     12  C   UNL     1       2.228  -3.681   9.002  0.00  0.00    +0.126 A 
ATOM     13  C   UNL     1       3.563  -4.022   9.121  0.00  0.00    +0.034 A 
ATOM     14  C   UNL     1       4.261  -4.475   8.019  0.00  0.00    +0.022 A 
ATOM     15  C   UNL     1       3.625  -4.588   6.795  0.00  0.00    +0.042 A 
ATOM     16 CL   UNL     1       4.502  -5.158   5.410  0.00  0.00    -0.083 Cl
BRANCH  12  17
ATOM     17  N   UNL     1       1.480  -3.195  10.184  0.00  0.00    +0.056 N 
ATOM     18  O   UNL     1       2.041  -3.095  11.260  0.00  0.00    -0.126 OA
ATOM     19  O   UNL     1       0.304  -2.895  10.079  0.00  0.00    -0.126 OA
ENDBRANCH  12  17
ENDBRANCH   9  10
ENDBRANCH   7   9
ENDBRANCH   5   7
ENDBRANCH   1   5
BRANCH   3  20
ATOM     20  C   UNL     1       2.565  -1.514  -0.030  0.00  0.00    +0.140 C 
BRANCH  20  21
ATOM     21  C   UNL     1       2.606  -2.064  -1.433  0.00  0.00    -0.022 A 
ATOM     22  C   UNL     1       1.527  -2.771  -1.929  0.00  0.00    +0.008 A 
ATOM     23  C   UNL     1       1.561  -3.271  -3.217  0.00  0.00    +0.038 A 
ATOM     24  C   UNL     1       2.682  -3.073  -4.006  0.00  0.00    +0.123 A 
ATOM     25  C   UNL     1       3.764  -2.369  -3.506  0.00  0.00    +0.038 A 
ATOM     26  C   UNL     1       3.725  -1.865  -2.220  0.00  0.00    +0.008 A 
ATOM     27  F   UNL     1       2.718  -3.566  -5.264  0.00  0.00    -0.205 F 
ENDBRANCH  20  21
BRANCH  20  28
ATOM     28  C   UNL     1       1.773  -0.232  -0.016  0.00  0.00    +0.014 A 
ATOM     29  C   UNL     1       2.220   1.048  -0.013  0.00  0.00    +0.013 A 
ATOM     30  C   UNL     1       1.300   2.079   0.001  0.00  0.00    +0.008 A 
ATOM     31  C   UNL     1      -0.022   1.781   0.012  0.00  0.00    +0.045 A 
ATOM     32  S   UNL     1       0.002  -0.004   0.002  0.00  0.00    -0.099 S 
ENDBRANCH  20  28
ENDBRANCH   3  20
TORSDOF 8
