REMARK  Name = ZINC40147588
REMARK  5 active torsions:
REMARK  status: ('A' for Active; 'I' for Inactive)
REMARK    1  A    between atoms: C_3  and  N_26
REMARK    2  A    between atoms: C_6  and  C_7
REMARK    3  A    between atoms: N_8  and  N_9
REMARK    4  A    between atoms: C_14  and  C_17
REMARK    5  A    between atoms: C_17  and  C_18
REMARK                            x       y       z     vdW  Elec       q    Type
REMARK                         _______ _______ _______ _____ _____    ______ ____
ROOT
ATOM      1  N   UNL     1      -2.277  -2.745   0.010  0.00  0.00    -0.127 NA
ATOM      2  C   UNL     1      -2.251  -4.113   0.002  0.00  0.00    +0.183 C 
ATOM      3  N   UNL     1      -1.156  -4.908  -0.007  0.00  0.00    -0.263 N 
ATOM      4  C   UNL     1      -1.230  -6.232  -0.013  0.00  0.00    +0.232 C 
ATOM      5  O   UNL     1      -0.257  -6.955  -0.022  0.00  0.00    -0.274 OA
ATOM      6  C   UNL     1      -2.662  -6.748  -0.009  0.00  0.00    +0.144 C 
ATOM      7  S   UNL     1      -3.574  -5.152   0.010  0.00  0.00    -0.075 S 
ATOM      8  H   UNL     1      -0.280  -4.491  -0.009  0.00  0.00    +0.157 HD
ENDROOT
BRANCH   1  10
ATOM      9  C   UNL     1      -1.198  -0.728   0.010  0.00  0.00    +0.143 C 
ATOM     10  N   UNL     1      -1.172  -2.079   0.003  0.00  0.00    -0.155 NA
BRANCH   9  16
ATOM     11  C   UNL     1      -0.017   1.412   0.010  0.00  0.00    +0.012 A 
ATOM     12  C   UNL     1       1.159   2.103   0.002  0.00  0.00    +0.033 A 
ATOM     13  C   UNL     1       2.371   1.424  -0.013  0.00  0.00    +0.126 A 
ATOM     14  C   UNL     1       2.405   0.035  -0.021  0.00  0.00    +0.033 A 
ATOM     15  C   UNL     1       1.245  -0.682  -0.014  0.00  0.00    +0.012 A 
ATOM     16  C   UNL     1       0.002  -0.004   0.002  0.00  0.00    -0.005 A 
BRANCH  13  17
ATOM     17  N   UNL     1       3.639   2.189  -0.022  0.00  0.00    +0.056 N 
ATOM     18  O   UNL     1       3.615   3.506  -0.015  0.00  0.00    -0.126 OA
ATOM     19  O   UNL     1       4.792   1.552  -0.037  0.00  0.00    -0.126 OA
ENDBRANCH  13  17
ENDBRANCH   9  16
ENDBRANCH   1  10
BRANCH   6  20
ATOM     20  C   UNL     1      -2.966  -7.554  -1.274  0.00  0.00    +0.060 C 
BRANCH  20  21
ATOM     21  C   UNL     1      -4.348  -8.147  -1.171  0.00  0.00    -0.026 A 
ATOM     22  C   UNL     1      -4.513  -9.436  -0.701  0.00  0.00    +0.025 A 
ATOM     23  C   UNL     1      -5.782  -9.980  -0.607  0.00  0.00    +0.041 A 
ATOM     24  C   UNL     1      -6.885  -9.234  -0.983  0.00  0.00    +0.021 A 
ATOM     25  C   UNL     1      -6.719  -7.945  -1.453  0.00  0.00    +0.022 A 
ATOM     26  C   UNL     1      -5.451  -7.399  -1.542  0.00  0.00    +0.044 A 
ATOM     27 CL   UNL     1      -5.243  -5.777  -2.125  0.00  0.00    -0.083 Cl
ATOM     28 CL   UNL     1      -5.990 -11.600  -0.017  0.00  0.00    -0.084 Cl
ENDBRANCH  20  21
ENDBRANCH   6  20
TORSDOF 5
