REMARK  Name = ZINC08635465
REMARK  8 active torsions:
REMARK  status: ('A' for Active; 'I' for Inactive)
REMARK    1  A    between atoms: C_1  and  N_2
REMARK    2  A    between atoms: C_3  and  C_17
REMARK    3  A    between atoms: C_5  and  C_7
REMARK    4  A    between atoms: C_25  and  C_27
REMARK    5  A    between atoms: C_27  and  N_28
REMARK    6  A    between atoms: C_29  and  C_31
REMARK    7  A    between atoms: C_31  and  O_32
REMARK    8  A    between atoms: O_32  and  C_33
REMARK                            x       y       z     vdW  Elec       q    Type
REMARK                         _______ _______ _______ _____ _____    ______ ____
ROOT
ATOM      1  C   UNL     1      -0.218   1.712  -2.240  0.00  0.00    +0.024 C 
ATOM      2  C   UNL     1      -0.576   1.626  -0.753  0.00  0.00    -0.068 C 
ATOM      3  C   UNL     1       1.758   1.775  -0.126  0.00  0.00    -0.078 C 
ATOM      4  C   UNL     1       2.183   1.865  -1.594  0.00  0.00    -0.015 C 
ATOM      5  C   UNL     1       1.171   1.096  -2.451  0.00  0.00    -0.007 C 
ATOM      6  C   UNL     1       1.136  -0.362  -1.977  0.00  0.00    -0.010 C 
ATOM      7  C   UNL     1       0.740  -0.392  -0.498  0.00  0.00    -0.051 C 
ATOM      8  N   UNL     1       0.518   0.982   0.004  0.00  0.00    +0.383 N 
ATOM      9  H   UNL     1       0.254   0.935   0.996  0.00  0.00    -0.081 HD
ENDROOT
BRANCH   1  12
ATOM     10  C   UNL     1      -0.021   0.984  -5.243  0.00  0.00    +0.172 C 
ATOM     11  N   UNL     1      -1.138   0.641  -4.359  0.00  0.00    -0.271 N 
ATOM     12  C   UNL     1      -1.237   0.952  -3.049  0.00  0.00    +0.041 A 
ATOM     13  C   UNL     1      -2.406   0.456  -2.590  0.00  0.00    +0.053 A 
ATOM     14  C   UNL     1      -3.059  -0.178  -3.665  0.00  0.00    +0.093 A 
ATOM     15  N   UNL     1      -2.289  -0.067  -4.728  0.00  0.00    -0.171 NA
BRANCH  14  16
ATOM     16  C   UNL     1      -4.377  -0.857  -3.609  0.00  0.00    +0.003 A 
ATOM     17  C   UNL     1      -5.137  -0.805  -2.429  0.00  0.00    +0.011 A 
ATOM     18  C   UNL     1      -6.346  -1.418  -2.352  0.00  0.00    +0.009 A 
ATOM     19  C   UNL     1      -6.853  -2.115  -3.463  0.00  0.00    -0.018 A 
ATOM     20  C   UNL     1      -8.102  -2.757  -3.409  0.00  0.00    +0.008 A 
ATOM     21  C   UNL     1      -8.566  -3.424  -4.501  0.00  0.00    +0.001 A 
ATOM     22  C   UNL     1      -7.820  -3.481  -5.678  0.00  0.00    +0.001 A 
ATOM     23  C   UNL     1      -6.607  -2.872  -5.768  0.00  0.00    +0.008 A 
ATOM     24  C   UNL     1      -6.095  -2.173  -4.660  0.00  0.00    -0.017 A 
ATOM     25  C   UNL     1      -4.849  -1.529  -4.721  0.00  0.00    +0.018 A 
ENDBRANCH  14  16
ENDBRANCH   1  12
BRANCH   7  26
ATOM     26  C   UNL     1      -0.549  -1.197  -0.330  0.00  0.00    +0.089 C 
BRANCH  26  27
ATOM     27  N   UNL     1      -0.997  -1.119   1.063  0.00  0.00    -0.314 N 
ATOM     28  C   UNL     1      -2.120  -1.757   1.447  0.00  0.00    +0.251 C 
ATOM     29  O   UNL     1      -2.761  -2.396   0.639  0.00  0.00    -0.272 OA
ATOM     30  H   UNL     1      -0.484  -0.608   1.709  0.00  0.00    +0.149 HD
BRANCH  28  31
ATOM     31  C   UNL     1      -2.580  -1.676   2.880  0.00  0.00    +0.324 C 
BRANCH  31  32
ATOM     32  O   UNL     1      -3.785  -2.429   3.036  0.00  0.00    -0.483 OA
BRANCH  32  33
ATOM     33  C   UNL     1      -4.336  -2.460   4.278  0.00  0.00    +0.121 A 
ATOM     34  C   UNL     1      -3.727  -1.784   5.325  0.00  0.00    +0.045 A 
ATOM     35  C   UNL     1      -4.292  -1.813   6.586  0.00  0.00    +0.004 A 
ATOM     36  C   UNL     1      -5.458  -2.522   6.806  0.00  0.00    +0.000 A 
ATOM     37  C   UNL     1      -6.064  -3.201   5.765  0.00  0.00    +0.004 A 
ATOM     38  C   UNL     1      -5.506  -3.171   4.501  0.00  0.00    +0.045 A 
ENDBRANCH  32  33
ENDBRANCH  31  32
ENDBRANCH  28  31
ENDBRANCH  26  27
ENDBRANCH   7  26
TORSDOF 7
