REMARK  Name = ZINC36341079
REMARK  7 active torsions:
REMARK  status: ('A' for Active; 'I' for Inactive)
REMARK    1  A    between atoms: C_1  and  C_2
REMARK    2  A    between atoms: C_5  and  C_9
REMARK    3  A    between atoms: C_7  and  C_8
REMARK    4  A    between atoms: C_12  and  C_15
REMARK    5  A    between atoms: C_22  and  C_24
REMARK    6  A    between atoms: C_24  and  N_25
REMARK    7  A    between atoms: C_30  and  C_32
REMARK                            x       y       z     vdW  Elec       q    Type
REMARK                         _______ _______ _______ _____ _____    ______ ____
ROOT
ATOM      1  C   UNL     1       0.058  -4.248  -0.021  0.00  0.00    +0.069 C 
ATOM      2  N   UNL     1       0.068  -4.997   1.026  0.00  0.00    -0.181 NA
ATOM      3  N   UNL     1       0.085  -6.363   0.750  0.00  0.00    -0.187 N 
ATOM      4  C   UNL     1       0.088  -6.553  -0.709  0.00  0.00    +0.137 C 
ATOM      5  C   UNL     1       0.063  -5.114  -1.261  0.00  0.00    +0.087 C 
ATOM      6  C   UNL     1       0.098  -7.348   1.669  0.00  0.00    +0.219 C 
ATOM      7  O   UNL     1       0.113  -8.508   1.315  0.00  0.00    -0.276 OA
ENDROOT
BRANCH   1  12
ATOM      8  C   UNL     1      -0.018   1.503   0.010  0.00  0.00    +0.044 C 
ATOM      9  C   UNL     1       0.002  -0.004   0.002  0.00  0.00    -0.048 A 
ATOM     10  C   UNL     1       0.006  -0.686  -1.202  0.00  0.00    +0.004 A 
ATOM     11  C   UNL     1       0.024  -2.065  -1.217  0.00  0.00    +0.010 A 
ATOM     12  C   UNL     1       0.039  -2.773  -0.013  0.00  0.00    -0.002 A 
ATOM     13  C   UNL     1       0.036  -2.078   1.198  0.00  0.00    +0.013 A 
ATOM     14  C   UNL     1       0.023  -0.699   1.198  0.00  0.00    -0.047 A 
ATOM     15  C   UNL     1       0.025   0.053   2.504  0.00  0.00    +0.044 C 
ENDBRANCH   1  12
BRANCH   4  16
ATOM     16  C   UNL     1      -1.140  -7.308  -1.148  0.00  0.00    -0.025 A 
ATOM     17  C   UNL     1      -2.359  -7.054  -0.548  0.00  0.00    +0.007 A 
ATOM     18  C   UNL     1      -3.485  -7.746  -0.950  0.00  0.00    +0.020 A 
ATOM     19  C   UNL     1      -3.393  -8.695  -1.952  0.00  0.00    +0.041 A 
ATOM     20  C   UNL     1      -2.172  -8.949  -2.552  0.00  0.00    +0.020 A 
ATOM     21  C   UNL     1      -1.048  -8.252  -2.154  0.00  0.00    +0.007 A 
ATOM     22 CL   UNL     1      -4.807  -9.566  -2.457  0.00  0.00    -0.084 Cl
ENDBRANCH   4  16
BRANCH   6  23
ATOM     23  C   UNL     1       0.093  -7.009   3.138  0.00  0.00    +0.021 C 
BRANCH  23  24
ATOM     24  N   UNL     1       0.109  -8.249   3.926  0.00  0.00    +0.387 N 
ATOM     25  C   UNL     1       1.369  -8.962   3.688  0.00  0.00    -0.078 C 
ATOM     26  C   UNL     1       1.357 -10.293   4.444  0.00  0.00    -0.019 C 
ATOM     27  C   UNL     1       1.198 -10.021   5.943  0.00  0.00    -0.003 C 
ATOM     28  C   UNL     1      -0.083  -9.212   6.171  0.00  0.00    -0.016 C 
ATOM     29  C   UNL     1      -0.017  -7.921   5.352  0.00  0.00    -0.071 C 
ATOM     30  C   UNL     1      -1.294  -7.109   5.577  0.00  0.00    -0.013 C 
ATOM     31  H   UNL     1      -0.665  -8.834   3.647  0.00  0.00    -0.081 HD
ENDBRANCH  23  24
ENDBRANCH   6  23
TORSDOF 4
