REMARK  Name = ZINC09312264
REMARK  15 active torsions:
REMARK  status: ('A' for Active; 'I' for Inactive)
REMARK    1  A    between atoms: C_1  and  C_2
REMARK    2  A    between atoms: C_2  and  N_73
REMARK    3  A    between atoms: C_3  and  C_4
REMARK    4  A    between atoms: C_3  and  N_73
REMARK    5  A    between atoms: C_5  and  C_6
REMARK    6  A    between atoms: C_5  and  N_73
REMARK    7  A    between atoms: C_6  and  C_7
REMARK    8  A    between atoms: C_7  and  N_8
REMARK    9  A    between atoms: C_9  and  C_29
REMARK   10  A    between atoms: C_12  and  C_13
REMARK   11  A    between atoms: C_12  and  O_24
REMARK   12  A    between atoms: C_20  and  C_23
REMARK   13  A    between atoms: C_32  and  O_35
REMARK   14  A    between atoms: O_35  and  C_36
REMARK   15  A    between atoms: C_36  and  C_37
REMARK                            x       y       z     vdW  Elec       q    Type
REMARK                         _______ _______ _______ _____ _____    ______ ____
ROOT
ATOM      1  N   UNL     1      -3.437  -1.933  -0.637  0.00  0.00    -0.284 N 
ATOM      2  C   UNL     1      -2.366  -0.990  -0.302  0.00  0.00    +0.144 C 
ATOM      3  C   UNL     1      -1.062  -1.725  -0.510  0.00  0.00    +0.071 C 
ATOM      4  C   UNL     1       0.211  -1.226  -0.319  0.00  0.00    +0.133 C 
ATOM      5  C   UNL     1      -1.406  -3.019  -0.931  0.00  0.00    +0.249 C 
ATOM      6  O   UNL     1      -0.625  -3.915  -1.196  0.00  0.00    -0.282 OA
ATOM      7  C   UNL     1      -2.890  -3.107  -0.997  0.00  0.00    +0.288 C 
ATOM      8  O   UNL     1      -3.514  -4.094  -1.327  0.00  0.00    -0.266 OA
ENDROOT
BRANCH   4   9
ATOM      9  C   UNL     1       1.377  -2.115  -0.445  0.00  0.00    +0.017 A 
ATOM     10  C   UNL     1       1.397  -3.351   0.212  0.00  0.00    +0.015 A 
ATOM     11  C   UNL     1       2.482  -4.183   0.085  0.00  0.00    +0.046 A 
ATOM     12  C   UNL     1       3.580  -3.802  -0.690  0.00  0.00    +0.124 A 
ATOM     13  C   UNL     1       3.561  -2.566  -1.331  0.00  0.00    -0.002 A 
ATOM     14  C   UNL     1       2.479  -1.730  -1.220  0.00  0.00    +0.019 A 
ATOM     15  C   UNL     1       4.881  -2.426  -2.064  0.00  0.00    +0.083 C 
ATOM     16  C   UNL     1       5.730  -3.540  -1.407  0.00  0.00    +0.175 C 
ATOM     17  O   UNL     1       4.736  -4.470  -0.947  0.00  0.00    -0.488 OA
ATOM     18  C   UNL     1       6.536  -2.983  -0.231  0.00  0.00    +0.052 C 
ENDBRANCH   4   9
BRANCH   2  19
ATOM     19  C   UNL     1      -2.489  -0.553   1.135  0.00  0.00    -0.022 A 
ATOM     20  C   UNL     1      -2.869  -1.464   2.103  0.00  0.00    +0.009 A 
ATOM     21  C   UNL     1      -2.977  -1.068   3.422  0.00  0.00    +0.046 A 
ATOM     22  C   UNL     1      -2.714   0.248   3.773  0.00  0.00    +0.121 A 
ATOM     23  C   UNL     1      -2.338   1.162   2.798  0.00  0.00    +0.046 A 
ATOM     24  C   UNL     1      -2.227   0.759   1.482  0.00  0.00    +0.009 A 
BRANCH  22  25
ATOM     25  O   UNL     1      -2.825   0.642   5.069  0.00  0.00    -0.488 OA
BRANCH  25  26
ATOM     26  C   UNL     1      -3.216  -0.352   6.018  0.00  0.00    +0.256 C 
BRANCH  26  27
ATOM     27  C   UNL     1      -3.285   0.265   7.391  0.00  0.00    +0.006 C 
ATOM     28  C   UNL     1      -4.306   0.011   8.172  0.00  0.00    +0.007 C 
ENDBRANCH  26  27
ENDBRANCH  25  26
ENDBRANCH  22  25
ENDBRANCH   2  19
BRANCH   4  29
ATOM     29  O   UNL     1       0.387   0.078  -0.016  0.00  0.00    -0.506 OA
ATOM     30  H   UNL     1       1.363   0.268   0.088  0.00  0.00    +0.292 HD
ENDBRANCH   4  29
BRANCH   1  31
ATOM     31  C   UNL     1      -4.873  -1.646  -0.582  0.00  0.00    +0.107 C 
BRANCH  31  32
ATOM     32  C   UNL     1      -5.408  -1.984   0.811  0.00  0.00    +0.000 C 
BRANCH  32  33
ATOM     33  C   UNL     1      -6.907  -1.683   0.869  0.00  0.00    -0.077 C 
BRANCH  33  34
ATOM     34  N   UNL     1      -7.400  -1.992   2.227  0.00  0.00    +0.379 N 
ATOM     35  H   UNL     1      -6.971  -2.869   2.546  0.00  0.00    -0.082 HD
BRANCH  34  37
ATOM     36  C   UNL     1      -7.346  -1.352   4.588  0.00  0.00    -0.017 C 
ATOM     37  C   UNL     1      -7.025  -0.908   3.160  0.00  0.00    -0.082 C 
ENDBRANCH  34  37
BRANCH  34  38
ATOM     38  C   UNL     1      -8.869  -2.156   2.207  0.00  0.00    -0.082 C 
ATOM     39  C   UNL     1      -9.200  -3.535   1.634  0.00  0.00    -0.017 C 
ENDBRANCH  34  38
ENDBRANCH  33  34
ENDBRANCH  32  33
ENDBRANCH  31  32
ENDBRANCH   1  31
TORSDOF 12
