REMARK  Name = ZINC31356837
REMARK  7 active torsions:
REMARK  status: ('A' for Active; 'I' for Inactive)
REMARK    1  A    between atoms: N_13  and  C_14
REMARK    2  A    between atoms: C_14  and  C_15
REMARK    3  A    between atoms: C_15  and  C_17
REMARK    4  A    between atoms: C_15  and  O_27
REMARK    5  A    between atoms: C_17  and  S_18
REMARK    6  A    between atoms: S_18  and  C_19
REMARK    7  A    between atoms: C_23  and  N_25
REMARK                            x       y       z     vdW  Elec       q    Type
REMARK                         _______ _______ _______ _____ _____    ______ ____
ROOT
ATOM      1  C   UNL     1       1.838   3.745   1.448  0.00  0.00    +0.144 C 
ENDROOT
BRANCH   1   2
ATOM      2  O   UNL     1       2.918   3.047   2.072  0.00  0.00    -0.389 OA
ATOM      3  H   UNL     1       3.179   3.262   3.119  0.00  0.00    +0.210 HD
ENDBRANCH   1   2
BRANCH   1   4
ATOM      4  C   UNL     1       1.686   3.263   0.004  0.00  0.00    +0.154 C 
BRANCH   4  17
ATOM      5  C   UNL     1      -2.395  -0.042   0.025  0.00  0.00    +0.001 A 
ATOM      6  C   UNL     1      -2.416   1.344   0.033  0.00  0.00    +0.002 A 
ATOM      7  C   UNL     1      -1.240   2.063   0.030  0.00  0.00    +0.026 A 
ATOM      8  C   UNL     1      -0.017   1.398   0.010  0.00  0.00    +0.050 A 
ATOM      9  C   UNL     1       0.002  -0.004   0.002  0.00  0.00    +0.008 A 
ATOM     10  C   UNL     1      -1.194  -0.718   0.010  0.00  0.00    +0.010 A 
ATOM     11  C   UNL     1       1.421  -0.403  -0.014  0.00  0.00    +0.008 A 
ATOM     12  C   UNL     1       2.070  -1.636  -0.026  0.00  0.00    +0.010 A 
ATOM     13  C   UNL     1       3.447  -1.685  -0.040  0.00  0.00    +0.001 A 
ATOM     14  C   UNL     1       4.187  -0.512  -0.041  0.00  0.00    +0.002 A 
ATOM     15  C   UNL     1       3.558   0.714  -0.029  0.00  0.00    +0.026 A 
ATOM     16  C   UNL     1       2.169   0.784  -0.014  0.00  0.00    +0.050 A 
ATOM     17  N   UNL     1       1.290   1.852  -0.000  0.00  0.00    -0.337 N 
ENDBRANCH   4  17
ENDBRANCH   1   4
BRANCH   1  18
ATOM     18  C   UNL     1       2.130   5.247   1.455  0.00  0.00    +0.110 C 
BRANCH  18  19
ATOM     19  S   UNL     1       2.310   5.818   3.163  0.00  0.00    -0.083 S 
BRANCH  19  20
ATOM     20  C   UNL     1       2.630   7.528   2.882  0.00  0.00    +0.192 A 
ATOM     21  N   UNL     1       2.673   7.980   1.638  0.00  0.00    -0.207 NA
ATOM     22  C   UNL     1       2.907   9.267   1.388  0.00  0.00    +0.122 A 
ATOM     23  C   UNL     1       3.119  10.136   2.454  0.00  0.00    +0.086 A 
ATOM     24  C   UNL     1       3.072   9.624   3.747  0.00  0.00    +0.122 A 
ATOM     25  N   UNL     1       2.827   8.327   3.921  0.00  0.00    -0.207 NA
ATOM     26  N   UNL     1       2.945   9.733   0.083  0.00  0.00    -0.343 N 
ATOM     27  H   UNL     1       3.139  10.797  -0.116  0.00  0.00    +0.144 HD
ATOM     28  H   UNL     1       2.780   9.039  -0.754  0.00  0.00    +0.144 HD
BRANCH  24  29
ATOM     29  N   UNL     1       3.276  10.453   4.839  0.00  0.00    -0.343 N 
ATOM     30  H   UNL     1       3.237  10.040   5.858  0.00  0.00    +0.144 HD
ATOM     31  H   UNL     1       3.478  11.523   4.686  0.00  0.00    +0.144 HD
ENDBRANCH  24  29
ENDBRANCH  19  20
ENDBRANCH  18  19
ENDBRANCH   1  18
TORSDOF 7
