REMARK  Name = ZINC39420944
REMARK  8 active torsions:
REMARK  status: ('A' for Active; 'I' for Inactive)
REMARK    1  A    between atoms: C_1  and  C_2
REMARK    2  A    between atoms: C_5  and  C_8
REMARK    3  A    between atoms: N_14  and  C_16
REMARK    4  A    between atoms: C_16  and  C_17
REMARK    5  A    between atoms: C_20  and  C_22
REMARK    6  A    between atoms: C_22  and  C_23
REMARK    7  A    between atoms: C_22  and  C_24
REMARK    8  A    between atoms: C_22  and  C_25
REMARK                            x       y       z     vdW  Elec       q    Type
REMARK                         _______ _______ _______ _____ _____    ______ ____
ROOT
ATOM      1  C   UNL     1       0.059  -4.275  -0.021  0.00  0.00    +0.131 C 
ATOM      2  C   UNL     1       1.448  -4.787   0.259  0.00  0.00    -0.015 C 
ATOM      3  C   UNL     1       1.389  -5.500   1.373  0.00  0.00    +0.022 C 
ATOM      4  C   UNL     1       2.606  -6.179   1.969  0.00  0.00    +0.067 C 
ATOM      5  C   UNL     1       3.696  -6.235   0.892  0.00  0.00    +0.091 C 
ATOM      6  N   UNL     1       3.861  -4.905   0.289  0.00  0.00    -0.293 NA
ATOM      7  C   UNL     1       2.699  -4.554  -0.546  0.00  0.00    +0.119 C 
ATOM      8  N   UNL     1       0.105  -5.526   1.879  0.00  0.00    -0.283 N 
ATOM      9  N   UNL     1      -0.755  -4.810   1.090  0.00  0.00    -0.231 NA
ATOM     10  H   UNL     1      -0.155  -5.992   2.688  0.00  0.00    +0.166 HD
ATOM     11  H   UNL     1      -1.502  -5.394   0.743  0.00  0.00    +0.145 HD
ENDROOT
BRANCH   1  16
ATOM     12  C   UNL     1      -0.018   1.503   0.010  0.00  0.00    +0.044 C 
ATOM     13  C   UNL     1       0.002  -0.004   0.002  0.00  0.00    -0.050 A 
ATOM     14  C   UNL     1       0.006  -0.689  -1.199  0.00  0.00    +0.004 A 
ATOM     15  C   UNL     1       0.025  -2.071  -1.206  0.00  0.00    +0.006 A 
ATOM     16  C   UNL     1       0.040  -2.768  -0.013  0.00  0.00    -0.025 A 
ATOM     17  C   UNL     1       0.037  -2.084   1.188  0.00  0.00    +0.006 A 
ATOM     18  C   UNL     1       0.023  -0.702   1.195  0.00  0.00    +0.004 A 
ENDBRANCH   1  16
BRANCH   6  19
ATOM     19  C   UNL     1       5.107  -4.829  -0.485  0.00  0.00    +0.137 C 
BRANCH  19  20
ATOM     20  C   UNL     1       6.286  -4.949   0.447  0.00  0.00    +0.061 C 
ATOM     21  N   UNL     1       6.251  -5.103   1.729  0.00  0.00    -0.157 NA
ATOM     22  N   UNL     1       7.522  -5.180   2.289  0.00  0.00    -0.158 NA
ATOM     23  C   UNL     1       8.458  -5.081   1.404  0.00  0.00    +0.052 C 
ATOM     24  C   UNL     1       7.754  -4.922   0.071  0.00  0.00    +0.107 C 
BRANCH  23  25
ATOM     25  C   UNL     1       9.945  -5.122   1.646  0.00  0.00    +0.003 C 
ATOM     26  C   UNL     1      10.213  -5.303   3.142  0.00  0.00    +0.017 C 
ATOM     27  C   UNL     1      10.556  -6.292   0.873  0.00  0.00    +0.017 C 
ATOM     28  C   UNL     1      10.575  -3.811   1.171  0.00  0.00    +0.017 C 
ENDBRANCH  23  25
ENDBRANCH  19  20
ENDBRANCH   6  19
TORSDOF 4
