REMARK  Name = ZINC31800036
REMARK  9 active torsions:
REMARK  status: ('A' for Active; 'I' for Inactive)
REMARK    1  A    between atoms: C_1  and  C_2
REMARK    2  A    between atoms: C_3  and  S_24
REMARK    3  A    between atoms: C_8  and  C_10
REMARK    4  A    between atoms: C_17  and  C_20
REMARK    5  A    between atoms: C_20  and  C_21
REMARK    6  A    between atoms: C_20  and  C_22
REMARK    7  A    between atoms: C_20  and  C_23
REMARK    8  A    between atoms: S_24  and  C_25
REMARK    9  A    between atoms: C_25  and  C_26
REMARK                            x       y       z     vdW  Elec       q    Type
REMARK                         _______ _______ _______ _____ _____    ______ ____
ROOT
ATOM      1  C   UNL     1      -0.018   1.503   0.010  0.00  0.00    +0.067 C 
ATOM      2  C   UNL     1       0.002  -0.004   0.002  0.00  0.00    +0.061 A 
ATOM      3  C   UNL     1       0.005  -0.683  -1.179  0.00  0.00    +0.070 A 
ATOM      4  S   UNL     1       0.032  -2.371  -0.590  0.00  0.00    -0.045 S 
ATOM      5  C   UNL     1       0.036  -1.994   1.158  0.00  0.00    +0.166 A 
ATOM      6  N   UNL     1       0.022  -0.674   1.139  0.00  0.00    -0.229 NA
ATOM      7  N   UNL     1       0.053  -2.860   2.246  0.00  0.00    -0.260 N 
ATOM      8  C   UNL     1       0.070  -4.193   2.046  0.00  0.00    +0.256 C 
ATOM      9  O   UNL     1       0.071  -4.639   0.914  0.00  0.00    -0.269 OA
ATOM     10  H   UNL     1       0.053  -2.505   3.149  0.00  0.00    +0.157 HD
ENDROOT
BRANCH   8  11
ATOM     11  C   UNL     1       0.088  -5.106   3.193  0.00  0.00    +0.075 A 
ATOM     12  C   UNL     1       0.113  -6.488   3.207  0.00  0.00    +0.024 A 
ATOM     13  C   UNL     1       0.126  -7.102   4.451  0.00  0.00    -0.036 A 
ATOM     14  C   UNL     1       0.114  -6.279   5.539  0.00  0.00    -0.006 A 
ATOM     15  S   UNL     1       0.092  -4.723   4.934  0.00  0.00    -0.088 S 
ATOM     16  C   UNL     1       0.126  -6.698   6.980  0.00  0.00    +0.043 C 
ATOM     17  C   UNL     1       0.533  -8.176   7.053  0.00  0.00    +0.009 C 
ATOM     18  C   UNL     1      -0.297  -8.966   6.037  0.00  0.00    -0.001 C 
ATOM     19  C   UNL     1       0.152  -8.619   4.618  0.00  0.00    +0.040 C 
BRANCH  18  20
ATOM     20  C   UNL     1      -0.102 -10.465   6.278  0.00  0.00    -0.035 C 
ATOM     21  C   UNL     1      -0.559 -10.817   7.695  0.00  0.00    +0.011 C 
ATOM     22  C   UNL     1      -0.930 -11.256   5.263  0.00  0.00    +0.011 C 
ATOM     23  C   UNL     1       1.377 -10.819   6.116  0.00  0.00    +0.011 C 
ENDBRANCH  18  20
ENDBRANCH   8  11
BRANCH   3  24
ATOM     24  S   UNL     1      -0.012  -0.068  -2.830  0.00  0.00    -0.107 S 
BRANCH  24  25
ATOM     25  C   UNL     1       0.004  -1.564  -3.856  0.00  0.00    +0.170 C 
BRANCH  25  26
ATOM     26  C   UNL     1      -0.010  -1.175  -5.312  0.00  0.00    +0.221 C 
ATOM     27  O   UNL     1      -0.028  -0.004  -5.627  0.00  0.00    -0.275 OA
ATOM     28  N   UNL     1      -0.001  -2.128  -6.264  0.00  0.00    -0.329 N 
ATOM     29  H   UNL     1       0.013  -3.065  -6.013  0.00  0.00    +0.145 HD
ATOM     30  H   UNL     1      -0.010  -1.878  -7.201  0.00  0.00    +0.145 HD
ENDBRANCH  25  26
ENDBRANCH  24  25
ENDBRANCH   3  24
TORSDOF 5
