REMARK  Name = ZINC22109013
REMARK  18 active torsions:
REMARK  status: ('A' for Active; 'I' for Inactive)
REMARK    1  A    between atoms: C_1  and  C_2
REMARK    2  A    between atoms: C_2  and  O_3
REMARK    3  A    between atoms: O_3  and  C_4
REMARK    4  A    between atoms: C_6  and  C_19
REMARK    5  A    between atoms: C_9  and  O_10
REMARK    6  A    between atoms: O_10  and  C_11
REMARK    7  A    between atoms: C_11  and  C_12
REMARK    8  A    between atoms: N_14  and  C_15
REMARK    9  A    between atoms: C_15  and  C_16
REMARK   10  A    between atoms: C_15  and  C_17
REMARK   11  A    between atoms: C_15  and  C_18
REMARK   12  A    between atoms: C_19  and  N_20
REMARK   13  A    between atoms: N_20  and  C_21
REMARK   14  A    between atoms: C_21  and  C_22
REMARK   15  A    between atoms: C_22  and  C_23
REMARK   16  A    between atoms: C_23  and  S_24
REMARK   17  A    between atoms: S_24  and  C_25
REMARK   18  A    between atoms: N_29  and  C_30
REMARK                            x       y       z     vdW  Elec       q    Type
REMARK                         _______ _______ _______ _____ _____    ______ ____
ROOT
ATOM      1  C   UNL     1      -0.148   1.182   2.380  0.00  0.00    +0.162 A 
ATOM      2  C   UNL     1       0.993   0.398   2.422  0.00  0.00    +0.051 A 
ATOM      3  C   UNL     1       1.534   0.028   3.639  0.00  0.00    -0.061 A 
ATOM      4  C   UNL     1       0.938   0.438   4.817  0.00  0.00    +0.005 A 
ATOM      5  C   UNL     1      -0.201   1.221   4.783  0.00  0.00    +0.049 A 
ATOM      6  C   UNL     1      -0.745   1.600   3.566  0.00  0.00    +0.163 A 
ENDROOT
BRANCH   1   7
ATOM      7  O   UNL     1      -0.682   1.547   1.184  0.00  0.00    -0.489 OA
BRANCH   7   9
ATOM      8  C   UNL     1      -0.753   1.593  -1.232  0.00  0.00    +0.048 C 
ATOM      9  C   UNL     1      -0.013   1.086   0.008  0.00  0.00    +0.226 C 
ENDBRANCH   7   9
ENDBRANCH   1   7
BRANCH   6  10
ATOM     10  O   UNL     1      -1.862   2.374   3.531  0.00  0.00    -0.479 OA
BRANCH  10  11
ATOM     11  C   UNL     1      -2.420   2.766   4.787  0.00  0.00    +0.324 C 
BRANCH  11  12
ATOM     12  C   UNL     1      -3.644   3.613   4.550  0.00  0.00    +0.251 C 
ATOM     13  O   UNL     1      -4.003   3.858   3.418  0.00  0.00    -0.272 OA
ATOM     14  N   UNL     1      -4.340   4.099   5.597  0.00  0.00    -0.308 N 
ATOM     15  H   UNL     1      -4.014   3.878   6.624  0.00  0.00    +0.149 HD
BRANCH  14  16
ATOM     16  C   UNL     1      -5.529   4.923   5.367  0.00  0.00    +0.026 C 
ATOM     17  C   UNL     1      -6.563   4.117   4.579  0.00  0.00    +0.031 C 
ATOM     18  C   UNL     1      -6.127   5.343   6.712  0.00  0.00    +0.031 C 
ATOM     19  C   UNL     1      -5.140   6.170   4.571  0.00  0.00    +0.031 C 
ENDBRANCH  14  16
ENDBRANCH  11  12
ENDBRANCH  10  11
ENDBRANCH   6  10
BRANCH   3  20
ATOM     20  C   UNL     1       2.775  -0.826   3.682  0.00  0.00    -0.047 C 
BRANCH  20  21
ATOM     21  N   UNL     1       3.963   0.038   3.695  0.00  0.00    +0.382 N 
ATOM     22  H   UNL     1       3.975   0.658   2.786  0.00  0.00    -0.085 HD
ATOM     23  H   UNL     1       3.934   0.689   4.581  0.00  0.00    -0.085 HD
BRANCH  21  24
ATOM     24  C   UNL     1       5.195  -0.761   3.737  0.00  0.00    -0.081 C 
BRANCH  24  25
ATOM     25  C   UNL     1       6.408   0.172   3.749  0.00  0.00    -0.008 C 
BRANCH  25  26
ATOM     26  C   UNL     1       7.691  -0.660   3.792  0.00  0.00    +0.075 C 
BRANCH  26  27
ATOM     27  S   UNL     1       9.126   0.443   3.806  0.00  0.00    -0.084 S 
BRANCH  27  28
ATOM     28  C   UNL     1      10.425  -0.746   3.857  0.00  0.00    +0.214 A 
ATOM     29  N   UNL     1      10.288  -2.054   3.875  0.00  0.00    -0.101 NA
ATOM     30  N   UNL     1      11.437  -2.627   3.911  0.00  0.00    -0.022 NA
ATOM     31  N   UNL     1      12.378  -1.746   3.918  0.00  0.00    -0.038 NA
ATOM     32  N   UNL     1      11.757  -0.485   3.877  0.00  0.00    -0.187 N 
BRANCH  32  33
ATOM     33  C   UNL     1      12.379   0.771   3.863  0.00  0.00    +0.070 A 
ATOM     34  C   UNL     1      11.822   1.815   3.136  0.00  0.00    +0.028 A 
ATOM     35  C   UNL     1      12.435   3.053   3.129  0.00  0.00    +0.002 A 
ATOM     36  C   UNL     1      13.607   3.251   3.835  0.00  0.00    +0.000 A 
ATOM     37  C   UNL     1      14.167   2.211   4.556  0.00  0.00    +0.002 A 
ATOM     38  C   UNL     1      13.556   0.973   4.571  0.00  0.00    +0.028 A 
ENDBRANCH  32  33
ENDBRANCH  27  28
ENDBRANCH  26  27
ENDBRANCH  25  26
ENDBRANCH  24  25
ENDBRANCH  21  24
ENDBRANCH  20  21
ENDBRANCH   3  20
TORSDOF 14
