REMARK  Name = ZINC45283307
REMARK  8 active torsions:
REMARK  status: ('A' for Active; 'I' for Inactive)
REMARK    1  A    between atoms: C_4  and  O_10
REMARK    2  A    between atoms: C_5  and  C_7
REMARK    3  A    between atoms: O_10  and  C_11
REMARK    4  A    between atoms: C_15  and  O_17
REMARK    5  A    between atoms: O_17  and  C_18
REMARK    6  A    between atoms: C_22  and  C_24
REMARK    7  A    between atoms: C_28  and  C_30
REMARK    8  A    between atoms: C_30  and  N_31
REMARK                            x       y       z     vdW  Elec       q    Type
REMARK                         _______ _______ _______ _____ _____    ______ ____
ROOT
ATOM      1  C   UNL     1       4.603   0.531  -1.720  0.00  0.00    +0.260 A 
ATOM      2  C   UNL     1       5.813  -0.103  -1.975  0.00  0.00    +0.188 A 
ATOM      3  C   UNL     1       6.996   0.530  -1.622  0.00  0.00    +0.087 A 
ATOM      4  C   UNL     1       6.926   1.780  -1.025  0.00  0.00    +0.188 A 
ATOM      5  C   UNL     1       5.681   2.355  -0.800  0.00  0.00    +0.260 A 
ATOM      6  N   UNL     1       4.572   1.726  -1.154  0.00  0.00    -0.172 NA
ATOM      7  F   UNL     1       8.054   2.431  -0.666  0.00  0.00    -0.200 F 
ATOM      8  F   UNL     1       5.837  -1.321  -2.558  0.00  0.00    -0.200 F 
ENDROOT
BRANCH   1   9
ATOM      9  O   UNL     1       3.440  -0.081  -2.062  0.00  0.00    -0.435 OA
BRANCH   9  13
ATOM     10  C   UNL     1      -0.105   1.710  -0.912  0.00  0.00    +0.001 A 
ATOM     11  C   UNL     1       0.749   2.350  -1.797  0.00  0.00    +0.004 A 
ATOM     12  C   UNL     1       1.933   1.755  -2.182  0.00  0.00    +0.047 A 
ATOM     13  C   UNL     1       2.277   0.506  -1.684  0.00  0.00    +0.145 A 
ATOM     14  C   UNL     1       1.417  -0.146  -0.789  0.00  0.00    +0.105 A 
ATOM     15  C   UNL     1       0.220   0.470  -0.408  0.00  0.00    +0.019 A 
BRANCH  14  16
ATOM     16  C   UNL     1       1.770  -1.471  -0.254  0.00  0.00    +0.390 C 
ATOM     17  O   UNL     1       1.017  -2.036   0.527  0.00  0.00    -0.240 OA
ATOM     18  O   UNL     1       2.817  -2.007  -0.590  0.00  0.00    -0.240 OA
ENDBRANCH  14  16
ENDBRANCH   9  13
ENDBRANCH   1   9
BRANCH   5  19
ATOM     19  O   UNL     1       5.602   3.578  -0.216  0.00  0.00    -0.436 OA
BRANCH  19  20
ATOM     20  C   UNL     1       4.367   4.095   0.018  0.00  0.00    +0.131 A 
ATOM     21  C   UNL     1       3.271   3.250   0.130  0.00  0.00    +0.046 A 
ATOM     22  C   UNL     1       2.013   3.771   0.368  0.00  0.00    +0.004 A 
ATOM     23  C   UNL     1       1.840   5.135   0.496  0.00  0.00    +0.009 A 
ATOM     24  C   UNL     1       2.935   5.989   0.387  0.00  0.00    -0.014 A 
ATOM     25  C   UNL     1       4.203   5.464   0.152  0.00  0.00    +0.054 A 
BRANCH  24  26
ATOM     26  C   UNL     1       2.751   7.455   0.525  0.00  0.00    -0.018 A 
ATOM     27  C   UNL     1       3.844   8.311   0.410  0.00  0.00    +0.008 A 
ATOM     28  C   UNL     1       3.668   9.674   0.538  0.00  0.00    +0.001 A 
ATOM     29  C   UNL     1       2.408  10.191   0.782  0.00  0.00    +0.002 A 
ATOM     30  C   UNL     1       1.319   9.346   0.897  0.00  0.00    -0.064 A 
ATOM     31  C   UNL     1       1.483   7.981   0.765  0.00  0.00    +0.010 A 
BRANCH  30  32
ATOM     32  C   UNL     1      -0.051   9.916   1.162  0.00  0.00    -0.051 C 
BRANCH  32  33
ATOM     33  N   UNL     1      -0.718  10.201  -0.116  0.00  0.00    +0.381 N 
ATOM     34  H   UNL     1      -0.171  10.869  -0.639  0.00  0.00    -0.090 HD
ATOM     35  H   UNL     1      -0.806   9.348  -0.647  0.00  0.00    -0.090 HD
ATOM     36  H   UNL     1      -1.635  10.583   0.062  0.00  0.00    -0.090 HD
ENDBRANCH  32  33
ENDBRANCH  30  32
ENDBRANCH  24  26
ENDBRANCH  19  20
ENDBRANCH   5  19
TORSDOF 8
