REMARK  Name = ZINC16884899
REMARK  9 active torsions:
REMARK  status: ('A' for Active; 'I' for Inactive)
REMARK    1  A    between atoms: C_1  and  C_2
REMARK    2  A    between atoms: C_5  and  C_9
REMARK    3  A    between atoms: C_6  and  C_8
REMARK    4  A    between atoms: C_9  and  N_10
REMARK    5  A    between atoms: C_13  and  C_26
REMARK    6  A    between atoms: C_14  and  C_25
REMARK    7  A    between atoms: N_17  and  C_18
REMARK    8  A    between atoms: C_23  and  N_24
REMARK    9  A    between atoms: C_26  and  C_27
REMARK                            x       y       z     vdW  Elec       q    Type
REMARK                         _______ _______ _______ _____ _____    ______ ____
ROOT
ATOM      1  N   UNL     1      -0.658   1.829  -0.500  0.00  0.00    -0.276 N 
ATOM      2  C   UNL     1      -1.183   0.594  -0.652  0.00  0.00    +0.259 A 
ATOM      3  O   UNL     1      -2.367   0.449  -0.910  0.00  0.00    -0.267 OA
ATOM      4  C   UNL     1      -0.339  -0.521  -0.509  0.00  0.00    +0.042 A 
ATOM      5  C   UNL     1       0.980  -0.318  -0.221  0.00  0.00    +0.050 A 
ATOM      6  N   UNL     1       1.450   0.919  -0.080  0.00  0.00    -0.220 NA
ATOM      7  C   UNL     1       0.665   1.970  -0.213  0.00  0.00    +0.203 A 
ATOM      8  N   UNL     1       1.190   3.226  -0.059  0.00  0.00    -0.283 N 
ATOM      9  C   UNL     1       1.905  -1.497  -0.063  0.00  0.00    +0.066 C 
ATOM     10  H   UNL     1       0.608   4.001  -0.080  0.00  0.00    +0.155 HD
ENDROOT
BRANCH   8  11
ATOM     11  C   UNL     1       2.569   3.390   0.127  0.00  0.00    +0.054 A 
ATOM     12  C   UNL     1       3.452   2.415  -0.313  0.00  0.00    +0.025 A 
ATOM     13  C   UNL     1       4.812   2.582  -0.133  0.00  0.00    +0.002 A 
ATOM     14  C   UNL     1       5.297   3.715   0.495  0.00  0.00    +0.002 A 
ATOM     15  C   UNL     1       4.424   4.689   0.942  0.00  0.00    +0.024 A 
ATOM     16  C   UNL     1       3.058   4.532   0.761  0.00  0.00    +0.046 A 
BRANCH  16  17
ATOM     17  N   UNL     1       2.172   5.517   1.213  0.00  0.00    -0.357 N 
ATOM     18  H   UNL     1       1.215   5.372   1.155  0.00  0.00    +0.142 HD
ATOM     19  H   UNL     1       2.516   6.344   1.585  0.00  0.00    +0.142 HD
ENDBRANCH  16  17
ENDBRANCH   8  11
BRANCH   1  20
ATOM     20  C   UNL     1      -1.508   3.013  -0.648  0.00  0.00    +0.163 C 
BRANCH  20  25
ATOM     21  C   UNL     1      -5.391   3.146   3.630  0.00  0.00    +0.044 C 
ATOM     22  C   UNL     1      -4.378   3.111   2.514  0.00  0.00    -0.050 A 
ATOM     23  C   UNL     1      -4.733   2.615   1.274  0.00  0.00    +0.004 A 
ATOM     24  C   UNL     1      -3.806   2.587   0.249  0.00  0.00    +0.006 A 
ATOM     25  C   UNL     1      -2.521   3.047   0.468  0.00  0.00    -0.025 A 
ATOM     26  C   UNL     1      -2.166   3.544   1.707  0.00  0.00    -0.045 A 
ATOM     27  C   UNL     1      -3.095   3.576   2.731  0.00  0.00    +0.007 A 
ATOM     28  C   UNL     1      -0.767   4.052   1.944  0.00  0.00    +0.044 C 
ENDBRANCH  20  25
ENDBRANCH   1  20
BRANCH   4  29
ATOM     29  C   UNL     1      -0.881  -1.918  -0.672  0.00  0.00    +0.077 C 
BRANCH  29  30
ATOM     30  C   UNL     1      -0.808  -2.320  -2.122  0.00  0.00    -0.043 A 
ATOM     31  C   UNL     1      -1.831  -1.978  -2.987  0.00  0.00    +0.004 A 
ATOM     32  C   UNL     1      -1.761  -2.343  -4.318  0.00  0.00    +0.000 A 
ATOM     33  C   UNL     1      -0.673  -3.058  -4.783  0.00  0.00    +0.000 A 
ATOM     34  C   UNL     1       0.347  -3.405  -3.917  0.00  0.00    +0.000 A 
ATOM     35  C   UNL     1       0.280  -3.035  -2.587  0.00  0.00    +0.004 A 
ENDBRANCH  29  30
ENDBRANCH   4  29
TORSDOF 6
