REMARK  Name = ZINC08432440
REMARK  7 active torsions:
REMARK  status: ('A' for Active; 'I' for Inactive)
REMARK    1  A    between atoms: C_1  and  C_2
REMARK    2  A    between atoms: C_2  and  N_3
REMARK    3  A    between atoms: N_3  and  C_4
REMARK    4  A    between atoms: N_3  and  C_6
REMARK    5  A    between atoms: C_4  and  C_5
REMARK    6  A    between atoms: C_9  and  C_12
REMARK    7  A    between atoms: C_17  and  C_29
REMARK                            x       y       z     vdW  Elec       q    Type
REMARK                         _______ _______ _______ _____ _____    ______ ____
ROOT
ATOM      1  C   UNL     1      -1.302  -6.165   0.447  0.00  0.00    +0.136 C 
ATOM      2  C   UNL     1      -2.652  -6.695   0.025  0.00  0.00    +0.036 C 
ATOM      3  C   UNL     1      -2.904  -6.576  -1.362  0.00  0.00    +0.163 C 
ATOM      4  C   UNL     1      -4.176  -7.061  -1.991  0.00  0.00    +0.088 C 
ATOM      5  C   UNL     1      -4.725  -8.220  -1.150  0.00  0.00    +0.032 C 
ATOM      6  C   UNL     1      -4.907  -7.712   0.280  0.00  0.00    +0.059 C 
ATOM      7  C   UNL     1      -3.573  -7.242   0.836  0.00  0.00    +0.017 C 
ATOM      8  N   UNL     1      -3.422  -7.422   2.173  0.00  0.00    -0.316 N 
ATOM      9  C   UNL     1      -2.946  -6.458   3.054  0.00  0.00    +0.052 A 
ATOM     10  C   UNL     1      -3.732  -5.922   4.059  0.00  0.00    +0.025 A 
ATOM     11  C   UNL     1      -3.182  -4.997   4.931  0.00  0.00    +0.002 A 
ATOM     12  C   UNL     1      -1.860  -4.615   4.799  0.00  0.00    +0.002 A 
ATOM     13  C   UNL     1      -1.077  -5.138   3.784  0.00  0.00    +0.025 A 
ATOM     14  C   UNL     1      -1.631  -6.047   2.897  0.00  0.00    +0.049 A 
ATOM     15  N   UNL     1      -0.919  -6.517   1.798  0.00  0.00    -0.331 N 
ATOM     16  O   UNL     1      -2.060  -6.062  -2.069  0.00  0.00    -0.292 OA
ATOM     17  H   UNL     1      -0.150  -7.090   1.941  0.00  0.00    +0.147 HD
ATOM     18  H   UNL     1      -3.664  -8.287   2.540  0.00  0.00    +0.152 HD
ENDROOT
BRANCH   5  19
ATOM     19  C   UNL     1      -6.052  -8.671  -1.705  0.00  0.00    -0.043 A 
ATOM     20  C   UNL     1      -7.108  -7.781  -1.779  0.00  0.00    +0.007 A 
ATOM     21  C   UNL     1      -8.324  -8.193  -2.288  0.00  0.00    +0.038 A 
ATOM     22  C   UNL     1      -8.486  -9.497  -2.726  0.00  0.00    +0.123 A 
ATOM     23  C   UNL     1      -7.427 -10.387  -2.652  0.00  0.00    +0.038 A 
ATOM     24  C   UNL     1      -6.210  -9.971  -2.147  0.00  0.00    +0.007 A 
ATOM     25  F   UNL     1      -9.675  -9.901  -3.224  0.00  0.00    -0.205 F 
ENDBRANCH   5  19
BRANCH   1  29
ATOM     26  C   UNL     1      -1.357  -1.906   0.119  0.00  0.00    +0.013 A 
ATOM     27  C   UNL     1      -0.525  -2.651  -0.695  0.00  0.00    +0.022 A 
ATOM     28  C   UNL     1      -0.507  -4.030  -0.589  0.00  0.00    +0.007 A 
ATOM     29  C   UNL     1      -1.321  -4.663   0.332  0.00  0.00    -0.023 A 
ATOM     30  C   UNL     1      -2.153  -3.917   1.147  0.00  0.00    +0.007 A 
ATOM     31  C   UNL     1      -2.168  -2.539   1.043  0.00  0.00    +0.022 A 
BRANCH  26  32
ATOM     32  N   UNL     1      -1.376  -0.513   0.012  0.00  0.00    -0.394 NA
ATOM     33  H   UNL     1      -2.031  -0.132   0.678  0.00  0.00    +0.126 HD
BRANCH  32  35
ATOM     34  C   UNL     1      -0.081   1.547   0.294  0.00  0.00    +0.022 C 
ATOM     35  C   UNL     1      -0.034   0.017   0.288  0.00  0.00    +0.081 C 
ENDBRANCH  32  35
BRANCH  32  36
ATOM     36  C   UNL     1      -1.782  -0.131  -1.347  0.00  0.00    +0.081 C 
ATOM     37  C   UNL     1      -3.226  -0.575  -1.591  0.00  0.00    +0.022 C 
ENDBRANCH  32  36
ENDBRANCH  26  32
ENDBRANCH   1  29
TORSDOF 5
