REMARK  Name = ZINC11998820
REMARK  6 active torsions:
REMARK  status: ('A' for Active; 'I' for Inactive)
REMARK    1  A    between atoms: C_1  and  O_2
REMARK    2  A    between atoms: O_2  and  C_3
REMARK    3  A    between atoms: C_6  and  C_9
REMARK    4  A    between atoms: C_9  and  C_10
REMARK    5  A    between atoms: C_10  and  N_52
REMARK    6  A    between atoms: N_14  and  C_24
REMARK                            x       y       z     vdW  Elec       q    Type
REMARK                         _______ _______ _______ _____ _____    ______ ____
ROOT
ATOM      1  C   UNL     1       1.187   7.391   0.123  0.00  0.00    +0.020 C 
ATOM      2  C   UNL     1       1.095   5.889   0.129  0.00  0.00    +0.203 C 
ATOM      3  O   UNL     1       2.116   5.242   0.228  0.00  0.00    -0.277 OA
ATOM      4  N   UNL     1      -0.069   5.242   0.029  0.00  0.00    -0.270 N 
ATOM      5  C   UNL     1      -1.359   5.915  -0.068  0.00  0.00    +0.090 C 
ATOM      6  C   UNL     1      -1.174   7.402  -0.387  0.00  0.00    -0.024 C 
ATOM      7  C   UNL     1      -0.752   7.541  -1.875  0.00  0.00    +0.152 C 
ATOM      8  S   UNL     1      -1.833   6.268  -2.653  0.00  0.00    -0.031 S 
ATOM      9  O   UNL     1      -3.035   6.887  -3.090  0.00  0.00    -0.174 OA
ATOM     10  O   UNL     1      -1.064   5.507  -3.574  0.00  0.00    -0.174 OA
ATOM     11  C   UNL     1      -2.197   5.233  -1.177  0.00  0.00    +0.187 C 
ATOM     12  N   UNL     1      -0.126   7.960   0.488  0.00  0.00    +0.390 N 
ATOM     13  H   UNL     1      -0.337   7.713   1.462  0.00  0.00    -0.081 HD
ENDROOT
BRANCH   4  14
ATOM     14  C   UNL     1      -0.050   3.842   0.022  0.00  0.00    +0.036 A 
ATOM     15  C   UNL     1      -0.588   3.134   1.089  0.00  0.00    +0.023 A 
ATOM     16  C   UNL     1      -0.567   1.753   1.079  0.00  0.00    +0.002 A 
ATOM     17  C   UNL     1      -0.012   1.076   0.009  0.00  0.00    +0.000 A 
ATOM     18  C   UNL     1       0.529   1.778  -1.052  0.00  0.00    +0.002 A 
ATOM     19  C   UNL     1       0.507   3.159  -1.051  0.00  0.00    +0.023 A 
ENDBRANCH   4  14
BRANCH  12  20
ATOM     20  C   UNL     1      -0.091   9.432   0.362  0.00  0.00    -0.073 C 
BRANCH  20  21
ATOM     21  C   UNL     1       1.164   9.967   1.055  0.00  0.00    +0.016 C 
BRANCH  21  25
ATOM     22  C   UNL     1       1.248  14.229   0.762  0.00  0.00    +0.120 A 
ATOM     23  C   UNL     1       0.628  13.619   1.843  0.00  0.00    +0.046 A 
ATOM     24  C   UNL     1       0.602  12.241   1.935  0.00  0.00    +0.007 A 
ATOM     25  C   UNL     1       1.193  11.470   0.952  0.00  0.00    -0.049 A 
ATOM     26  C   UNL     1       1.817  12.076  -0.123  0.00  0.00    +0.007 A 
ATOM     27  C   UNL     1       1.840  13.453  -0.223  0.00  0.00    +0.046 A 
BRANCH  22  29
ATOM     28  C   UNL     1       1.931  16.144  -0.471  0.00  0.00    +0.277 C 
ATOM     29  O   UNL     1       1.276  15.585   0.669  0.00  0.00    -0.495 OA
ENDBRANCH  22  29
ENDBRANCH  21  25
ENDBRANCH  20  21
ENDBRANCH  12  20
TORSDOF 5
