REMARK  Name = ZINC10980070
REMARK  9 active torsions:
REMARK  status: ('A' for Active; 'I' for Inactive)
REMARK    1  A    between atoms: C_1  and  C_2
REMARK    2  A    between atoms: C_2  and  O_3
REMARK    3  A    between atoms: O_3  and  C_4
REMARK    4  A    between atoms: C_7  and  C_10
REMARK    5  A    between atoms: C_10  and  C_11
REMARK    6  A    between atoms: C_11  and  C_12
REMARK    7  A    between atoms: C_18  and  C_20
REMARK    8  A    between atoms: C_20  and  C_21
REMARK    9  A    between atoms: C_21  and  C_22
REMARK                            x       y       z     vdW  Elec       q    Type
REMARK                         _______ _______ _______ _____ _____    ______ ____
ROOT
ATOM      1  C   UNL     1       0.002  -0.004   0.002  0.00  0.00    -0.008 C 
ATOM      2  C   UNL     1      -0.019   1.526   0.010  0.00  0.00    +0.022 C 
ATOM      3  C   UNL     1       1.420   2.052  -0.001  0.00  0.00    +0.108 C 
ATOM      4  N   UNL     1       2.151   1.453   1.124  0.00  0.00    -0.301 N 
ATOM      5  C   UNL     1       2.159  -0.010   1.262  0.00  0.00    +0.108 C 
ATOM      6  C   UNL     1       0.712  -0.513   1.258  0.00  0.00    +0.022 C 
ATOM      7  C   UNL     1       2.803   2.229   2.011  0.00  0.00    +0.216 C 
ATOM      8  O   UNL     1       3.404   1.722   2.935  0.00  0.00    -0.276 OA
ENDROOT
BRANCH   1   9
ATOM      9  C   UNL     1      -1.433  -0.533  -0.022  0.00  0.00    +0.008 C 
BRANCH   9  10
ATOM     10  C   UNL     1      -1.413  -2.057  -0.156  0.00  0.00    +0.035 C 
BRANCH  10  14
ATOM     11  C   UNL     1      -5.422  -3.535  -0.223  0.00  0.00    +0.121 A 
ATOM     12  C   UNL     1      -4.789  -3.189  -1.408  0.00  0.00    +0.046 A 
ATOM     13  C   UNL     1      -3.493  -2.712  -1.384  0.00  0.00    +0.007 A 
ATOM     14  C   UNL     1      -2.827  -2.578  -0.180  0.00  0.00    -0.047 A 
ATOM     15  C   UNL     1      -3.454  -2.927   1.002  0.00  0.00    +0.007 A 
ATOM     16  C   UNL     1      -4.752  -3.400   0.984  0.00  0.00    +0.046 A 
BRANCH  11  17
ATOM     17  O   UNL     1      -6.697  -4.005  -0.244  0.00  0.00    -0.492 OA
BRANCH  17  19
ATOM     18  C   UNL     1      -8.712  -4.847   0.790  0.00  0.00    +0.048 C 
ATOM     19  C   UNL     1      -7.286  -4.340   1.014  0.00  0.00    +0.225 C 
ENDBRANCH  17  19
ENDBRANCH  11  17
ENDBRANCH  10  14
ENDBRANCH   9  10
ENDBRANCH   1   9
BRANCH   7  20
ATOM     20  C   UNL     1       2.786   3.728   1.856  0.00  0.00    +0.103 C 
BRANCH  20  21
ATOM     21  C   UNL     1       3.595   4.367   2.987  0.00  0.00    +0.083 C 
BRANCH  21  22
ATOM     22  C   UNL     1       3.578   5.866   2.832  0.00  0.00    +0.111 A 
ATOM     23  N   UNL     1       4.239   6.638   3.733  0.00  0.00    -0.310 N 
ATOM     24  H   UNL     1       4.713   6.213   4.465  0.00  0.00    +0.170 HD
ATOM     25  C   UNL     1       4.249   7.980   3.632  0.00  0.00    +0.260 A 
ATOM     26  O   UNL     1       4.847   8.658   4.449  0.00  0.00    -0.267 OA
ATOM     27  C   UNL     1       3.546   8.598   2.547  0.00  0.00    +0.075 A 
ATOM     28  C   UNL     1       3.420  10.022   2.240  0.00  0.00    -0.023 A 
ATOM     29  C   UNL     1       2.695  10.352   1.150  0.00  0.00    -0.004 A 
ATOM     30  S   UNL     1       2.147   8.806   0.478  0.00  0.00    -0.073 S 
ATOM     31  C   UNL     1       2.894   7.720   1.667  0.00  0.00    +0.116 A 
ATOM     32  N   UNL     1       2.932   6.400   1.829  0.00  0.00    -0.227 NA
ATOM     33  C   UNL     1       2.418  11.728   0.627  0.00  0.00    +0.043 C 
ATOM     34  C   UNL     1       2.772  12.743   1.723  0.00  0.00    +0.005 C 
ATOM     35  C   UNL     1       4.152  12.396   2.288  0.00  0.00    +0.005 C 
ATOM     36  C   UNL     1       4.070  11.102   3.100  0.00  0.00    +0.037 C 
ENDBRANCH  21  22
ENDBRANCH  20  21
ENDBRANCH   7  20
TORSDOF 8
