REMARK  Name = ZINC06377057
REMARK  5 active torsions:
REMARK  status: ('A' for Active; 'I' for Inactive)
REMARK    1  A    between atoms: C_5  and  N_8
REMARK    2  A    between atoms: C_9  and  C_11
REMARK    3  A    between atoms: C_11  and  O_12
REMARK    4  A    between atoms: O_12  and  C_13
REMARK    5  A    between atoms: C_13  and  C_15
REMARK                            x       y       z     vdW  Elec       q    Type
REMARK                         _______ _______ _______ _____ _____    ______ ____
ROOT
ATOM      1  N   UNL     1       2.358   3.890  -0.001  0.00  0.00    -0.280 N 
ATOM      2  C   UNL     1       2.370   5.180  -0.393  0.00  0.00    +0.255 C 
ATOM      3  O   UNL     1       1.328   5.744  -0.653  0.00  0.00    -0.272 OA
ATOM      4  H   UNL     1       3.182   3.461   0.277  0.00  0.00    +0.155 HD
ENDROOT
BRANCH   1   9
ATOM      5  C   UNL     1      -0.438   1.776  -1.120  0.00  0.00    +0.042 A 
ATOM      6  C   UNL     1      -1.223   1.755   0.019  0.00  0.00    +0.044 A 
ATOM      7  C   UNL     1      -0.818   2.433   1.155  0.00  0.00    +0.042 A 
ATOM      8  C   UNL     1       0.368   3.144   1.151  0.00  0.00    +0.065 A 
ATOM      9  C   UNL     1       1.156   3.171   0.007  0.00  0.00    +0.071 A 
ATOM     10  C   UNL     1       0.749   2.485  -1.130  0.00  0.00    +0.065 A 
ATOM     11 CL   UNL     1       1.729   2.517  -2.562  0.00  0.00    -0.082 Cl
ATOM     12 CL   UNL     1       0.874   3.999   2.575  0.00  0.00    -0.082 Cl
ATOM     13 CL   UNL     1      -2.717   0.870   0.026  0.00  0.00    -0.083 Cl
ENDBRANCH   1   9
BRANCH   2  14
ATOM     14  C   UNL     1       3.677   5.920  -0.510  0.00  0.00    +0.328 C 
BRANCH  14  15
ATOM     15  O   UNL     1       3.425   7.282  -0.947  0.00  0.00    -0.455 OA
BRANCH  15  16
ATOM     16  C   UNL     1       4.493   8.080  -1.101  0.00  0.00    +0.311 C 
ATOM     17  O   UNL     1       5.602   7.655  -0.879  0.00  0.00    -0.251 OA
BRANCH  16  18
ATOM     18  C   UNL     1       4.309   9.506  -1.553  0.00  0.00    +0.098 C 
ATOM     19  C   UNL     1       3.633   9.524  -2.925  0.00  0.00    +0.015 C 
ATOM     20  C   UNL     1       3.446  10.971  -3.383  0.00  0.00    +0.001 C 
ATOM     21  C   UNL     1       4.811  11.656  -3.478  0.00  0.00    +0.000 C 
ATOM     22  C   UNL     1       5.487  11.639  -2.106  0.00  0.00    +0.001 C 
ATOM     23  C   UNL     1       5.674  10.191  -1.648  0.00  0.00    +0.015 C 
ENDBRANCH  16  18
ENDBRANCH  15  16
ENDBRANCH  14  15
ENDBRANCH   2  14
TORSDOF 5
