REMARK  Name = ZINC52525215
REMARK  7 active torsions:
REMARK  status: ('A' for Active; 'I' for Inactive)
REMARK    1  A    between atoms: C_1  and  C_2
REMARK    2  A    between atoms: C_6  and  C_31
REMARK    3  A    between atoms: C_7  and  N_8
REMARK    4  A    between atoms: N_11  and  C_14
REMARK    5  A    between atoms: C_14  and  C_15
REMARK    6  A    between atoms: C_15  and  C_16
REMARK    7  A    between atoms: C_24  and  N_28
REMARK                            x       y       z     vdW  Elec       q    Type
REMARK                         _______ _______ _______ _____ _____    ______ ____
ROOT
ATOM      1  C   UNL     1      -1.074   0.864   7.297  0.00  0.00    +0.069 C 
ENDROOT
BRANCH   1   2
ATOM      2  C   UNL     1      -1.051   0.564   8.797  0.00  0.00    +0.260 C 
ATOM      3  C   UNL     1      -2.099   1.395   9.492  0.00  0.00    +0.258 C 
ATOM      4  O   UNL     1      -1.807   2.475   9.961  0.00  0.00    -0.271 OA
ATOM      5  N   UNL     1      -3.364   0.934   9.589  0.00  0.00    -0.280 N 
ATOM      6  C   UNL     1      -3.652  -0.367   9.155  0.00  0.00    +0.076 A 
ATOM      7  C   UNL     1      -4.965  -0.792   9.027  0.00  0.00    +0.029 A 
ATOM      8  C   UNL     1      -5.232  -2.075   8.584  0.00  0.00    +0.035 A 
ATOM      9  C   UNL     1      -4.195  -2.932   8.269  0.00  0.00    +0.130 A 
ATOM     10  C   UNL     1      -2.883  -2.515   8.398  0.00  0.00    +0.080 A 
ATOM     11  C   UNL     1      -2.607  -1.235   8.847  0.00  0.00    +0.145 A 
ATOM     12  O   UNL     1      -1.321  -0.824   9.009  0.00  0.00    -0.478 OA
ATOM     13  H   UNL     1      -4.064   1.496   9.956  0.00  0.00    +0.155 HD
BRANCH   9  14
ATOM     14  N   UNL     1      -4.490  -4.301   7.790  0.00  0.00    +0.057 N 
ATOM     15  O   UNL     1      -5.636  -4.668   7.675  0.00  0.00    -0.126 OA
ATOM     16  O   UNL     1      -3.584  -5.053   7.513  0.00  0.00    -0.126 OA
ENDBRANCH   9  14
ENDBRANCH   1   2
BRANCH   1  17
ATOM     17  C   UNL     1       0.071   0.117   6.610  0.00  0.00    +0.088 C 
BRANCH  17  21
ATOM     18  N   UNL     1       0.025  -0.016   2.415  0.00  0.00    -0.327 N 
ATOM     19  C   UNL     1       1.288   0.379   3.057  0.00  0.00    +0.120 C 
ATOM     20  C   UNL     1       1.264  -0.097   4.513  0.00  0.00    +0.103 C 
ATOM     21  N   UNL     1       0.049   0.406   5.170  0.00  0.00    -0.299 NA
ATOM     22  C   UNL     1      -1.161  -0.141   4.542  0.00  0.00    +0.103 C 
ATOM     23  C   UNL     1      -1.237   0.339   3.084  0.00  0.00    +0.120 C 
BRANCH  18  30
ATOM     24  C   UNL     1      -0.018   1.503   0.010  0.00  0.00    +0.045 C 
ATOM     25  C   UNL     1       0.002  -0.004   0.002  0.00  0.00    -0.029 A 
ATOM     26  C   UNL     1       0.006  -0.689  -1.197  0.00  0.00    +0.005 A 
ATOM     27  C   UNL     1       0.025  -2.071  -1.206  0.00  0.00    +0.001 A 
ATOM     28  C   UNL     1       0.040  -2.773  -0.014  0.00  0.00    +0.005 A 
ATOM     29  C   UNL     1       0.036  -2.095   1.188  0.00  0.00    -0.029 A 
ATOM     30  C   UNL     1       0.023  -0.706   1.201  0.00  0.00    +0.036 A 
ATOM     31  C   UNL     1       0.053  -2.860   2.486  0.00  0.00    +0.045 C 
ENDBRANCH  18  30
ENDBRANCH  17  21
ENDBRANCH   1  17
TORSDOF 5
