REMARK  Name = ZINC12662096
REMARK  5 active torsions:
REMARK  status: ('A' for Active; 'I' for Inactive)
REMARK    1  A    between atoms: C_1  and  O_2
REMARK    2  A    between atoms: O_2  and  C_3
REMARK    3  A    between atoms: C_6  and  C_9
REMARK    4  A    between atoms: N_10  and  N_11
REMARK    5  A    between atoms: C_12  and  C_30
REMARK                            x       y       z     vdW  Elec       q    Type
REMARK                         _______ _______ _______ _____ _____    ______ ____
ROOT
ATOM      1  N   UNL     1      -4.856   3.895   0.067  0.00  0.00    -0.204 N 
ATOM      2  C   UNL     1      -6.197   3.267   0.071  0.00  0.00    +0.080 C 
ATOM      3  C   UNL     1      -8.486   4.215  -0.108  0.00  0.00    -0.020 C 
ATOM      4  C   UNL     1      -9.131   5.522  -0.532  0.00  0.00    +0.004 A 
ATOM      5  C   UNL     1      -8.422   6.641  -0.811  0.00  0.00    -0.022 A 
ATOM      6  C   UNL     1      -9.369   7.657  -1.210  0.00  0.00    +0.003 A 
ATOM      7  C   UNL     1      -9.224   8.988  -1.615  0.00  0.00    +0.010 A 
ATOM      8  C   UNL     1     -10.372   9.672  -1.927  0.00  0.00    +0.001 A 
ATOM      9  C   UNL     1     -11.624   9.083  -1.850  0.00  0.00    +0.002 A 
ATOM     10  C   UNL     1     -11.798   7.769  -1.453  0.00  0.00    +0.026 A 
ATOM     11  C   UNL     1     -10.649   7.049  -1.129  0.00  0.00    +0.047 A 
ATOM     12  N   UNL     1     -10.464   5.762  -0.711  0.00  0.00    -0.359 N 
ATOM     13  H   UNL     1     -11.173   5.115  -0.565  0.00  0.00    +0.166 HD
ATOM     14  C   UNL     1      -6.914   6.731  -0.699  0.00  0.00    +0.031 C 
ATOM     15  C   UNL     1      -6.482   5.530   0.140  0.00  0.00    +0.029 C 
ATOM     16  C   UNL     1      -5.004   5.247   0.076  0.00  0.00    +0.221 C 
ATOM     17  O   UNL     1      -4.113   6.069   0.038  0.00  0.00    -0.276 OA
ATOM     18  N   UNL     1      -7.020   4.342  -0.462  0.00  0.00    +0.408 N 
ATOM     19  H   UNL     1      -6.927   4.378  -1.484  0.00  0.00    -0.077 HD
ENDROOT
BRANCH   2  20
ATOM     20  C   UNL     1      -6.211   2.040  -0.804  0.00  0.00    -0.042 A 
ATOM     21  C   UNL     1      -6.022   2.163  -2.168  0.00  0.00    +0.006 A 
ATOM     22  C   UNL     1      -6.028   1.038  -2.971  0.00  0.00    +0.038 A 
ATOM     23  C   UNL     1      -6.235  -0.211  -2.410  0.00  0.00    +0.123 A 
ATOM     24  C   UNL     1      -6.430  -0.332  -1.045  0.00  0.00    +0.038 A 
ATOM     25  C   UNL     1      -6.418   0.793  -0.243  0.00  0.00    +0.006 A 
ATOM     26  F   UNL     1      -6.247  -1.311  -3.195  0.00  0.00    -0.205 F 
ENDBRANCH   2  20
BRANCH   1  28
ATOM     27  C   UNL     1      -2.518   3.870   0.043  0.00  0.00    +0.138 C 
ATOM     28  N   UNL     1      -3.635   3.208   0.051  0.00  0.00    -0.186 NA
BRANCH  27  32
ATOM     29  C   UNL     1       1.182   1.791  -0.007  0.00  0.00    +0.120 A 
ATOM     30  C   UNL     1      -0.011   1.080   0.002  0.00  0.00    +0.046 A 
ATOM     31  C   UNL     1      -1.215   1.751   0.013  0.00  0.00    +0.013 A 
ATOM     32  C   UNL     1      -1.233   3.148   0.025  0.00  0.00    -0.005 A 
ATOM     33  C   UNL     1      -0.030   3.859   0.017  0.00  0.00    +0.013 A 
ATOM     34  C   UNL     1       1.169   3.179   0.001  0.00  0.00    +0.046 A 
BRANCH  29  36
ATOM     35  C   UNL     1       3.556   1.917  -0.031  0.00  0.00    +0.277 C 
ATOM     36  O   UNL     1       2.366   1.125  -0.023  0.00  0.00    -0.495 OA
ENDBRANCH  29  36
ENDBRANCH  27  32
ENDBRANCH   1  28
TORSDOF 4
