REMARK  Name = ZINC60016124
REMARK  12 active torsions:
REMARK  status: ('A' for Active; 'I' for Inactive)
REMARK    1  A    between atoms: C_1  and  C_2
REMARK    2  A    between atoms: C_5  and  S_25
REMARK    3  A    between atoms: C_7  and  C_8
REMARK    4  A    between atoms: N_10  and  C_11
REMARK    5  A    between atoms: C_11  and  C_13
REMARK    6  A    between atoms: C_11  and  C_14
REMARK    7  A    between atoms: C_14  and  N_15
REMARK    8  A    between atoms: C_17  and  C_24
REMARK    9  A    between atoms: C_20  and  C_23
REMARK   10  A    between atoms: S_25  and  N_28
REMARK   11  A    between atoms: N_28  and  C_29
REMARK   12  A    between atoms: C_29  and  C_30
REMARK                            x       y       z     vdW  Elec       q    Type
REMARK                         _______ _______ _______ _____ _____    ______ ____
ROOT
ATOM      1  C   UNL     1      -0.511   1.452   0.082  0.00  0.00    +0.044 C 
ATOM      2  C   UNL     1      -0.234  -0.028   0.036  0.00  0.00    -0.038 A 
ATOM      3  C   UNL     1      -0.334  -0.714  -1.157  0.00  0.00    +0.006 A 
ATOM      4  C   UNL     1      -0.080  -2.073  -1.200  0.00  0.00    +0.029 A 
ATOM      5  C   UNL     1       0.275  -2.754  -0.049  0.00  0.00    +0.106 A 
ATOM      6  C   UNL     1       0.378  -2.080   1.150  0.00  0.00    +0.041 A 
ATOM      7  C   UNL     1       0.128  -0.708   1.200  0.00  0.00    +0.041 A 
ENDROOT
BRANCH   7   8
ATOM      8  C   UNL     1       0.242   0.021   2.481  0.00  0.00    +0.245 C 
ATOM      9  O   UNL     1       0.135   1.232   2.503  0.00  0.00    -0.270 OA
ATOM     10  N   UNL     1       0.465  -0.656   3.625  0.00  0.00    -0.311 N 
ATOM     11  H   UNL     1       0.551  -1.622   3.607  0.00  0.00    +0.149 HD
BRANCH  10  12
ATOM     12  C   UNL     1       0.578   0.067   4.894  0.00  0.00    +0.054 C 
ATOM     13  C   UNL     1       2.016   0.556   5.076  0.00  0.00    +0.026 C 
BRANCH  12  14
ATOM     14  C   UNL     1       0.207  -0.868   6.048  0.00  0.00    -0.057 C 
BRANCH  14  15
ATOM     15  N   UNL     1      -1.128  -1.431   5.811  0.00  0.00    +0.381 N 
ATOM     16  C   UNL     1      -2.124  -0.353   5.838  0.00  0.00    -0.076 C 
ATOM     17  C   UNL     1      -3.507  -0.923   5.513  0.00  0.00    -0.031 C 
ATOM     18  C   UNL     1      -3.873  -1.985   6.553  0.00  0.00    +0.003 C 
ATOM     19  C   UNL     1      -2.789  -3.066   6.569  0.00  0.00    -0.031 C 
ATOM     20  C   UNL     1      -1.433  -2.417   6.855  0.00  0.00    -0.076 C 
ATOM     21  C   UNL     1      -3.106  -4.092   7.658  0.00  0.00    +0.005 C 
ATOM     22  C   UNL     1      -4.543   0.203   5.543  0.00  0.00    +0.005 C 
ATOM     23  H   UNL     1      -1.147  -1.881   4.909  0.00  0.00    -0.082 HD
ENDBRANCH  14  15
ENDBRANCH  12  14
ENDBRANCH  10  12
ENDBRANCH   7   8
BRANCH   5  24
ATOM     24  S   UNL     1       0.595  -4.486  -0.115  0.00  0.00    +0.059 S 
ATOM     25  O   UNL     1       0.375  -4.989   1.195  0.00  0.00    -0.153 OA
ATOM     26  O   UNL     1      -0.101  -4.984  -1.250  0.00  0.00    -0.153 OA
BRANCH  24  27
ATOM     27  N   UNL     1       2.210  -4.673  -0.430  0.00  0.00    -0.186 NA
ATOM     28  H   UNL     1       2.498  -5.079  -1.263  0.00  0.00    +0.148 HD
BRANCH  27  29
ATOM     29  C   UNL     1       3.204  -4.226   0.549  0.00  0.00    +0.141 C 
BRANCH  29  30
ATOM     30  C   UNL     1       4.545  -4.826   0.213  0.00  0.00    -0.032 A 
ATOM     31  C   UNL     1       4.906  -6.051   0.742  0.00  0.00    +0.005 A 
ATOM     32  C   UNL     1       6.136  -6.601   0.433  0.00  0.00    +0.000 A 
ATOM     33  C   UNL     1       7.005  -5.926  -0.404  0.00  0.00    +0.000 A 
ATOM     34  C   UNL     1       6.643  -4.702  -0.934  0.00  0.00    +0.000 A 
ATOM     35  C   UNL     1       5.411  -4.154  -0.629  0.00  0.00    +0.005 A 
ENDBRANCH  29  30
ENDBRANCH  27  29
ENDBRANCH  24  27
ENDBRANCH   5  24
TORSDOF 8
