REMARK  Name = ZINC02303944
REMARK  11 active torsions:
REMARK  status: ('A' for Active; 'I' for Inactive)
REMARK    1  A    between atoms: C_1  and  C_2
REMARK    2  A    between atoms: C_2  and  N_3
REMARK    3  A    between atoms: N_3  and  C_4
REMARK    4  A    between atoms: N_3  and  C_6
REMARK    5  A    between atoms: C_4  and  C_5
REMARK    6  A    between atoms: C_9  and  C_13
REMARK    7  A    between atoms: C_10  and  O_12
REMARK    8  A    between atoms: N_14  and  N_15
REMARK    9  A    between atoms: C_16  and  C_18
REMARK   10  A    between atoms: C_21  and  N_24
REMARK   11  A    between atoms: C_27  and  C_30
REMARK                            x       y       z     vdW  Elec       q    Type
REMARK                         _______ _______ _______ _____ _____    ______ ____
ROOT
ATOM      1  N   UNL     1      -6.151   6.238   0.003  0.00  0.00    -0.203 N 
ATOM      2  C   UNL     1      -6.194   7.573   0.181  0.00  0.00    +0.263 C 
ATOM      3  O   UNL     1      -5.164   8.197   0.356  0.00  0.00    -0.268 OA
ATOM      4  H   UNL     1      -6.972   5.741  -0.137  0.00  0.00    +0.178 HD
ENDROOT
BRANCH   2   5
ATOM      5  C   UNL     1      -7.489   8.278   0.165  0.00  0.00    +0.038 A 
ATOM      6  C   UNL     1      -8.673   7.564  -0.042  0.00  0.00    +0.015 A 
ATOM      7  C   UNL     1      -9.881   8.224  -0.051  0.00  0.00    +0.024 A 
ATOM      8  C   UNL     1      -9.923   9.603   0.134  0.00  0.00    +0.033 A 
ATOM      9  C   UNL     1      -8.745  10.318   0.334  0.00  0.00    +0.024 A 
ATOM     10  C   UNL     1      -7.535   9.663   0.350  0.00  0.00    +0.015 A 
BRANCH   8  11
ATOM     11  N   UNL     1     -11.145  10.269   0.118  0.00  0.00    -0.294 N 
ATOM     12  C   UNL     1     -11.226  11.559  -0.381  0.00  0.00    +0.163 A 
ATOM     13  N   UNL     1     -12.251  12.391  -0.386  0.00  0.00    -0.225 NA
ATOM     14  C   UNL     1     -12.149  13.605  -0.908  0.00  0.00    +0.080 A 
ATOM     15  C   UNL     1     -10.964  13.999  -1.463  0.00  0.00    +0.076 A 
ATOM     16  S   UNL     1      -9.971  12.536  -1.198  0.00  0.00    -0.060 S 
ATOM     17  H   UNL     1     -11.941   9.829   0.457  0.00  0.00    +0.154 HD
BRANCH  14  18
ATOM     18  C   UNL     1     -13.313  14.525  -0.896  0.00  0.00    +0.001 A 
ATOM     19  C   UNL     1     -13.202  15.800  -1.447  0.00  0.00    +0.010 A 
ATOM     20  C   UNL     1     -14.289  16.650  -1.438  0.00  0.00    +0.001 A 
ATOM     21  C   UNL     1     -15.485  16.242  -0.874  0.00  0.00    +0.000 A 
ATOM     22  C   UNL     1     -15.599  14.979  -0.320  0.00  0.00    +0.001 A 
ATOM     23  C   UNL     1     -14.520  14.119  -0.329  0.00  0.00    +0.010 A 
ENDBRANCH  14  18
ENDBRANCH   8  11
ENDBRANCH   2   5
BRANCH   1  25
ATOM     24  C   UNL     1      -4.879   4.282  -0.154  0.00  0.00    +0.142 C 
ATOM     25  N   UNL     1      -4.921   5.568   0.018  0.00  0.00    -0.187 NA
BRANCH  24  29
ATOM     26  C   UNL     1      -1.149   2.250  -0.106  0.00  0.00    +0.033 A 
ATOM     27  C   UNL     1      -2.328   1.538  -0.306  0.00  0.00    +0.024 A 
ATOM     28  C   UNL     1      -3.539   2.193  -0.323  0.00  0.00    +0.015 A 
ATOM     29  C   UNL     1      -3.586   3.578  -0.138  0.00  0.00    +0.036 A 
ATOM     30  C   UNL     1      -2.397   4.294   0.064  0.00  0.00    +0.127 A 
ATOM     31  C   UNL     1      -1.187   3.626   0.084  0.00  0.00    +0.069 A 
BRANCH  30  32
ATOM     32  O   UNL     1      -2.435   5.640   0.245  0.00  0.00    -0.506 OA
ATOM     33  H   UNL     1      -2.522   5.910   1.170  0.00  0.00    +0.292 HD
ENDBRANCH  30  32
BRANCH  26  34
ATOM     34  N   UNL     1       0.074   1.579  -0.090  0.00  0.00    -0.330 N 
BRANCH  34  36
ATOM     35  C   UNL     1       0.012  -0.571   1.073  0.00  0.00    +0.024 C 
ATOM     36  C   UNL     1       0.116   0.128  -0.284  0.00  0.00    +0.102 C 
ENDBRANCH  34  36
BRANCH  34  37
ATOM     37  C   UNL     1       1.317   2.327   0.115  0.00  0.00    +0.102 C 
ATOM     38  C   UNL     1       1.867   2.782  -1.238  0.00  0.00    +0.024 C 
ENDBRANCH  34  37
ENDBRANCH  26  34
ENDBRANCH  24  29
ENDBRANCH   1  25
TORSDOF 9
