REMARK  Name = ZINC55208872
REMARK  9 active torsions:
REMARK  status: ('A' for Active; 'I' for Inactive)
REMARK    1  A    between atoms: C_1  and  C_2
REMARK    2  A    between atoms: C_3  and  C_11
REMARK    3  A    between atoms: C_7  and  N_8
REMARK    4  A    between atoms: C_11  and  S_12
REMARK    5  A    between atoms: S_12  and  C_15
REMARK    6  A    between atoms: C_15  and  C_17
REMARK    7  A    between atoms: C_15  and  C_18
REMARK    8  A    between atoms: C_21  and  C_29
REMARK    9  A    between atoms: C_26  and  C_28
REMARK                            x       y       z     vdW  Elec       q    Type
REMARK                         _______ _______ _______ _____ _____    ______ ____
ROOT
ATOM      1  S   UNL     1       1.426  -0.557  -4.336  0.00  0.00    -0.016 S 
ATOM      2  O   UNL     1       1.651  -0.039  -3.032  0.00  0.00    -0.173 OA
ATOM      3  O   UNL     1       2.538  -0.983  -5.112  0.00  0.00    -0.173 OA
ENDROOT
BRANCH   1   4
ATOM      4  C   UNL     1       0.497   0.674  -5.291  0.00  0.00    +0.213 C 
ATOM      5  C   UNL     1       0.019   0.047  -6.603  0.00  0.00    +0.042 C 
BRANCH   4   6
ATOM      6  C   UNL     1       1.387   1.852  -5.592  0.00  0.00    +0.240 C 
ATOM      7  O   UNL     1       2.482   1.931  -5.078  0.00  0.00    -0.273 OA
ATOM      8  N   UNL     1       0.966   2.817  -6.433  0.00  0.00    -0.294 N 
ATOM      9  C   UNL     1       1.930   3.595  -7.223  0.00  0.00    +0.073 C 
ATOM     10  C   UNL     1       1.681   5.087  -6.975  0.00  0.00    +0.022 C 
ATOM     11  C   UNL     1       0.215   5.411  -7.275  0.00  0.00    +0.004 C 
ATOM     12  C   UNL     1      -0.689   4.608  -6.337  0.00  0.00    +0.022 C 
ATOM     13  C   UNL     1      -0.467   3.108  -6.581  0.00  0.00    +0.073 C 
ATOM     14  C   UNL     1      -1.264   2.296  -5.558  0.00  0.00    +0.028 C 
ATOM     15  C   UNL     1       3.354   3.233  -6.796  0.00  0.00    +0.028 C 
ENDBRANCH   4   6
ENDBRANCH   1   4
BRANCH   1  16
ATOM     16  C   UNL     1       0.253  -1.936  -4.211  0.00  0.00    +0.202 C 
BRANCH  16  19
ATOM     17  C   UNL     1      -0.050  -2.051  -1.339  0.00  0.00    +0.046 C 
ATOM     18  C   UNL     1       0.737  -3.117  -2.058  0.00  0.00    -0.016 A 
ATOM     19  C   UNL     1       0.882  -3.062  -3.431  0.00  0.00    -0.021 A 
ATOM     20  C   UNL     1       1.603  -4.039  -4.090  0.00  0.00    +0.005 A 
ATOM     21  C   UNL     1       2.181  -5.072  -3.375  0.00  0.00    +0.003 A 
ATOM     22  C   UNL     1       2.037  -5.127  -2.001  0.00  0.00    +0.033 A 
ATOM     23  C   UNL     1       1.318  -4.146  -1.342  0.00  0.00    +0.129 A 
BRANCH  23  24
ATOM     24  N   UNL     1       1.168  -4.202   0.129  0.00  0.00    +0.057 N 
ATOM     25  O   UNL     1       1.185  -3.182   0.778  0.00  0.00    -0.126 OA
ATOM     26  O   UNL     1       1.029  -5.268   0.683  0.00  0.00    -0.126 OA
ENDBRANCH  23  24
ENDBRANCH  16  19
ENDBRANCH   1  16
TORSDOF 5
