REMARK  Name = ZINC11998132
REMARK  6 active torsions:
REMARK  status: ('A' for Active; 'I' for Inactive)
REMARK    1  A    between atoms: C_3  and  C_6
REMARK    2  A    between atoms: C_6  and  C_8
REMARK    3  A    between atoms: C_6  and  N_52
REMARK    4  A    between atoms: C_8  and  N_9
REMARK    5  A    between atoms: C_10  and  C_12
REMARK    6  A    between atoms: C_15  and  N_18
REMARK                            x       y       z     vdW  Elec       q    Type
REMARK                         _______ _______ _______ _____ _____    ______ ____
ROOT
ATOM      1  N   UNL     1       8.318   0.304   2.919  0.00  0.00    -0.312 N 
ATOM      2  C   UNL     1       7.537  -0.678   2.427  0.00  0.00    +0.244 C 
ATOM      3  O   UNL     1       7.984  -1.800   2.289  0.00  0.00    -0.270 OA
ATOM      4  H   UNL     1       7.960   1.199   3.029  0.00  0.00    +0.149 HD
ENDROOT
BRANCH   2   5
ATOM      5  C   UNL     1       6.138  -0.391   2.054  0.00  0.00    +0.037 A 
ATOM      6  C   UNL     1       5.326  -1.408   1.543  0.00  0.00    +0.015 A 
ATOM      7  C   UNL     1       4.022  -1.137   1.196  0.00  0.00    +0.026 A 
ATOM      8  C   UNL     1       3.511   0.148   1.353  0.00  0.00    +0.059 A 
ATOM      9  C   UNL     1       4.318   1.164   1.856  0.00  0.00    +0.026 A 
ATOM     10  C   UNL     1       5.621   0.898   2.211  0.00  0.00    +0.015 A 
BRANCH   8  11
ATOM     11  N   UNL     1       2.190   0.419   1.000  0.00  0.00    -0.144 N 
ATOM     12  C   UNL     1       1.187  -0.471   0.954  0.00  0.00    +0.240 C 
ATOM     13  O   UNL     1       1.371  -1.629   1.262  0.00  0.00    -0.274 OA
ATOM     14  C   UNL     1      -0.166  -0.000   0.512  0.00  0.00    +0.122 C 
ATOM     15  C   UNL     1      -0.225   1.544   0.655  0.00  0.00    +0.198 C 
ATOM     16  S   UNL     1       1.574   1.913   0.560  0.00  0.00    +0.052 S 
ATOM     17  O   UNL     1       1.981   2.114  -0.787  0.00  0.00    -0.155 OA
ATOM     18  O   UNL     1       1.964   2.808   1.592  0.00  0.00    -0.155 OA
ENDBRANCH   8  11
ENDBRANCH   2   5
BRANCH   1  19
ATOM     19  C   UNL     1       9.706   0.019   3.289  0.00  0.00    +0.097 C 
BRANCH  19  20
ATOM     20  C   UNL     1      10.400   1.318   3.705  0.00  0.00    +0.016 C 
BRANCH  20  25
ATOM     21  C   UNL     1      12.485   0.519   2.735  0.00  0.00    -0.078 C 
ATOM     22  C   UNL     1      13.986   0.802   2.992  0.00  0.00    -0.020 C 
ATOM     23  C   UNL     1      13.962   2.177   3.699  0.00  0.00    -0.020 C 
ATOM     24  C   UNL     1      12.543   2.304   4.285  0.00  0.00    -0.078 C 
ATOM     25  N   UNL     1      11.851   1.059   3.947  0.00  0.00    +0.387 N 
ATOM     26  H   UNL     1      11.949   0.388   4.718  0.00  0.00    -0.081 HD
ENDBRANCH  20  25
BRANCH  20  29
ATOM     27  C   UNL     1       8.527   3.006   6.392  0.00  0.00    +0.041 A 
ATOM     28  C   UNL     1       8.849   2.834   5.027  0.00  0.00    +0.043 A 
ATOM     29  C   UNL     1       9.762   1.848   4.963  0.00  0.00    +0.093 A 
ATOM     30  O   UNL     1      10.003   1.412   6.210  0.00  0.00    -0.469 OA
ATOM     31  C   UNL     1       9.261   2.115   7.082  0.00  0.00    +0.195 A 
ENDBRANCH  20  29
ENDBRANCH  19  20
ENDBRANCH   1  19
TORSDOF 6
