REMARK  Name = ZINC08253802
REMARK  6 active torsions:
REMARK  status: ('A' for Active; 'I' for Inactive)
REMARK    1  A    between atoms: C_5  and  C_7
REMARK    2  A    between atoms: C_10  and  C_13
REMARK    3  A    between atoms: C_13  and  N_14
REMARK    4  A    between atoms: C_22  and  O_29
REMARK    5  A    between atoms: N_30  and  C_33
REMARK    6  A    between atoms: C_33  and  C_34
REMARK                            x       y       z     vdW  Elec       q    Type
REMARK                         _______ _______ _______ _____ _____    ______ ____
ROOT
ATOM      1  N   UNL     1       1.862   1.484  -2.714  0.00  0.00    -0.300 N 
ATOM      2  C   UNL     1       2.223   0.384  -1.806  0.00  0.00    +0.140 C 
ATOM      3  C   UNL     1       0.923  -0.435  -1.683  0.00  0.00    +0.113 C 
ATOM      4  C   UNL     1       0.436  -0.377  -0.227  0.00  0.00    +0.123 C 
ATOM      5  C   UNL     1       1.512  -1.012   0.665  0.00  0.00    +0.051 C 
ATOM      6  C   UNL     1       2.821  -0.201   0.542  0.00  0.00    +0.158 C 
ATOM      7  C   UNL     1       2.599   0.957  -0.436  0.00  0.00    +0.227 C 
ATOM      8  O   UNL     1       1.495   1.787   0.043  0.00  0.00    -0.457 OA
ATOM      9  C   UNL     1       0.333   1.091   0.160  0.00  0.00    +0.313 C 
ATOM     10  O   UNL     1      -0.698   1.598   0.536  0.00  0.00    -0.250 OA
ATOM     11  N   UNL     1      -0.030   0.287  -2.538  0.00  0.00    -0.307 N 
ATOM     12  C   UNL     1       0.580   1.351  -3.077  0.00  0.00    +0.136 C 
ATOM     13  S   UNL     1      -0.208   2.443  -4.134  0.00  0.00    -0.018 S 
ENDROOT
BRANCH   6  14
ATOM     14  O   UNL     1       3.877  -1.035   0.060  0.00  0.00    -0.388 OA
ATOM     15  H   UNL     1       4.073  -1.790   0.631  0.00  0.00    +0.210 HD
ENDBRANCH   6  14
BRANCH   1  16
ATOM     16  C   UNL     1       2.762   2.554  -3.151  0.00  0.00    +0.142 C 
BRANCH  16  20
ATOM     17  C   UNL     1       4.780   1.351  -6.723  0.00  0.00    +0.000 A 
ATOM     18  C   UNL     1       3.590   2.071  -6.801  0.00  0.00    +0.010 A 
ATOM     19  C   UNL     1       2.942   2.456  -5.644  0.00  0.00    +0.006 A 
ATOM     20  C   UNL     1       3.473   2.129  -4.410  0.00  0.00    -0.030 A 
ATOM     21  C   UNL     1       4.657   1.420  -4.326  0.00  0.00    +0.006 A 
ATOM     22  C   UNL     1       5.311   1.024  -5.476  0.00  0.00    +0.010 A 
BRANCH  17  27
ATOM     23  C   UNL     1       7.314  -0.166  -9.040  0.00  0.00    +0.004 A 
ATOM     24  C   UNL     1       6.745   0.185 -10.255  0.00  0.00    +0.020 A 
ATOM     25  C   UNL     1       5.561   0.900 -10.269  0.00  0.00    +0.111 A 
ATOM     26  N   UNL     1       4.970   1.250  -9.145  0.00  0.00    -0.255 NA
ATOM     27  C   UNL     1       5.481   0.935  -7.962  0.00  0.00    +0.071 A 
ATOM     28  C   UNL     1       6.674   0.220  -7.875  0.00  0.00    +0.028 A 
ENDBRANCH  17  27
ENDBRANCH  16  20
ENDBRANCH   1  16
BRANCH  11  29
ATOM     29  C   UNL     1      -1.426  -0.096  -2.766  0.00  0.00    +0.110 C 
BRANCH  29  30
ATOM     30  C   UNL     1      -1.491  -1.154  -3.869  0.00  0.00    +0.006 C 
ATOM     31  C   UNL     1      -0.976  -0.557  -5.180  0.00  0.00    +0.005 C 
ATOM     32  C   UNL     1      -1.041  -1.615  -6.283  0.00  0.00    +0.000 C 
ATOM     33  C   UNL     1      -2.490  -2.074  -6.465  0.00  0.00    +0.000 C 
ATOM     34  C   UNL     1      -3.005  -2.671  -5.154  0.00  0.00    +0.000 C 
ATOM     35  C   UNL     1      -2.939  -1.612  -4.051  0.00  0.00    +0.005 C 
ENDBRANCH  29  30
ENDBRANCH  11  29
TORSDOF 6
