REMARK  Name = ZINC12769049
REMARK  6 active torsions:
REMARK  status: ('A' for Active; 'I' for Inactive)
REMARK    1  A    between atoms: C_1  and  C_2
REMARK    2  A    between atoms: C_6  and  N_9
REMARK    3  A    between atoms: C_10  and  C_12
REMARK    4  A    between atoms: C_12  and  S_13
REMARK    5  A    between atoms: S_13  and  C_14
REMARK    6  A    between atoms: N_21  and  C_24
REMARK                            x       y       z     vdW  Elec       q    Type
REMARK                         _______ _______ _______ _____ _____    ______ ____
ROOT
ATOM      1  C   UNL     1       0.379  -7.429   4.926  0.00  0.00    +0.194 A 
ATOM      2  N   UNL     1       0.065  -6.678   5.977  0.00  0.00    -0.183 NA
ATOM      3  C   UNL     1      -0.058  -7.208   7.185  0.00  0.00    +0.285 A 
ATOM      4  O   UNL     1      -0.378  -6.435   8.250  0.00  0.00    -0.265 OA
ATOM      5  C   UNL     1       0.151  -8.591   7.338  0.00  0.00    +0.105 A 
ATOM      6  C   UNL     1       0.110  -9.485   8.430  0.00  0.00    +0.150 A 
ATOM      7  N   UNL     1       0.390 -10.681   7.997  0.00  0.00    -0.172 NA
ATOM      8  N   UNL     1       0.627 -10.641   6.617  0.00  0.00    -0.214 N 
ATOM      9  C   UNL     1       0.481  -9.349   6.197  0.00  0.00    +0.171 A 
ATOM     10  N   UNL     1       0.578  -8.733   5.021  0.00  0.00    -0.202 NA
ENDROOT
BRANCH   8  11
ATOM     11  C   UNL     1       0.956 -11.735   5.808  0.00  0.00    +0.068 A 
ATOM     12  C   UNL     1       0.493 -11.798   4.500  0.00  0.00    +0.028 A 
ATOM     13  C   UNL     1       0.820 -12.879   3.704  0.00  0.00    +0.002 A 
ATOM     14  C   UNL     1       1.607 -13.897   4.209  0.00  0.00    +0.000 A 
ATOM     15  C   UNL     1       2.069 -13.838   5.511  0.00  0.00    +0.002 A 
ATOM     16  C   UNL     1       1.750 -12.758   6.310  0.00  0.00    +0.028 A 
ENDBRANCH   8  11
BRANCH   1  17
ATOM     17  S   UNL     1       0.526  -6.660   3.347  0.00  0.00    -0.077 S 
BRANCH  17  18
ATOM     18  C   UNL     1       0.179  -4.910   3.677  0.00  0.00    +0.173 C 
BRANCH  18  20
ATOM     19  N   UNL     1       0.053  -2.799   2.394  0.00  0.00    -0.282 N 
ATOM     20  C   UNL     1       0.273  -4.129   2.392  0.00  0.00    +0.228 C 
ATOM     21  O   UNL     1       0.548  -4.696   1.356  0.00  0.00    -0.275 OA
ATOM     22  H   UNL     1      -0.096  -2.334   3.232  0.00  0.00    +0.155 HD
BRANCH  19  28
ATOM     23  C   UNL     1      -2.445  -1.106  -1.491  0.00  0.00    +0.045 C 
ATOM     24  C   UNL     1      -1.160  -1.254  -0.717  0.00  0.00    -0.030 A 
ATOM     25  C   UNL     1       0.006  -0.688  -1.200  0.00  0.00    +0.006 A 
ATOM     26  C   UNL     1       1.187  -0.821  -0.493  0.00  0.00    +0.022 A 
ATOM     27  C   UNL     1       1.206  -1.521   0.699  0.00  0.00    +0.064 A 
ATOM     28  C   UNL     1       0.037  -2.090   1.187  0.00  0.00    +0.071 A 
ATOM     29  C   UNL     1      -1.149  -1.950   0.477  0.00  0.00    +0.066 A 
ATOM     30 CL   UNL     1      -2.615  -2.654   1.085  0.00  0.00    -0.081 Cl
ATOM     31 CL   UNL     1       2.690  -1.688   1.585  0.00  0.00    -0.082 Cl
ENDBRANCH  19  28
ENDBRANCH  18  20
ENDBRANCH  17  18
ENDBRANCH   1  17
TORSDOF 5
