REMARK  Name = ZINC14963064
REMARK  12 active torsions:
REMARK  status: ('A' for Active; 'I' for Inactive)
REMARK    1  A    between atoms: C_1  and  C_2
REMARK    2  A    between atoms: C_2  and  C_3
REMARK    3  A    between atoms: C_2  and  C_4
REMARK    4  A    between atoms: C_5  and  C_6
REMARK    5  A    between atoms: C_11  and  C_14
REMARK    6  A    between atoms: C_14  and  C_25
REMARK    7  A    between atoms: N_17  and  C_21
REMARK    8  A    between atoms: C_21  and  C_22
REMARK    9  A    between atoms: C_22  and  N_68
REMARK   10  A    between atoms: C_23  and  N_68
REMARK   11  A    between atoms: C_24  and  N_68
REMARK   12  A    between atoms: C_25  and  C_26
REMARK                            x       y       z     vdW  Elec       q    Type
REMARK                         _______ _______ _______ _____ _____    ______ ____
ROOT
ATOM      1  C   UNL     1      -0.753   2.040  -1.230  0.00  0.00    +0.119 C 
ATOM      2  C   UNL     1      -2.175   1.515  -1.259  0.00  0.00    +0.247 C 
ATOM      3  O   UNL     1      -3.047   1.718  -0.442  0.00  0.00    -0.273 OA
ATOM      4  N   UNL     1      -2.268   0.776  -2.382  0.00  0.00    -0.226 N 
ATOM      5  C   UNL     1      -1.114   0.761  -3.060  0.00  0.00    +0.309 C 
ATOM      6  O   UNL     1      -0.953   0.162  -4.105  0.00  0.00    -0.252 OA
ATOM      7  N   UNL     1      -0.154   1.484  -2.455  0.00  0.00    -0.284 N 
ATOM      8  H   UNL     1       0.756   1.613  -2.766  0.00  0.00    +0.151 HD
ENDROOT
BRANCH   1  14
ATOM      9  C   UNL     1       3.149  -0.645   1.467  0.00  0.00    +0.239 C 
ATOM     10  O   UNL     1       4.249  -0.128   1.435  0.00  0.00    -0.271 OA
ATOM     11  N   UNL     1       2.043   0.113   1.333  0.00  0.00    -0.298 N 
ATOM     12  C   UNL     1       0.714  -0.508   1.256  0.00  0.00    +0.108 C 
ATOM     13  C   UNL     1       0.006  -0.001  -0.004  0.00  0.00    +0.025 C 
ATOM     14  C   UNL     1      -0.016   1.530   0.009  0.00  0.00    +0.025 C 
ATOM     15  C   UNL     1       1.419   2.062   0.004  0.00  0.00    +0.025 C 
ATOM     16  C   UNL     1       2.144   1.577   1.264  0.00  0.00    +0.108 C 
BRANCH   9  18
ATOM     17  C   UNL     1       4.110  -2.835   1.882  0.00  0.00    -0.019 C 
ATOM     18  C   UNL     1       3.026  -2.100   1.651  0.00  0.00    +0.063 C 
BRANCH  17  20
ATOM     19  C   UNL     1       4.802  -5.046   0.998  0.00  0.00    +0.011 C 
ATOM     20  C   UNL     1       3.983  -4.325   2.071  0.00  0.00    +0.006 C 
ATOM     21  C   UNL     1       4.507  -4.709   3.456  0.00  0.00    +0.011 C 
ENDBRANCH  17  20
ENDBRANCH   9  18
ENDBRANCH   1  14
BRANCH   4  22
ATOM     22  C   UNL     1      -3.482   0.074  -2.808  0.00  0.00    +0.099 C 
BRANCH  22  23
ATOM     23  C   UNL     1      -4.322   0.999  -3.691  0.00  0.00    -0.060 C 
BRANCH  23  26
ATOM     24  C   UNL     1      -6.481   1.219  -4.765  0.00  0.00    -0.097 C 
ATOM     25  C   UNL     1      -5.213  -0.831  -5.002  0.00  0.00    -0.097 C 
ATOM     26  N   UNL     1      -5.552   0.285  -4.094  0.00  0.00    +0.377 N 
ATOM     27  H   UNL     1      -6.008  -0.094  -3.256  0.00  0.00    -0.083 HD
ENDBRANCH  23  26
ENDBRANCH  22  23
ENDBRANCH   4  22
BRANCH   1  28
ATOM     28  C   UNL     1      -0.744   3.569  -1.269  0.00  0.00    +0.070 C 
BRANCH  28  29
ATOM     29  C   UNL     1      -1.475   4.046  -2.497  0.00  0.00    -0.042 A 
ATOM     30  C   UNL     1      -2.836   4.286  -2.442  0.00  0.00    +0.004 A 
ATOM     31  C   UNL     1      -3.508   4.723  -3.568  0.00  0.00    +0.003 A 
ATOM     32  C   UNL     1      -2.821   4.920  -4.751  0.00  0.00    +0.038 A 
ATOM     33  C   UNL     1      -1.458   4.679  -4.808  0.00  0.00    +0.124 A 
ATOM     34  C   UNL     1      -0.785   4.247  -3.677  0.00  0.00    +0.042 A 
ATOM     35  F   UNL     1      -0.785   4.872  -5.963  0.00  0.00    -0.205 F 
ENDBRANCH  28  29
ENDBRANCH   1  28
TORSDOF 8
