REMARK  Name = ZINC44939517
REMARK  11 active torsions:
REMARK  status: ('A' for Active; 'I' for Inactive)
REMARK    1  A    between atoms: C_1  and  C_2
REMARK    2  A    between atoms: C_2  and  C_3
REMARK    3  A    between atoms: C_2  and  N_4
REMARK    4  A    between atoms: N_4  and  S_5
REMARK    5  A    between atoms: S_5  and  C_8
REMARK    6  A    between atoms: C_11  and  O_35
REMARK    7  A    between atoms: C_12  and  N_14
REMARK    8  A    between atoms: C_15  and  C_17
REMARK    9  A    between atoms: N_22  and  C_24
REMARK   10  A    between atoms: C_24  and  C_25
REMARK   11  A    between atoms: O_35  and  C_36
REMARK                            x       y       z     vdW  Elec       q    Type
REMARK                         _______ _______ _______ _____ _____    ______ ____
ROOT
ATOM      1  N   UNL     1      -1.616  -6.030   2.354  0.00  0.00    -0.282 N 
ATOM      2  C   UNL     1      -2.770  -5.584   2.887  0.00  0.00    +0.219 C 
ATOM      3  O   UNL     1      -3.385  -4.691   2.343  0.00  0.00    -0.275 OA
ATOM      4  H   UNL     1      -1.164  -6.794   2.745  0.00  0.00    +0.155 HD
ENDROOT
BRANCH   2   5
ATOM      5  C   UNL     1      -3.297  -6.194   4.161  0.00  0.00    +0.059 C 
ATOM      6  C   UNL     1      -2.273  -5.998   5.283  0.00  0.00    +0.009 C 
ATOM      7  C   UNL     1      -2.851  -6.552   6.589  0.00  0.00    -0.018 C 
ATOM      8  C   UNL     1      -4.180  -5.855   6.888  0.00  0.00    -0.078 C 
ATOM      9  N   UNL     1      -5.123  -6.101   5.791  0.00  0.00    +0.383 N 
ATOM     10  C   UNL     1      -4.610  -5.511   4.549  0.00  0.00    -0.066 C 
ATOM     11  H   UNL     1      -5.240  -7.095   5.666  0.00  0.00    -0.081 HD
BRANCH   9  12
ATOM     12  C   UNL     1      -6.421  -5.495   6.119  0.00  0.00    -0.042 C 
BRANCH  12  13
ATOM     13  C   UNL     1      -7.016  -6.198   7.312  0.00  0.00    -0.056 A 
ATOM     14  C   UNL     1      -6.979  -5.611   8.540  0.00  0.00    +0.002 A 
ATOM     15  C   UNL     1      -7.523  -6.245   9.655  0.00  0.00    +0.001 A 
ATOM     16  C   UNL     1      -8.108  -7.470   9.549  0.00  0.00    +0.008 A 
ATOM     17  C   UNL     1      -8.166  -8.106   8.297  0.00  0.00    -0.018 A 
ATOM     18  C   UNL     1      -7.617  -7.459   7.162  0.00  0.00    -0.017 A 
ATOM     19  C   UNL     1      -7.681  -8.093   5.910  0.00  0.00    +0.009 A 
ATOM     20  C   UNL     1      -8.271  -9.315   5.802  0.00  0.00    +0.001 A 
ATOM     21  C   UNL     1      -8.816  -9.949   6.918  0.00  0.00    +0.001 A 
ATOM     22  C   UNL     1      -8.762  -9.371   8.149  0.00  0.00    +0.008 A 
ENDBRANCH  12  13
ENDBRANCH   9  12
ENDBRANCH   2   5
BRANCH   1  27
ATOM     23  C   UNL     1      -0.917  -3.469  -0.194  0.00  0.00    +0.107 A 
ATOM     24  C   UNL     1       0.015  -4.123  -0.979  0.00  0.00    +0.032 A 
ATOM     25  C   UNL     1       0.409  -5.410  -0.663  0.00  0.00    +0.049 A 
ATOM     26  C   UNL     1      -0.129  -6.048   0.443  0.00  0.00    +0.141 A 
ATOM     27  C   UNL     1      -1.068  -5.389   1.234  0.00  0.00    +0.077 A 
ATOM     28  C   UNL     1      -1.455  -4.096   0.914  0.00  0.00    +0.055 A 
BRANCH  23  29
ATOM     29  S   UNL     1      -1.416  -1.830  -0.604  0.00  0.00    +0.059 S 
ATOM     30  O   UNL     1      -2.699  -1.638  -0.024  0.00  0.00    -0.153 OA
ATOM     31  O   UNL     1      -1.177  -1.668  -1.995  0.00  0.00    -0.153 OA
BRANCH  29  32
ATOM     32  N   UNL     1      -0.385  -0.795   0.177  0.00  0.00    -0.187 NA
ATOM     33  H   UNL     1      -0.722  -0.206   0.870  0.00  0.00    +0.148 HD
BRANCH  32  35
ATOM     34  C   UNL     1       1.566   0.661  -0.063  0.00  0.00    +0.025 C 
ATOM     35  C   UNL     1       1.036  -0.770  -0.179  0.00  0.00    +0.070 C 
ATOM     36  C   UNL     1       1.816  -1.681   0.771  0.00  0.00    +0.025 C 
ENDBRANCH  32  35
ENDBRANCH  29  32
ENDBRANCH  23  29
BRANCH  26  37
ATOM     37  O   UNL     1       0.257  -7.314   0.755  0.00  0.00    -0.493 OA
ATOM     38  C   UNL     1       1.223  -7.927  -0.102  0.00  0.00    +0.277 C 
ENDBRANCH  26  37
ENDBRANCH   1  27
TORSDOF 8
