REMARK  Name = ZINC59488082
REMARK  7 active torsions:
REMARK  status: ('A' for Active; 'I' for Inactive)
REMARK    1  A    between atoms: C_1  and  C_2
REMARK    2  A    between atoms: C_2  and  O_3
REMARK    3  A    between atoms: O_3  and  C_4
REMARK    4  A    between atoms: C_11  and  S_13
REMARK    5  A    between atoms: S_13  and  C_14
REMARK    6  A    between atoms: C_17  and  C_23
REMARK    7  A    between atoms: C_19  and  N_20
REMARK                            x       y       z     vdW  Elec       q    Type
REMARK                         _______ _______ _______ _____ _____    ______ ____
ROOT
ATOM      1  C   UNL     1       1.516  -9.114   2.231  0.00  0.00    +0.045 A 
ATOM      2  C   UNL     1       0.944  -8.615   1.067  0.00  0.00    +0.018 A 
ATOM      3  C   UNL     1       0.441  -9.484   0.119  0.00  0.00    +0.008 A 
ATOM      4  C   UNL     1       0.506 -10.850   0.328  0.00  0.00    -0.011 A 
ATOM      5  C   UNL     1       1.074 -11.350   1.485  0.00  0.00    +0.040 A 
ATOM      6  C   UNL     1       1.584 -10.486   2.435  0.00  0.00    +0.140 A 
ENDROOT
BRANCH   4   7
ATOM      7  C   UNL     1      -0.045 -11.796  -0.708  0.00  0.00    +0.172 C 
ATOM      8  N   UNL     1       0.065 -11.175  -2.034  0.00  0.00    -0.291 NA
ATOM      9  C   UNL     1      -0.292 -12.152  -3.082  0.00  0.00    +0.067 C 
ATOM     10  C   UNL     1      -1.628 -12.795  -2.700  0.00  0.00    +0.019 C 
ATOM     11  C   UNL     1      -1.979 -13.899  -3.697  0.00  0.00    +0.002 C 
ATOM     12  C   UNL     1      -0.890 -14.975  -3.659  0.00  0.00    +0.001 C 
ATOM     13  C   UNL     1       0.444 -14.348  -4.067  0.00  0.00    +0.014 C 
ATOM     14  C   UNL     1       0.816 -13.204  -3.130  0.00  0.00    +0.092 C 
ATOM     15  C   UNL     1       1.084 -13.722  -1.748  0.00  0.00    +0.219 C 
ATOM     16  O   UNL     1       1.665 -14.778  -1.616  0.00  0.00    -0.275 OA
ATOM     17  N   UNL     1       0.699 -13.049  -0.656  0.00  0.00    -0.296 N 
ATOM     18  H   UNL     1      -0.514 -10.351  -2.095  0.00  0.00    +0.124 HD
ATOM     19  H   UNL     1       0.926 -13.415   0.214  0.00  0.00    +0.151 HD
ENDBRANCH   4   7
BRANCH   6  20
ATOM     20  N   UNL     1       2.198 -11.022   3.671  0.00  0.00    +0.058 N 
ATOM     21  O   UNL     1       2.257 -12.217   3.847  0.00  0.00    -0.126 OA
ATOM     22  O   UNL     1       2.640 -10.265   4.503  0.00  0.00    -0.126 OA
ENDBRANCH   6  20
BRANCH   1  23
ATOM     23  S   UNL     1       2.159  -8.008   3.442  0.00  0.00    -0.060 S 
BRANCH  23  31
ATOM     24  C   UNL     1      -2.634  -8.105   8.096  0.00  0.00    +0.122 A 
ATOM     25  C   UNL     1      -3.118  -8.868   7.037  0.00  0.00    +0.048 A 
ATOM     26  C   UNL     1      -2.380  -9.061   5.899  0.00  0.00    +0.032 A 
ATOM     27  C   UNL     1      -1.094  -8.488   5.764  0.00  0.00    +0.080 A 
ATOM     28  C   UNL     1      -0.634  -7.719   6.856  0.00  0.00    +0.043 A 
ATOM     29  C   UNL     1      -1.379  -7.524   7.992  0.00  0.00    +0.062 A 
ATOM     30  S   UNL     1       0.970  -7.193   6.301  0.00  0.00    -0.061 S 
ATOM     31  C   UNL     1       0.931  -7.998   4.706  0.00  0.00    +0.140 A 
ATOM     32  N   UNL     1      -0.246  -8.582   4.715  0.00  0.00    -0.232 NA
BRANCH  24  33
ATOM     33  O   UNL     1      -3.385  -7.928   9.216  0.00  0.00    -0.492 OA
BRANCH  33  35
ATOM     34  C   UNL     1      -5.358  -8.249  10.573  0.00  0.00    +0.048 C 
ATOM     35  C   UNL     1      -4.666  -8.560   9.245  0.00  0.00    +0.225 C 
ENDBRANCH  33  35
ENDBRANCH  24  33
ENDBRANCH  23  31
ENDBRANCH   1  23
TORSDOF 6
