REMARK  Name = ZINC08871038
REMARK  10 active torsions:
REMARK  status: ('A' for Active; 'I' for Inactive)
REMARK    1  A    between atoms: C_1  and  C_2
REMARK    2  A    between atoms: C_2  and  C_3
REMARK    3  A    between atoms: C_3  and  C_4
REMARK    4  A    between atoms: C_4  and  C_5
REMARK    5  A    between atoms: C_8  and  N_11
REMARK    6  A    between atoms: C_12  and  N_34
REMARK    7  A    between atoms: C_13  and  C_24
REMARK    8  A    between atoms: C_24  and  O_26
REMARK    9  A    between atoms: O_26  and  C_27
REMARK   10  A    between atoms: C_27  and  C_28
REMARK                            x       y       z     vdW  Elec       q    Type
REMARK                         _______ _______ _______ _____ _____    ______ ____
ROOT
ATOM      1  N   UNL     1      -0.230   5.463   0.035  0.00  0.00    -0.280 N 
ATOM      2  C   UNL     1      -1.581   5.641   0.048  0.00  0.00    +0.119 A 
ATOM      3  C   UNL     1      -2.233   4.412   0.047  0.00  0.00    +0.126 A 
ATOM      4  C   UNL     1      -1.181   3.381   0.032  0.00  0.00    +0.125 A 
ATOM      5  C   UNL     1       0.085   4.118   0.024  0.00  0.00    +0.167 A 
ATOM      6  N   UNL     1       1.221   3.453   0.009  0.00  0.00    -0.225 NA
ATOM      7  C   UNL     1       1.209   2.114   0.002  0.00  0.00    +0.092 A 
ATOM      8  C   UNL     1       2.419   1.395  -0.013  0.00  0.00    +0.030 A 
ATOM      9  C   UNL     1       2.398   0.034  -0.020  0.00  0.00    +0.002 A 
ATOM     10  C   UNL     1       1.191  -0.664  -0.013  0.00  0.00    +0.002 A 
ATOM     11  C   UNL     1       0.002  -0.004   0.002  0.00  0.00    +0.030 A 
ATOM     12  C   UNL     1      -0.017   1.403   0.010  0.00  0.00    +0.090 A 
ATOM     13  N   UNL     1      -1.181   2.063   0.030  0.00  0.00    -0.241 NA
ENDROOT
BRANCH   1  17
ATOM     14  C   UNL     1       2.567   8.553   0.025  0.00  0.00    -0.047 A 
ATOM     15  C   UNL     1       1.718   8.388  -1.054  0.00  0.00    +0.005 A 
ATOM     16  C   UNL     1       0.790   7.364  -1.054  0.00  0.00    +0.026 A 
ATOM     17  C   UNL     1       0.710   6.502   0.031  0.00  0.00    +0.050 A 
ATOM     18  C   UNL     1       1.560   6.674   1.115  0.00  0.00    +0.026 A 
ATOM     19  C   UNL     1       2.490   7.696   1.107  0.00  0.00    +0.005 A 
BRANCH  14  20
ATOM     20  C   UNL     1       3.578   9.670   0.022  0.00  0.00    +0.035 C 
BRANCH  20  21
ATOM     21  C   UNL     1       2.957  10.923   0.644  0.00  0.00    +0.004 C 
BRANCH  21  23
ATOM     22  C   UNL     1       3.363  13.309   1.262  0.00  0.00    +0.004 C 
ATOM     23  C   UNL     1       3.984  12.057   0.640  0.00  0.00    -0.003 C 
ENDBRANCH  21  23
ENDBRANCH  20  21
ENDBRANCH  14  20
ENDBRANCH   1  17
BRANCH   2  24
ATOM     24  N   UNL     1      -2.209   6.859   0.062  0.00  0.00    -0.343 N 
ATOM     25  H   UNL     1      -3.178   6.905   0.071  0.00  0.00    +0.144 HD
ATOM     26  H   UNL     1      -1.684   7.675   0.062  0.00  0.00    +0.144 HD
ENDBRANCH   2  24
BRANCH   3  27
ATOM     27  C   UNL     1      -3.632   4.195   0.059  0.00  0.00    +0.345 C 
ATOM     28  O   UNL     1      -4.224   4.095   1.117  0.00  0.00    -0.245 OA
BRANCH  27  29
ATOM     29  O   UNL     1      -4.310   4.098  -1.105  0.00  0.00    -0.458 OA
BRANCH  29  30
ATOM     30  C   UNL     1      -5.719   3.879  -1.018  0.00  0.00    +0.264 C 
BRANCH  30  31
ATOM     31  C   UNL     1      -6.310   3.798  -2.427  0.00  0.00    +0.156 C 
ATOM     32  C   UNL     1      -7.847   3.676  -2.345  0.00  0.00    +0.037 C 
ATOM     33  C   UNL     1      -8.159   2.663  -3.479  0.00  0.00    +0.031 C 
ATOM     34  C   UNL     1      -6.909   1.749  -3.409  0.00  0.00    +0.160 C 
ATOM     35  O   UNL     1      -5.819   2.629  -3.094  0.00  0.00    -0.373 OA
ENDBRANCH  30  31
ENDBRANCH  29  30
ENDBRANCH  27  29
ENDBRANCH   3  27
TORSDOF 9
