REMARK  Name = ZINC15034117
REMARK  6 active torsions:
REMARK  status: ('A' for Active; 'I' for Inactive)
REMARK    1  A    between atoms: C_1  and  O_2
REMARK    2  A    between atoms: O_2  and  C_3
REMARK    3  A    between atoms: C_6  and  C_9
REMARK    4  A    between atoms: C_11  and  C_14
REMARK    5  A    between atoms: C_14  and  N_50
REMARK    6  A    between atoms: C_22  and  C_24
REMARK                            x       y       z     vdW  Elec       q    Type
REMARK                         _______ _______ _______ _____ _____    ______ ____
ROOT
ATOM      1  C   UNL     1      -1.192  -1.970  -0.802  0.00  0.00    -0.072 C 
ATOM      2  C   UNL     1      -1.782  -2.363   0.562  0.00  0.00    +0.024 C 
ATOM      3  C   UNL     1      -1.046  -1.598   1.614  0.00  0.00    -0.010 A 
ATOM      4  C   UNL     1      -0.227  -0.527   1.417  0.00  0.00    -0.047 A 
ATOM      5  C   UNL     1       0.357   0.027   2.554  0.00  0.00    +0.010 A 
ATOM      6  C   UNL     1       0.097  -0.500   3.773  0.00  0.00    +0.045 A 
ATOM      7  S   UNL     1      -1.013  -1.840   3.367  0.00  0.00    -0.101 S 
ATOM      8  C   UNL     1       0.002  -0.004   0.002  0.00  0.00    -0.005 C 
ATOM      9  N   UNL     1      -1.104  -0.491  -0.856  0.00  0.00    +0.393 N 
ATOM     10  H   UNL     1      -1.987  -0.095  -0.513  0.00  0.00    -0.080 HD
ENDROOT
BRANCH   8  11
ATOM     11  C   UNL     1      -0.018   1.503   0.010  0.00  0.00    -0.057 A 
ATOM     12  C   UNL     1      -1.225   2.178   0.020  0.00  0.00    +0.002 A 
ATOM     13  C   UNL     1      -1.244   3.560   0.032  0.00  0.00    +0.000 A 
ATOM     14  C   UNL     1      -0.056   4.267   0.025  0.00  0.00    +0.000 A 
ATOM     15  C   UNL     1       1.151   3.592   0.010  0.00  0.00    +0.000 A 
ATOM     16  C   UNL     1       1.169   2.210   0.003  0.00  0.00    +0.002 A 
ENDBRANCH   8  11
BRANCH   9  17
ATOM     17  C   UNL     1      -0.890  -0.051  -2.248  0.00  0.00    +0.023 C 
BRANCH  17  20
ATOM     18  C   UNL     1      -3.556  -1.347  -4.281  0.00  0.00    +0.202 A 
ATOM     19  N   UNL     1      -3.072  -0.394  -3.452  0.00  0.00    -0.193 NA
ATOM     20  C   UNL     1      -1.857  -0.776  -3.147  0.00  0.00    +0.211 A 
ATOM     21  O   UNL     1      -1.638  -1.933  -3.780  0.00  0.00    -0.340 OA
ATOM     22  N   UNL     1      -2.617  -2.247  -4.423  0.00  0.00    -0.056 NA
BRANCH  18  26
ATOM     23  C   UNL     1      -7.412  -1.415  -6.075  0.00  0.00    +0.120 A 
ATOM     24  C   UNL     1      -6.515  -2.446  -6.320  0.00  0.00    +0.046 A 
ATOM     25  C   UNL     1      -5.264  -2.427  -5.740  0.00  0.00    +0.015 A 
ATOM     26  C   UNL     1      -4.901  -1.371  -4.907  0.00  0.00    +0.023 A 
ATOM     27  C   UNL     1      -5.805  -0.340  -4.657  0.00  0.00    +0.015 A 
ATOM     28  C   UNL     1      -7.052  -0.361  -5.245  0.00  0.00    +0.046 A 
BRANCH  23  30
ATOM     29  C   UNL     1      -9.515  -0.344  -6.352  0.00  0.00    +0.277 C 
ATOM     30  O   UNL     1      -8.643  -1.436  -6.648  0.00  0.00    -0.495 OA
ENDBRANCH  23  30
ENDBRANCH  18  26
ENDBRANCH  17  20
ENDBRANCH   9  17
TORSDOF 5
