REMARK  Name = ZINC43736460
REMARK  14 active torsions:
REMARK  status: ('A' for Active; 'I' for Inactive)
REMARK    1  A    between atoms: C_1  and  C_2
REMARK    2  A    between atoms: C_3  and  C_34
REMARK    3  A    between atoms: C_5  and  C_33
REMARK    4  A    between atoms: C_8  and  C_32
REMARK    5  A    between atoms: C_21  and  C_31
REMARK    6  A    between atoms: C_24  and  O_27
REMARK    7  A    between atoms: O_27  and  C_28
REMARK    8  A    between atoms: C_28  and  C_30
REMARK    9  A    between atoms: C_34  and  C_35
REMARK   10  A    between atoms: C_35  and  C_36
REMARK   11  A    between atoms: C_36  and  C_38
REMARK   12  A    between atoms: C_36  and  C_39
REMARK   13  A    between atoms: C_39  and  N_40
REMARK   14  A    between atoms: C_41  and  C_43
REMARK                            x       y       z     vdW  Elec       q    Type
REMARK                         _______ _______ _______ _____ _____    ______ ____
ROOT
ATOM      1  C   UNL     1      -0.018   1.503   0.010  0.00  0.00    +0.043 C 
ATOM      2  C   UNL     1       0.002  -0.004   0.002  0.00  0.00    -0.028 C 
ATOM      3  C   UNL     1       0.008  -0.774  -1.063  0.00  0.00    +0.098 C 
ATOM      4  O   UNL     1       0.040  -2.095  -0.779  0.00  0.00    -0.490 OA
ATOM      5  C   UNL     1      -0.339  -2.288   0.597  0.00  0.00    +0.115 C 
ATOM      6  C   UNL     1       0.026  -0.906   1.222  0.00  0.00    +0.068 C 
ATOM      7  C   UNL     1       1.504  -1.082   1.673  0.00  0.00    -0.019 C 
ATOM      8  C   UNL     1       2.363  -0.991   0.409  0.00  0.00    +0.008 C 
ATOM      9  C   UNL     1       3.773  -1.502   0.688  0.00  0.00    +0.005 C 
ATOM     10  C   UNL     1       3.697  -2.983   1.077  0.00  0.00    +0.003 C 
ATOM     11  C   UNL     1       2.885  -3.114   2.363  0.00  0.00    +0.000 C 
ATOM     12  C   UNL     1       1.501  -2.521   2.214  0.00  0.00    +0.003 C 
ATOM     13  C   UNL     1       0.618  -3.312   1.238  0.00  0.00    +0.052 C 
ATOM     14  C   UNL     1       2.770  -4.601   2.719  0.00  0.00    +0.031 C 
ATOM     15  C   UNL     1       4.144  -5.196   2.813  0.00  0.00    -0.027 C 
ATOM     16  C   UNL     1       5.168  -4.721   2.167  0.00  0.00    -0.064 C 
ATOM     17  C   UNL     1       5.105  -3.521   1.275  0.00  0.00    -0.008 C 
ATOM     18  C   UNL     1       5.729  -3.872  -0.079  0.00  0.00    +0.015 C 
ATOM     19  C   UNL     1       7.141  -4.418   0.141  0.00  0.00    +0.046 C 
ATOM     20  C   UNL     1       7.075  -5.710   0.957  0.00  0.00    +0.180 C 
ATOM     21  C   UNL     1       6.510  -5.414   2.331  0.00  0.00    +0.075 C 
ATOM     22  C   UNL     1       5.955  -2.412   1.900  0.00  0.00    +0.016 C 
ATOM     23  C   UNL     1       1.913  -0.063   2.738  0.00  0.00    +0.012 C 
ATOM     24  C   UNL     1      -1.812  -2.671   0.760  0.00  0.00    +0.056 C 
ENDROOT
BRANCH  20  25
ATOM     25  O   UNL     1       6.230  -6.651   0.290  0.00  0.00    -0.461 OA
BRANCH  25  26
ATOM     26  C   UNL     1       6.511  -7.952   0.463  0.00  0.00    +0.304 C 
ATOM     27  O   UNL     1       7.443  -8.281   1.157  0.00  0.00    -0.251 OA
ATOM     28  C   UNL     1       5.663  -9.001  -0.209  0.00  0.00    +0.136 C 
ENDBRANCH  25  26
ENDBRANCH  20  25
BRANCH   3  29
ATOM     29  C   UNL     1      -0.018  -0.235  -2.470  0.00  0.00    +0.074 C 
BRANCH  29  30
ATOM     30  C   UNL     1       1.412  -0.139  -3.006  0.00  0.00    +0.012 C 
BRANCH  30  31
ATOM     31  C   UNL     1       1.386   0.409  -4.435  0.00  0.00    +0.003 C 
ATOM     32  C   UNL     1       0.861   1.846  -4.420  0.00  0.00    +0.009 C 
BRANCH  31  33
ATOM     33  C   UNL     1       2.801   0.389  -5.015  0.00  0.00    +0.107 C 
BRANCH  33  34
ATOM     34  N   UNL     1       2.759   0.800  -6.420  0.00  0.00    -0.315 N 
ATOM     35  C   UNL     1       3.897   0.857  -7.140  0.00  0.00    +0.210 C 
ATOM     36  O   UNL     1       4.956   0.568  -6.625  0.00  0.00    -0.276 OA
ATOM     37  C   UNL     1       3.853   1.280  -8.586  0.00  0.00    +0.109 C 
ATOM     38  H   UNL     1       1.912   1.031  -6.833  0.00  0.00    +0.149 HD
ENDBRANCH  33  34
ENDBRANCH  31  33
ENDBRANCH  30  31
ENDBRANCH  29  30
ENDBRANCH   3  29
TORSDOF 7
