REMARK  Name = ZINC44877092
REMARK  9 active torsions:
REMARK  status: ('A' for Active; 'I' for Inactive)
REMARK    1  A    between atoms: C_1  and  C_2
REMARK    2  A    between atoms: C_2  and  C_4
REMARK    3  A    between atoms: C_2  and  N_11
REMARK    4  A    between atoms: C_12  and  C_14
REMARK    5  A    between atoms: C_14  and  C_16
REMARK    6  A    between atoms: C_14  and  C_19
REMARK    7  A    between atoms: C_16  and  C_17
REMARK    8  A    between atoms: C_16  and  C_18
REMARK    9  A    between atoms: N_20  and  O_21
REMARK                            x       y       z     vdW  Elec       q    Type
REMARK                         _______ _______ _______ _____ _____    ______ ____
ROOT
ATOM      1  N   UNL     1       0.654  -0.505   1.198  0.00  0.00    -0.308 N 
ATOM      2  C   UNL     1       0.006  -0.752   2.354  0.00  0.00    +0.224 C 
ATOM      3  O   UNL     1      -1.193  -0.584   2.425  0.00  0.00    -0.275 OA
ATOM      4  H   UNL     1       1.621  -0.573   1.160  0.00  0.00    +0.149 HD
ENDROOT
BRANCH   1   6
ATOM      5  C   UNL     1      -0.361   1.375   0.007  0.00  0.00    +0.033 C 
ATOM      6  C   UNL     1      -0.102  -0.133  -0.000  0.00  0.00    +0.100 C 
BRANCH   6   7
ATOM      7  C   UNL     1       0.691  -0.501  -1.228  0.00  0.00    -0.026 A 
ATOM      8  C   UNL     1       2.059  -0.306  -1.252  0.00  0.00    +0.005 A 
ATOM      9  C   UNL     1       2.787  -0.643  -2.377  0.00  0.00    +0.001 A 
ATOM     10  C   UNL     1       2.146  -1.175  -3.481  0.00  0.00    +0.015 A 
ATOM     11  C   UNL     1       0.777  -1.370  -3.458  0.00  0.00    +0.018 A 
ATOM     12  C   UNL     1       0.050  -1.038  -2.329  0.00  0.00    +0.020 A 
ATOM     13 BR   UNL     1      -0.100  -2.097  -4.967  0.00  0.00    -0.050 Br
ENDBRANCH   6   7
ENDBRANCH   1   6
BRANCH   2  14
ATOM     14  C   UNL     1       0.771  -1.238   3.558  0.00  0.00    +0.144 C 
BRANCH  14  15
ATOM     15  C   UNL     1       0.808  -2.745   3.555  0.00  0.00    +0.144 C 
ATOM     16  N   UNL     1      -0.069  -3.413   4.228  0.00  0.00    -0.076 NA
ATOM     17  N   UNL     1       1.777  -3.409   2.836  0.00  0.00    -0.343 N 
ATOM     18  H   UNL     1       2.436  -2.906   2.331  0.00  0.00    +0.144 HD
ATOM     19  H   UNL     1       1.801  -4.378   2.834  0.00  0.00    +0.144 HD
BRANCH  16  20
ATOM     20  O   UNL     1      -0.035  -4.829   4.225  0.00  0.00    -0.408 OA
ATOM     21  H   UNL     1      -0.730  -5.240   4.756  0.00  0.00    +0.328 HD
ENDBRANCH  16  20
ENDBRANCH  14  15
BRANCH  14  22
ATOM     22  C   UNL     1       0.083  -0.747   4.832  0.00  0.00    +0.002 C 
ATOM     23  C   UNL     1       0.846  -1.260   6.055  0.00  0.00    +0.008 C 
ATOM     24  C   UNL     1       0.067   0.783   4.846  0.00  0.00    +0.008 C 
ENDBRANCH  14  22
ENDBRANCH   2  14
TORSDOF 6
