REMARK  Name = ZINC51036516
REMARK  4 active torsions:
REMARK  status: ('A' for Active; 'I' for Inactive)
REMARK    1  A    between atoms: C_3  and  S_12
REMARK    2  A    between atoms: C_6  and  C_7
REMARK    3  A    between atoms: N_8  and  O_9
REMARK    4  A    between atoms: S_12  and  C_13
REMARK                            x       y       z     vdW  Elec       q    Type
REMARK                         _______ _______ _______ _____ _____    ______ ____
ROOT
ATOM      1  C   UNL     1      -0.097   1.384  -0.136  0.00  0.00    +0.012 A 
ATOM      2  C   UNL     1       1.058   2.135  -0.155  0.00  0.00    +0.018 A 
ATOM      3  C   UNL     1       2.292   1.519   0.018  0.00  0.00    +0.049 A 
ATOM      4  C   UNL     1       2.365   0.142   0.213  0.00  0.00    +0.138 A 
ATOM      5  C   UNL     1       1.211  -0.614   0.234  0.00  0.00    +0.051 A 
ATOM      6  C   UNL     1      -0.029   0.004   0.059  0.00  0.00    +0.020 A 
ATOM      7  F   UNL     1       3.565  -0.455   0.382  0.00  0.00    -0.204 F 
ENDROOT
BRANCH   6   8
ATOM      8  C   UNL     1      -1.268  -0.803   0.081  0.00  0.00    +0.162 C 
ATOM      9  N   UNL     1      -2.299  -0.432  -0.622  0.00  0.00    -0.072 NA
ATOM     10  N   UNL     1      -1.331  -1.954   0.849  0.00  0.00    -0.340 N 
ATOM     11  H   UNL     1      -0.563  -2.230   1.373  0.00  0.00    +0.144 HD
ATOM     12  H   UNL     1      -2.144  -2.483   0.863  0.00  0.00    +0.144 HD
BRANCH   9  13
ATOM     13  O   UNL     1      -2.194   0.670  -1.505  0.00  0.00    -0.408 OA
ATOM     14  H   UNL     1      -3.011   0.870  -1.983  0.00  0.00    +0.328 HD
ENDBRANCH   9  13
ENDBRANCH   6   8
BRANCH   3  15
ATOM     15  S   UNL     1       3.768   2.483  -0.009  0.00  0.00    -0.065 S 
BRANCH  15  16
ATOM     16  C   UNL     1       4.256   2.561   1.683  0.00  0.00    +0.130 A 
ATOM     17  C   UNL     1       5.458   3.169   2.051  0.00  0.00    +0.118 A 
ATOM     18  C   UNL     1       5.804   3.207   3.412  0.00  0.00    +0.182 A 
ATOM     19  N   UNL     1       6.991   3.837   3.496  0.00  0.00    -0.216 NA
ATOM     20  H   UNL     1       6.547   3.933   0.420  0.00  0.00    +0.167 HD
ATOM     21  C   UNL     1       7.392   4.183   2.304  0.00  0.00    +0.199 A 
ATOM     22  N   UNL     1       6.486   3.796   1.378  0.00  0.00    -0.341 N 
ATOM     23  N   UNL     1       4.968   2.661   4.301  0.00  0.00    -0.214 NA
ATOM     24  C   UNL     1       3.846   2.099   3.908  0.00  0.00    +0.224 A 
ATOM     25  N   UNL     1       3.485   2.048   2.638  0.00  0.00    -0.227 NA
ENDBRANCH  15  16
ENDBRANCH   3  15
TORSDOF 4
