REMARK  Name = ZINC03141050
REMARK  4 active torsions:
REMARK  status: ('A' for Active; 'I' for Inactive)
REMARK    1  A    between atoms: N_9  and  C_10
REMARK    2  A    between atoms: C_10  and  N_11
REMARK    3  A    between atoms: N_13  and  C_14
REMARK    4  A    between atoms: C_14  and  N_15
REMARK                            x       y       z     vdW  Elec       q    Type
REMARK                         _______ _______ _______ _____ _____    ______ ____
ROOT
ATOM      1  N   UNL     1      -4.024   3.753  -0.621  0.00  0.00    -0.339 N 
ATOM      2  C   UNL     1      -5.222   3.543  -1.262  0.00  0.00    +0.171 C 
ATOM      3  N   UNL     1      -5.274   3.543  -2.636  0.00  0.00    -0.339 N 
ATOM      4  H   UNL     1      -3.216   3.900  -1.137  0.00  0.00    +0.164 HD
ATOM      5  H   UNL     1      -7.200   3.189  -0.930  0.00  0.00    +0.159 HD
ATOM      6  H   UNL     1      -4.467   3.691  -3.153  0.00  0.00    +0.164 HD
ATOM      7  N   UNL     1      -6.288   3.348  -0.500  0.00  0.00    -0.371 N 
ATOM      8  H   UNL     1      -6.197   3.358   0.522  0.00  0.00    +0.159 HD
ENDROOT
BRANCH   1   9
ATOM      9  C   UNL     1      -3.968   3.753   0.843  0.00  0.00    +0.263 C 
BRANCH   9  18
ATOM     10  C   UNL     1       0.695   1.679   2.144  0.00  0.00    +0.002 A 
ATOM     11  C   UNL     1      -0.444   0.987   1.752  0.00  0.00    +0.002 A 
ATOM     12  C   UNL     1      -1.591   1.659   1.436  0.00  0.00    +0.030 A 
ATOM     13  C   UNL     1      -1.624   3.047   1.517  0.00  0.00    +0.091 A 
ATOM     14  C   UNL     1      -0.474   3.753   1.912  0.00  0.00    +0.113 A 
ATOM     15  C   UNL     1       0.691   3.041   2.226  0.00  0.00    +0.032 A 
ATOM     16  N   UNL     1      -0.777   5.067   1.900  0.00  0.00    -0.129 NA
ATOM     17  N   UNL     1      -1.998   5.241   1.537  0.00  0.00    -0.063 NA
ATOM     18  N   UNL     1      -2.591   3.995   1.279  0.00  0.00    -0.224 N 
ENDBRANCH   9  18
ENDBRANCH   1   9
BRANCH   3  19
ATOM     19  C   UNL     1      -6.551   3.320  -3.320  0.00  0.00    +0.263 C 
BRANCH  19  20
ATOM     20  N   UNL     1      -6.343   3.367  -4.770  0.00  0.00    -0.224 N 
ATOM     21  C   UNL     1      -6.424   4.477  -5.577  0.00  0.00    +0.091 A 
ATOM     22  C   UNL     1      -6.691   5.822  -5.347  0.00  0.00    +0.030 A 
ATOM     23  C   UNL     1      -6.692   6.703  -6.391  0.00  0.00    +0.002 A 
ATOM     24  C   UNL     1      -6.423   6.268  -7.683  0.00  0.00    +0.002 A 
ATOM     25  C   UNL     1      -6.153   4.955  -7.934  0.00  0.00    +0.032 A 
ATOM     26  C   UNL     1      -6.146   4.031  -6.881  0.00  0.00    +0.113 A 
ATOM     27  N   UNL     1      -5.920   2.704  -6.820  0.00  0.00    -0.129 NA
ATOM     28  N   UNL     1      -6.027   2.287  -5.608  0.00  0.00    -0.063 NA
ENDBRANCH  19  20
ENDBRANCH   3  19
TORSDOF 4
