REMARK  Name = ZINC54644817
REMARK  9 active torsions:
REMARK  status: ('A' for Active; 'I' for Inactive)
REMARK    1  A    between atoms: C_1  and  C_2
REMARK    2  A    between atoms: C_2  and  C_3
REMARK    3  A    between atoms: C_9  and  C_30
REMARK    4  A    between atoms: C_10  and  C_12
REMARK    5  A    between atoms: N_14  and  C_15
REMARK    6  A    between atoms: C_16  and  C_26
REMARK    7  A    between atoms: C_21  and  C_25
REMARK    8  A    between atoms: C_26  and  O_28
REMARK    9  A    between atoms: O_28  and  C_29
REMARK                            x       y       z     vdW  Elec       q    Type
REMARK                         _______ _______ _______ _____ _____    ______ ____
ROOT
ATOM      1  C   UNL     1      -6.689  -2.464  -2.197  0.00  0.00    +0.284 C 
ATOM      2  O   UNL     1      -6.765  -2.487  -3.411  0.00  0.00    -0.266 OA
ATOM      3  N   UNL     1      -7.740  -2.855  -1.449  0.00  0.00    -0.273 N 
ATOM      4  H   UNL     1      -7.679  -2.837  -0.481  0.00  0.00    +0.156 HD
ENDROOT
BRANCH   1  12
ATOM      5  C   UNL     1      -1.412  -0.526   0.013  0.00  0.00    -0.047 A 
ATOM      6  C   UNL     1      -2.049  -0.765   1.223  0.00  0.00    +0.007 A 
ATOM      7  C   UNL     1      -3.341  -1.242   1.256  0.00  0.00    +0.047 A 
ATOM      8  C   UNL     1      -4.019  -1.487   0.067  0.00  0.00    +0.136 A 
ATOM      9  C   UNL     1      -3.369  -1.242  -1.157  0.00  0.00    +0.024 A 
ATOM     10  C   UNL     1      -2.060  -0.754  -1.168  0.00  0.00    +0.015 A 
ATOM     11  C   UNL     1      -4.334  -1.595  -2.197  0.00  0.00    +0.008 A 
ATOM     12  C   UNL     1      -5.453  -2.010  -1.547  0.00  0.00    +0.194 A 
ATOM     13  O   UNL     1      -5.256  -1.943  -0.213  0.00  0.00    -0.450 OA
ATOM     14  C   UNL     1      -4.130  -1.513  -3.688  0.00  0.00    +0.048 C 
BRANCH   5  16
ATOM     15  C   UNL     1      -0.019   1.526   0.010  0.00  0.00    +0.009 C 
ATOM     16  C   UNL     1       0.002  -0.004   0.002  0.00  0.00    +0.032 C 
ENDBRANCH   5  16
ENDBRANCH   1  12
BRANCH   3  17
ATOM     17  C   UNL     1      -8.905  -3.283  -2.062  0.00  0.00    +0.087 A 
ATOM     18  C   UNL     1     -10.078  -3.712  -1.458  0.00  0.00    +0.091 A 
ATOM     19  C   UNL     1     -11.167  -4.112  -2.334  0.00  0.00    -0.021 A 
ATOM     20  C   UNL     1     -10.883  -4.009  -3.650  0.00  0.00    -0.004 A 
ATOM     21  S   UNL     1      -9.226  -3.394  -3.706  0.00  0.00    -0.077 S 
ATOM     22  C   UNL     1     -11.791  -4.341  -4.795  0.00  0.00    +0.046 C 
ATOM     23  C   UNL     1     -13.224  -4.460  -4.255  0.00  0.00    -0.009 C 
ATOM     24  C   UNL     1     -13.211  -5.345  -3.005  0.00  0.00    +0.008 C 
ATOM     25  C   UNL     1     -12.522  -4.610  -1.853  0.00  0.00    +0.037 C 
ATOM     26  C   UNL     1     -14.123  -5.087  -5.322  0.00  0.00    +0.008 C 
BRANCH  18  27
ATOM     27  C   UNL     1     -10.214  -3.761  -0.002  0.00  0.00    +0.342 C 
ATOM     28  O   UNL     1     -10.633  -2.793   0.603  0.00  0.00    -0.245 OA
BRANCH  27  29
ATOM     29  O   UNL     1      -9.874  -4.881   0.670  0.00  0.00    -0.464 OA
ATOM     30  C   UNL     1     -10.031  -4.858   2.090  0.00  0.00    +0.280 C 
ENDBRANCH  27  29
ENDBRANCH  18  27
ENDBRANCH   3  17
TORSDOF 5
