REMARK  Name = ZINC48862738
REMARK  4 active torsions:
REMARK  status: ('A' for Active; 'I' for Inactive)
REMARK    1  A    between atoms: C_2  and  N_20
REMARK    2  A    between atoms: C_3  and  N_12
REMARK    3  A    between atoms: C_16  and  C_18
REMARK    4  A    between atoms: C_18  and  O_19
REMARK                            x       y       z     vdW  Elec       q    Type
REMARK                         _______ _______ _______ _____ _____    ______ ____
ROOT
ATOM      1  C   UNL     1      -0.017   1.380   0.010  0.00  0.00    +0.072 A 
ATOM      2  C   UNL     1       1.176   2.088   0.002  0.00  0.00    +0.050 A 
ATOM      3  C   UNL     1       2.393   1.407  -0.013  0.00  0.00    +0.053 A 
ATOM      4  C   UNL     1       2.410   0.020  -0.020  0.00  0.00    +0.052 A 
ATOM      5  C   UNL     1       1.218  -0.685  -0.012  0.00  0.00    +0.078 A 
ATOM      6  C   UNL     1       0.002  -0.004   0.002  0.00  0.00    +0.144 A 
ATOM      7  O   UNL     1      -1.161  -0.712   0.007  0.00  0.00    -0.481 OA
ATOM      8  C   UNL     1      -1.158  -1.958  -0.695  0.00  0.00    +0.325 C 
ATOM      9  C   UNL     1       0.076  -2.742  -0.328  0.00  0.00    +0.255 C 
ATOM     10  O   UNL     1       0.044  -3.955  -0.311  0.00  0.00    -0.272 OA
ATOM     11  N   UNL     1       1.217  -2.090  -0.018  0.00  0.00    -0.280 N 
ATOM     12  H   UNL     1       2.024  -2.583   0.197  0.00  0.00    +0.155 HD
ENDROOT
BRANCH   3  13
ATOM     13  N   UNL     1       3.598   2.124  -0.022  0.00  0.00    -0.323 N 
ATOM     14  C   UNL     1       4.352   2.553   1.170  0.00  0.00    +0.105 C 
ATOM     15  C   UNL     1       5.186   3.768   0.696  0.00  0.00    +0.021 C 
ATOM     16  C   UNL     1       5.571   3.340  -0.745  0.00  0.00    +0.026 C 
ATOM     17  C   UNL     1       4.322   2.568  -1.222  0.00  0.00    +0.099 C 
BRANCH  17  18
ATOM     18  C   UNL     1       4.744   1.354  -2.054  0.00  0.00    +0.178 C 
BRANCH  18  19
ATOM     19  O   UNL     1       5.687   0.575  -1.315  0.00  0.00    -0.393 OA
ATOM     20  H   UNL     1       5.998  -0.212  -1.782  0.00  0.00    +0.209 HD
ENDBRANCH  18  19
ENDBRANCH  17  18
ENDBRANCH   3  13
BRANCH   2  21
ATOM     21  N   UNL     1       1.159   3.490   0.009  0.00  0.00    -0.356 N 
ATOM     22  H   UNL     1       0.313   3.965   0.020  0.00  0.00    +0.142 HD
ATOM     23  H   UNL     1       1.993   3.986   0.004  0.00  0.00    +0.142 HD
ENDBRANCH   2  21
TORSDOF 4
