REMARK  Name = ZINC08709361
REMARK  11 active torsions:
REMARK  status: ('A' for Active; 'I' for Inactive)
REMARK    1  A    between atoms: C_1  and  C_2
REMARK    2  A    between atoms: C_2  and  C_3
REMARK    3  A    between atoms: C_2  and  C_4
REMARK    4  A    between atoms: C_2  and  C_5
REMARK    5  A    between atoms: C_8  and  C_11
REMARK    6  A    between atoms: C_14  and  S_25
REMARK    7  A    between atoms: N_15  and  C_16
REMARK    8  A    between atoms: C_19  and  O_23
REMARK    9  A    between atoms: O_23  and  C_24
REMARK   10  A    between atoms: S_25  and  C_26
REMARK   11  A    between atoms: C_26  and  C_27
REMARK                            x       y       z     vdW  Elec       q    Type
REMARK                         _______ _______ _______ _____ _____    ______ ____
ROOT
ATOM      1  C   UNL     1      -3.432   4.488  -0.935  0.00  0.00    +0.169 A 
ATOM      2  N   UNL     1      -4.410   5.255  -0.511  0.00  0.00    -0.128 NA
ATOM      3  N   UNL     1      -4.131   5.721   0.653  0.00  0.00    -0.122 NA
ATOM      4  C   UNL     1      -2.959   5.276   1.049  0.00  0.00    +0.197 A 
ATOM      5  N   UNL     1      -2.470   4.480   0.050  0.00  0.00    -0.270 N 
ENDROOT
BRANCH   5   6
ATOM      6  C   UNL     1      -1.246   3.794   0.035  0.00  0.00    +0.052 A 
ATOM      7  C   UNL     1      -0.052   4.504   0.027  0.00  0.00    +0.030 A 
ATOM      8  C   UNL     1       1.153   3.829   0.012  0.00  0.00    +0.049 A 
ATOM      9  C   UNL     1       1.171   2.442   0.004  0.00  0.00    +0.138 A 
ATOM     10  C   UNL     1      -0.021   1.732   0.012  0.00  0.00    +0.084 A 
ATOM     11  C   UNL     1      -1.227   2.406   0.021  0.00  0.00    +0.050 A 
ATOM     12 CL   UNL     1       0.002  -0.004   0.002  0.00  0.00    -0.080 Cl
BRANCH   9  13
ATOM     13  O   UNL     1       2.358   1.778  -0.011  0.00  0.00    -0.494 OA
ATOM     14  C   UNL     1       3.546   2.573  -0.018  0.00  0.00    +0.277 C 
ENDBRANCH   9  13
ENDBRANCH   5   6
BRANCH   1  18
ATOM     15  C   UNL     1      -3.268   2.422  -4.642  0.00  0.00    -0.042 A 
ATOM     16  C   UNL     1      -4.471   2.936  -4.193  0.00  0.00    +0.005 A 
ATOM     17  C   UNL     1      -4.532   3.608  -2.990  0.00  0.00    +0.012 A 
ATOM     18  C   UNL     1      -3.375   3.769  -2.225  0.00  0.00    +0.020 A 
ATOM     19  C   UNL     1      -2.163   3.254  -2.687  0.00  0.00    +0.012 A 
ATOM     20  C   UNL     1      -2.118   2.578  -3.889  0.00  0.00    +0.005 A 
BRANCH  15  22
ATOM     21  C   UNL     1      -3.657   2.624  -7.083  0.00  0.00    +0.015 C 
ATOM     22  C   UNL     1      -3.209   1.689  -5.958  0.00  0.00    -0.013 C 
ATOM     23  C   UNL     1      -1.775   1.226  -6.220  0.00  0.00    +0.015 C 
ATOM     24  C   UNL     1      -4.136   0.473  -5.906  0.00  0.00    +0.015 C 
ENDBRANCH  15  22
ENDBRANCH   1  18
BRANCH   4  25
ATOM     25  S   UNL     1      -2.166   5.640   2.580  0.00  0.00    -0.078 S 
BRANCH  25  26
ATOM     26  C   UNL     1      -3.408   6.721   3.329  0.00  0.00    +0.153 C 
BRANCH  26  27
ATOM     27  C   UNL     1      -2.931   7.170   4.686  0.00  0.00    +0.146 A 
ATOM     28  N   UNL     1      -3.232   6.458   5.758  0.00  0.00    -0.199 NA
ATOM     29  C   UNL     1      -2.808   6.849   6.959  0.00  0.00    +0.217 A 
ATOM     30  N   UNL     1      -2.092   7.961   7.079  0.00  0.00    -0.181 NA
ATOM     31  C   UNL     1      -1.796   8.676   5.999  0.00  0.00    +0.217 A 
ATOM     32  N   UNL     1      -2.219   8.277   4.802  0.00  0.00    -0.199 NA
ATOM     33  N   UNL     1      -1.052   9.832   6.119  0.00  0.00    -0.327 N 
ATOM     34  N   UNL     1      -3.118   6.102   8.077  0.00  0.00    -0.327 N 
ATOM     35  H   UNL     1      -0.836  10.354   5.330  0.00  0.00    +0.145 HD
ATOM     36  H   UNL     1      -0.744  10.123   6.991  0.00  0.00    +0.145 HD
ATOM     37  H   UNL     1      -2.813   6.389   8.952  0.00  0.00    +0.145 HD
ATOM     38  H   UNL     1      -3.642   5.291   7.989  0.00  0.00    +0.145 HD
ENDBRANCH  26  27
ENDBRANCH  25  26
ENDBRANCH   4  25
TORSDOF 7
