REMARK  Name = ZINC12635366
REMARK  8 active torsions:
REMARK  status: ('A' for Active; 'I' for Inactive)
REMARK    1  A    between atoms: C_1  and  C_2
REMARK    2  A    between atoms: C_5  and  C_8
REMARK    3  A    between atoms: C_8  and  C_10
REMARK    4  A    between atoms: C_8  and  N_64
REMARK    5  A    between atoms: N_14  and  C_15
REMARK    6  A    between atoms: C_15  and  S_16
REMARK    7  A    between atoms: S_16  and  C_19
REMARK    8  A    between atoms: C_22  and  C_25
REMARK                            x       y       z     vdW  Elec       q    Type
REMARK                         _______ _______ _______ _____ _____    ______ ____
ROOT
ATOM      1  C   UNL     1       0.002  -0.004   0.002  0.00  0.00    +0.033 C 
ENDROOT
BRANCH   1  13
ATOM      2  C   UNL     1      -0.880   0.026   2.257  0.00  0.00    -0.058 C 
ATOM      3  C   UNL     1      -2.032  -0.463   3.139  0.00  0.00    +0.089 C 
ATOM      4  N   UNL     1      -2.042  -1.933   3.156  0.00  0.00    -0.303 N 
ATOM      5  C   UNL     1      -2.205  -2.472   1.799  0.00  0.00    +0.089 C 
ATOM      6  C   UNL     1      -1.054  -1.982   0.917  0.00  0.00    -0.058 C 
ATOM      7  C   UNL     1      -3.027  -2.412   4.002  0.00  0.00    +0.218 A 
ATOM      8  N   UNL     1      -3.944  -3.240   3.523  0.00  0.00    -0.223 NA
ATOM      9  C   UNL     1      -4.896  -3.721   4.306  0.00  0.00    +0.116 A 
ATOM     10  C   UNL     1      -4.932  -3.340   5.638  0.00  0.00    +0.039 A 
ATOM     11  C   UNL     1      -3.961  -2.468   6.105  0.00  0.00    +0.116 A 
ATOM     12  N   UNL     1      -3.034  -2.028   5.270  0.00  0.00    -0.223 NA
ATOM     13  N   UNL     1      -1.069  -0.505   0.890  0.00  0.00    +0.391 N 
ATOM     14  H   UNL     1      -1.976  -0.187   0.531  0.00  0.00    -0.080 HD
ENDBRANCH   1  13
BRANCH   1  19
ATOM     15  C   UNL     1      -0.076   5.774   0.034  0.00  0.00    +0.044 C 
ATOM     16  C   UNL     1      -0.056   4.267   0.025  0.00  0.00    -0.050 A 
ATOM     17  C   UNL     1       1.151   3.592   0.010  0.00  0.00    +0.003 A 
ATOM     18  C   UNL     1       1.169   2.210   0.003  0.00  0.00    +0.003 A 
ATOM     19  C   UNL     1      -0.018   1.503   0.010  0.00  0.00    -0.054 A 
ATOM     20  C   UNL     1      -1.225   2.178   0.020  0.00  0.00    +0.003 A 
ATOM     21  C   UNL     1      -1.244   3.560   0.032  0.00  0.00    +0.003 A 
ENDBRANCH   1  19
BRANCH   1  22
ATOM     22  C   UNL     1      -0.251  -0.502  -1.398  0.00  0.00    +0.144 A 
ATOM     23  N   UNL     1      -1.401  -0.518  -2.026  0.00  0.00    -0.115 NA
ATOM     24  N   UNL     1      -1.207  -1.016  -3.199  0.00  0.00    -0.023 NA
ATOM     25  N   UNL     1       0.037  -1.319  -3.334  0.00  0.00    -0.042 NA
ATOM     26  N   UNL     1       0.661  -1.012  -2.247  0.00  0.00    -0.209 N 
BRANCH  26  27
ATOM     27  C   UNL     1       2.091  -1.188  -1.984  0.00  0.00    +0.318 C 
BRANCH  27  28
ATOM     28  S   UNL     1       2.376  -2.828  -1.263  0.00  0.00    +0.017 S 
ATOM     29  O   UNL     1       1.808  -2.896   0.037  0.00  0.00    -0.168 OA
ATOM     30  O   UNL     1       2.107  -3.839  -2.225  0.00  0.00    -0.168 OA
BRANCH  28  31
ATOM     31  C   UNL     1       4.116  -2.910  -0.999  0.00  0.00    +0.090 A 
ATOM     32  C   UNL     1       4.943  -3.404  -1.990  0.00  0.00    +0.027 A 
ATOM     33  C   UNL     1       6.309  -3.465  -1.784  0.00  0.00    +0.005 A 
ATOM     34  C   UNL     1       6.847  -3.039  -0.584  0.00  0.00    -0.050 A 
ATOM     35  C   UNL     1       6.019  -2.550   0.409  0.00  0.00    +0.005 A 
ATOM     36  C   UNL     1       4.654  -2.485   0.202  0.00  0.00    +0.027 A 
ATOM     37  C   UNL     1       8.335  -3.110  -0.358  0.00  0.00    +0.044 C 
ENDBRANCH  28  31
ENDBRANCH  27  28
ENDBRANCH  26  27
ENDBRANCH   1  22
TORSDOF 6
