REMARK  Name = ZINC39922569
REMARK  6 active torsions:
REMARK  status: ('A' for Active; 'I' for Inactive)
REMARK    1  A    between atoms: C_1  and  C_2
REMARK    2  A    between atoms: C_2  and  C_20
REMARK    3  A    between atoms: N_3  and  N_4
REMARK    4  A    between atoms: C_5  and  C_7
REMARK    5  A    between atoms: C_10  and  C_13
REMARK    6  A    between atoms: C_24  and  O_26
REMARK                            x       y       z     vdW  Elec       q    Type
REMARK                         _______ _______ _______ _____ _____    ______ ____
ROOT
ATOM      1  N   UNL     1      -1.027  -1.642   1.344  0.00  0.00    -0.205 N 
ATOM      2  C   UNL     1      -1.519  -1.999   2.547  0.00  0.00    +0.263 C 
ATOM      3  O   UNL     1      -1.408  -1.249   3.494  0.00  0.00    -0.271 OA
ATOM      4  H   UNL     1      -1.116  -2.241   0.587  0.00  0.00    +0.177 HD
ENDROOT
BRANCH   2   5
ATOM      5  C   UNL     1      -2.207  -3.329   2.716  0.00  0.00    +0.240 C 
ATOM      6  C   UNL     1      -3.654  -3.245   2.265  0.00  0.00    +0.041 C 
ATOM      7  C   UNL     1      -4.356  -3.530   3.379  0.00  0.00    +0.092 C 
ATOM      8  N   UNL     1      -3.516  -3.769   4.420  0.00  0.00    -0.153 NA
ATOM      9  N   UNL     1      -2.315  -3.682   4.141  0.00  0.00    -0.170 NA
BRANCH   7  10
ATOM     10  C   UNL     1      -5.837  -3.576   3.458  0.00  0.00    +0.002 A 
ATOM     11  C   UNL     1      -6.606  -3.318   2.325  0.00  0.00    +0.011 A 
ATOM     12  C   UNL     1      -7.982  -3.362   2.403  0.00  0.00    +0.020 A 
ATOM     13  C   UNL     1      -8.600  -3.660   3.606  0.00  0.00    +0.041 A 
ATOM     14  C   UNL     1      -7.841  -3.917   4.735  0.00  0.00    +0.020 A 
ATOM     15  C   UNL     1      -6.463  -3.882   4.665  0.00  0.00    +0.011 A 
ATOM     16 CL   UNL     1     -10.333  -3.712   3.699  0.00  0.00    -0.084 Cl
ENDBRANCH   7  10
ENDBRANCH   2   5
BRANCH   1  19
ATOM     17  C   UNL     1       0.815   1.238  -0.141  0.00  0.00    +0.068 C 
ATOM     18  C   UNL     1      -0.010  -0.015   0.009  0.00  0.00    +0.063 C 
ATOM     19  N   UNL     1      -0.388  -0.405   1.188  0.00  0.00    -0.184 NA
BRANCH  18  20
ATOM     20  C   UNL     1      -0.387  -0.797  -1.183  0.00  0.00    +0.001 A 
ATOM     21  C   UNL     1      -1.655  -1.377  -1.269  0.00  0.00    +0.010 A 
ATOM     22  C   UNL     1      -2.004  -2.107  -2.386  0.00  0.00    +0.004 A 
ATOM     23  C   UNL     1      -1.102  -2.269  -3.422  0.00  0.00    +0.045 A 
ATOM     24  C   UNL     1       0.161  -1.697  -3.345  0.00  0.00    +0.117 A 
ATOM     25  C   UNL     1       0.520  -0.957  -2.232  0.00  0.00    +0.055 A 
BRANCH  24  26
ATOM     26  O   UNL     1       1.043  -1.859  -4.367  0.00  0.00    -0.507 OA
ATOM     27  H   UNL     1       0.989  -1.173  -5.046  0.00  0.00    +0.292 HD
ENDBRANCH  24  26
ENDBRANCH  18  20
ENDBRANCH   1  19
TORSDOF 5
