REMARK  Name = ZINC00784458
REMARK  7 active torsions:
REMARK  status: ('A' for Active; 'I' for Inactive)
REMARK    1  A    between atoms: C_1  and  S_2
REMARK    2  A    between atoms: S_2  and  N_5
REMARK    3  A    between atoms: N_5  and  C_6
REMARK    4  A    between atoms: N_5  and  C_23
REMARK    5  A    between atoms: C_6  and  C_7
REMARK    6  A    between atoms: N_9  and  C_10
REMARK    7  A    between atoms: C_15  and  C_16
REMARK                            x       y       z     vdW  Elec       q    Type
REMARK                         _______ _______ _______ _____ _____    ______ ____
ROOT
ATOM      1  C   UNL     1       1.751  -2.441  -1.821  0.00  0.00    +0.236 C 
ATOM      2  O   UNL     1       0.865  -3.166  -1.421  0.00  0.00    -0.274 OA
ATOM      3  N   UNL     1       3.000  -2.923  -1.972  0.00  0.00    -0.283 N 
ATOM      4  H   UNL     1       3.691  -2.366  -2.364  0.00  0.00    +0.155 HD
ENDROOT
BRANCH   3   5
ATOM      5  C   UNL     1       3.299  -4.221  -1.567  0.00  0.00    +0.046 A 
ATOM      6  C   UNL     1       2.483  -4.871  -0.650  0.00  0.00    +0.024 A 
ATOM      7  C   UNL     1       2.779  -6.159  -0.252  0.00  0.00    +0.002 A 
ATOM      8  C   UNL     1       3.895  -6.810  -0.755  0.00  0.00    +0.001 A 
ATOM      9  C   UNL     1       4.719  -6.178  -1.662  0.00  0.00    +0.015 A 
ATOM     10  C   UNL     1       4.429  -4.877  -2.077  0.00  0.00    +0.058 A 
BRANCH  10  11
ATOM     11  C   UNL     1       5.307  -4.195  -3.047  0.00  0.00    +0.248 C 
ATOM     12  O   UNL     1       4.825  -3.609  -3.997  0.00  0.00    -0.270 OA
ATOM     13  N   UNL     1       6.644  -4.221  -2.880  0.00  0.00    -0.297 N 
ATOM     14  C   UNL     1       7.363  -4.968  -1.837  0.00  0.00    +0.108 C 
ATOM     15  C   UNL     1       8.868  -4.680  -2.022  0.00  0.00    +0.020 C 
ATOM     16  C   UNL     1       8.870  -3.336  -2.797  0.00  0.00    +0.020 C 
ATOM     17  C   UNL     1       7.628  -3.501  -3.709  0.00  0.00    +0.108 C 
ENDBRANCH  10  11
ENDBRANCH   3   5
BRANCH   1  18
ATOM     18  C   UNL     1       1.454  -1.000  -2.149  0.00  0.00    +0.227 C 
BRANCH  18  19
ATOM     19  N   UNL     1       0.036  -0.725  -1.903  0.00  0.00    -0.197 N 
BRANCH  19  20
ATOM     20  C   UNL     1      -0.912  -1.005  -2.890  0.00  0.00    +0.070 A 
ATOM     21  C   UNL     1      -1.452  -2.280  -2.995  0.00  0.00    +0.026 A 
ATOM     22  C   UNL     1      -2.393  -2.552  -3.969  0.00  0.00    +0.002 A 
ATOM     23  C   UNL     1      -2.789  -1.560  -4.846  0.00  0.00    +0.002 A 
ATOM     24  C   UNL     1      -2.250  -0.291  -4.749  0.00  0.00    +0.022 A 
ATOM     25  C   UNL     1      -1.312  -0.009  -3.774  0.00  0.00    +0.064 A 
ATOM     26 CL   UNL     1      -0.634   1.584  -3.653  0.00  0.00    -0.082 Cl
ENDBRANCH  19  20
BRANCH  19  28
ATOM     27  C   UNL     1      -0.404   1.714  -0.705  0.00  0.00    +0.218 C 
ATOM     28  S   UNL     1      -0.443  -0.082  -0.454  0.00  0.00    +0.043 S 
ATOM     29  O   UNL     1       0.569  -0.468   0.467  0.00  0.00    -0.155 OA
ATOM     30  O   UNL     1      -1.782  -0.524  -0.286  0.00  0.00    -0.155 OA
ENDBRANCH  19  28
ENDBRANCH  18  19
ENDBRANCH   1  18
TORSDOF 6
