REMARK  Name = ZINC64717783
REMARK  4 active torsions:
REMARK  status: ('A' for Active; 'I' for Inactive)
REMARK    1  A    between atoms: C_4  and  C_7
REMARK    2  A    between atoms: C_7  and  C_8
REMARK    3  A    between atoms: C_8  and  N_9
REMARK    4  A    between atoms: C_12  and  C_18
REMARK                            x       y       z     vdW  Elec       q    Type
REMARK                         _______ _______ _______ _____ _____    ______ ____
ROOT
ATOM      1  N   UNL     1       5.460  -1.679   1.523  0.00  0.00    -0.260 N 
ATOM      2  C   UNL     1       5.472  -3.027   1.513  0.00  0.00    +0.265 A 
ATOM      3  O   UNL     1       4.433  -3.651   1.641  0.00  0.00    -0.267 OA
ATOM      4  C   UNL     1       6.692  -3.708   1.353  0.00  0.00    +0.100 A 
ATOM      5  C   UNL     1       7.840  -2.986   1.210  0.00  0.00    +0.263 A 
ATOM      6  N   UNL     1       7.782  -1.616   1.226  0.00  0.00    -0.274 N 
ATOM      7  C   UNL     1       6.603  -0.985   1.376  0.00  0.00    +0.332 A 
ATOM      8  O   UNL     1       6.570   0.231   1.382  0.00  0.00    -0.246 OA
ATOM      9  O   UNL     1       9.024  -3.615   1.056  0.00  0.00    -0.267 OA
ATOM     10  H   UNL     1       8.596  -1.098   1.126  0.00  0.00    +0.173 HD
ENDROOT
BRANCH   4  11
ATOM     11  C   UNL     1       6.730  -5.215   1.339  0.00  0.00    +0.121 C 
ATOM     12  C   UNL     1       7.699  -5.716   2.413  0.00  0.00    +0.128 C 
ATOM     13  C   UNL     1       9.088  -5.264   1.977  0.00  0.00    -0.035 C 
ATOM     14  C   UNL     1       9.602  -4.593   2.999  0.00  0.00    +0.001 A 
ATOM     15  C   UNL     1      10.929  -3.993   3.212  0.00  0.00    +0.030 A 
ATOM     16  C   UNL     1      11.115  -3.353   4.397  0.00  0.00    +0.042 A 
ATOM     17  C   UNL     1      10.124  -3.251   5.380  0.00  0.00    +0.022 A 
ATOM     18  C   UNL     1       8.879  -3.778   5.271  0.00  0.00    +0.027 A 
ATOM     19  C   UNL     1       8.566  -4.479   4.071  0.00  0.00    +0.043 A 
ATOM     20  N   UNL     1       7.458  -5.103   3.718  0.00  0.00    -0.376 N 
ATOM     21 CL   UNL     1      12.660  -2.625   4.706  0.00  0.00    -0.084 Cl
ATOM     22  C   UNL     1       9.602  -5.518   0.581  0.00  0.00    +0.048 C 
ATOM     23  C   UNL     1       8.478  -5.082  -0.377  0.00  0.00    +0.086 C 
ATOM     24  N   UNL     1       7.205  -5.687   0.029  0.00  0.00    -0.307 NA
ATOM     25  H   UNL     1       7.261  -6.694   0.006  0.00  0.00    +0.123 HD
ATOM     26  H   UNL     1       6.630  -5.149   4.222  0.00  0.00    +0.160 HD
ENDBRANCH   4  11
BRANCH   1  27
ATOM     27  C   UNL     1       4.191  -0.965   1.689  0.00  0.00    +0.134 C 
BRANCH  27  28
ATOM     28  C   UNL     1       3.564  -0.714   0.316  0.00  0.00    +0.057 C 
BRANCH  28  32
ATOM     29  C   UNL     1      -0.135   1.368   0.798  0.00  0.00    +0.000 A 
ATOM     30  C   UNL     1       1.043   2.076   0.648  0.00  0.00    +0.000 A 
ATOM     31  C   UNL     1       2.240   1.403   0.492  0.00  0.00    +0.004 A 
ATOM     32  C   UNL     1       2.259   0.021   0.487  0.00  0.00    -0.046 A 
ATOM     33  C   UNL     1       1.082  -0.688   0.638  0.00  0.00    +0.004 A 
ATOM     34  C   UNL     1      -0.115  -0.014   0.793  0.00  0.00    +0.000 A 
ENDBRANCH  28  32
ENDBRANCH  27  28
ENDBRANCH   1  27
TORSDOF 4
