REMARK  Name = ZINC31809956
REMARK  6 active torsions:
REMARK  status: ('A' for Active; 'I' for Inactive)
REMARK    1  A    between atoms: C_1  and  O_2
REMARK    2  A    between atoms: O_2  and  C_3
REMARK    3  A    between atoms: C_3  and  C_5
REMARK    4  A    between atoms: C_5  and  C_6
REMARK    5  A    between atoms: C_6  and  N_7
REMARK    6  A    between atoms: C_19  and  C_21
REMARK                            x       y       z     vdW  Elec       q    Type
REMARK                         _______ _______ _______ _____ _____    ______ ____
ROOT
ATOM      1  N   UNL     1      -5.080  -3.968  -0.026  0.00  0.00    -0.299 N 
ATOM      2  C   UNL     1      -3.943  -4.689   0.015  0.00  0.00    +0.303 C 
ATOM      3  O   UNL     1      -2.865  -4.128  -0.032  0.00  0.00    -0.253 OA
ATOM      4  N   UNL     1      -3.999  -6.032   0.108  0.00  0.00    -0.273 N 
ATOM      5  C   UNL     1      -2.769  -6.833   0.206  0.00  0.00    +0.116 C 
ATOM      6  C   UNL     1      -2.650  -7.724  -1.036  0.00  0.00    +0.074 C 
ATOM      7  C   UNL     1      -3.989  -8.359  -1.308  0.00  0.00    +0.040 A 
ATOM      8  C   UNL     1      -5.165  -7.924  -0.807  0.00  0.00    +0.062 A 
ATOM      9  N   UNL     1      -6.132  -8.723  -1.264  0.00  0.00    -0.348 N 
ATOM     10  C   UNL     1      -5.602  -9.641  -2.029  0.00  0.00    +0.171 A 
ATOM     11  N   UNL     1      -4.264  -9.447  -2.080  0.00  0.00    -0.349 N 
ATOM     12  H   UNL     1      -3.623  -9.981  -2.574  0.00  0.00    +0.166 HD
ATOM     13  C   UNL     1      -5.295  -6.734   0.120  0.00  0.00    +0.158 C 
ATOM     14  H   UNL     1      -5.939  -4.418  -0.068  0.00  0.00    +0.150 HD
ATOM     15  H   UNL     1      -7.077  -8.636  -1.060  0.00  0.00    +0.167 HD
ENDROOT
BRANCH  13  16
ATOM     16  C   UNL     1      -5.613  -7.200   1.518  0.00  0.00    -0.001 A 
ATOM     17  C   UNL     1      -5.380  -8.514   1.878  0.00  0.00    +0.007 A 
ATOM     18  C   UNL     1      -5.671  -8.942   3.160  0.00  0.00    +0.002 A 
ATOM     19  C   UNL     1      -6.197  -8.056   4.082  0.00  0.00    +0.021 A 
ATOM     20  C   UNL     1      -6.431  -6.742   3.724  0.00  0.00    +0.060 A 
ATOM     21  C   UNL     1      -6.133  -6.311   2.441  0.00  0.00    +0.065 A 
ATOM     22 CL   UNL     1      -6.419  -4.659   1.991  0.00  0.00    -0.082 Cl
ATOM     23 CL   UNL     1      -7.090  -5.629   4.882  0.00  0.00    -0.082 Cl
ENDBRANCH  13  16
BRANCH   1  24
ATOM     24  C   UNL     1      -5.021  -2.504  -0.007  0.00  0.00    +0.117 C 
BRANCH  24  25
ATOM     25  C   UNL     1      -6.440  -1.935  -0.062  0.00  0.00    +0.139 C 
BRANCH  25  26
ATOM     26  C   UNL     1      -6.379  -0.430  -0.042  0.00  0.00    +0.308 C 
ATOM     27  O   UNL     1      -5.310   0.131   0.010  0.00  0.00    -0.251 OA
BRANCH  26  29
ATOM     28  C   UNL     1      -7.380   1.711  -0.061  0.00  0.00    +0.280 C 
ATOM     29  O   UNL     1      -7.513   0.288  -0.083  0.00  0.00    -0.468 OA
ENDBRANCH  26  29
ENDBRANCH  25  26
ENDBRANCH  24  25
ENDBRANCH   1  24
TORSDOF 5
