REMARK  Name = ZINC00742802
REMARK  12 active torsions:
REMARK  status: ('A' for Active; 'I' for Inactive)
REMARK    1  A    between atoms: C_1  and  C_2
REMARK    2  A    between atoms: C_2  and  C_3
REMARK    3  A    between atoms: C_6  and  C_9
REMARK    4  A    between atoms: N_11  and  C_12
REMARK    5  A    between atoms: N_11  and  C_19
REMARK    6  A    between atoms: C_12  and  C_13
REMARK    7  A    between atoms: C_19  and  C_20
REMARK    8  A    between atoms: N_22  and  C_23
REMARK    9  A    between atoms: N_22  and  C_30
REMARK   10  A    between atoms: C_23  and  C_24
REMARK   11  A    between atoms: C_30  and  C_31
REMARK   12  A    between atoms: C_32  and  C_36
REMARK                            x       y       z     vdW  Elec       q    Type
REMARK                         _______ _______ _______ _____ _____    ______ ____
ROOT
ATOM      1  C   UNL     1       3.161  -2.726   6.913  0.00  0.00    +0.204 C 
ENDROOT
BRANCH   1   4
ATOM      2  C   UNL     1       3.272  -1.855   4.640  0.00  0.00    +0.247 C 
ATOM      3  O   UNL     1       2.760  -1.310   3.682  0.00  0.00    -0.270 OA
ATOM      4  N   UNL     1       2.527  -2.154   5.723  0.00  0.00    -0.286 N 
BRANCH   2   8
ATOM      5  C   UNL     1       7.408  -2.820   4.578  0.00  0.00    -0.048 A 
ATOM      6  C   UNL     1       6.896  -2.049   5.606  0.00  0.00    +0.004 A 
ATOM      7  C   UNL     1       5.554  -1.732   5.633  0.00  0.00    +0.013 A 
ATOM      8  C   UNL     1       4.712  -2.191   4.618  0.00  0.00    +0.037 A 
ATOM      9  C   UNL     1       5.235  -2.968   3.584  0.00  0.00    +0.013 A 
ATOM     10  C   UNL     1       6.580  -3.273   3.566  0.00  0.00    +0.004 A 
BRANCH   5  12
ATOM     11  C   UNL     1       9.641  -2.080   3.792  0.00  0.00    +0.009 C 
ATOM     12  C   UNL     1       8.876  -3.162   4.556  0.00  0.00    +0.032 C 
ENDBRANCH   5  12
ENDBRANCH   2   8
BRANCH   4  13
ATOM     13  C   UNL     1       1.083  -1.907   5.709  0.00  0.00    +0.140 C 
BRANCH  13  14
ATOM     14  C   UNL     1       0.350  -3.189   5.309  0.00  0.00    +0.136 C 
ATOM     15  C   UNL     1      -1.179  -2.939   5.255  0.00  0.00    +0.035 C 
ATOM     16  C   UNL     1      -1.623  -4.050   4.264  0.00  0.00    +0.031 C 
ATOM     17  C   UNL     1      -0.421  -4.127   3.298  0.00  0.00    +0.160 C 
ATOM     18  O   UNL     1       0.716  -3.578   3.976  0.00  0.00    -0.375 OA
ENDBRANCH  13  14
ENDBRANCH   4  13
ENDBRANCH   1   4
BRANCH   1  19
ATOM     19  C   UNL     1       3.553  -1.618   7.855  0.00  0.00    +0.234 C 
ATOM     20  O   UNL     1       3.326  -0.463   7.561  0.00  0.00    -0.274 OA
ATOM     21  N   UNL     1       4.157  -1.909   9.024  0.00  0.00    -0.291 N 
BRANCH  21  22
ATOM     22  C   UNL     1       4.539  -0.832   9.941  0.00  0.00    +0.143 C 
BRANCH  22  23
ATOM     23  C   UNL     1       3.452  -0.636  10.966  0.00  0.00    -0.030 A 
ATOM     24  C   UNL     1       2.418   0.247  10.718  0.00  0.00    +0.005 A 
ATOM     25  C   UNL     1       1.422   0.427  11.659  0.00  0.00    +0.000 A 
ATOM     26  C   UNL     1       1.459  -0.277  12.848  0.00  0.00    +0.000 A 
ATOM     27  C   UNL     1       2.493  -1.161  13.096  0.00  0.00    +0.000 A 
ATOM     28  C   UNL     1       3.487  -1.344  12.153  0.00  0.00    +0.005 A 
ENDBRANCH  22  23
ENDBRANCH  21  22
BRANCH  21  29
ATOM     29  C   UNL     1       4.432  -3.304   9.379  0.00  0.00    +0.150 C 
BRANCH  29  30
ATOM     30  C   UNL     1       5.846  -3.651   8.993  0.00  0.00    +0.010 A 
ATOM     31  C   UNL     1       6.974  -3.594   9.743  0.00  0.00    -0.039 A 
ATOM     32  C   UNL     1       8.177  -3.967   9.173  0.00  0.00    +0.011 A 
ATOM     33  C   UNL     1       8.194  -4.378   7.882  0.00  0.00    +0.046 A 
ATOM     34  S   UNL     1       6.470  -4.252   7.433  0.00  0.00    -0.100 S 
ATOM     35  C   UNL     1       6.917  -3.131  11.176  0.00  0.00    +0.044 C 
ENDBRANCH  29  30
ENDBRANCH  21  29
ENDBRANCH   1  19
TORSDOF 10
