REMARK  Name = ZINC21462603
REMARK  7 active torsions:
REMARK  status: ('A' for Active; 'I' for Inactive)
REMARK    1  A    between atoms: C_1  and  C_2
REMARK    2  A    between atoms: C_2  and  C_4
REMARK    3  A    between atoms: C_2  and  N_12
REMARK    4  A    between atoms: C_13  and  C_15
REMARK    5  A    between atoms: C_15  and  N_16
REMARK    6  A    between atoms: C_19  and  C_23
REMARK    7  A    between atoms: C_19  and  C_24
REMARK                            x       y       z     vdW  Elec       q    Type
REMARK                         _______ _______ _______ _____ _____    ______ ____
ROOT
ATOM      1  N   UNL     1       2.296   0.641  -0.900  0.00  0.00    -0.215 N 
ATOM      2  C   UNL     1       2.610   0.075  -2.082  0.00  0.00    +0.251 C 
ATOM      3  O   UNL     1       2.112   0.309  -3.162  0.00  0.00    -0.272 OA
ATOM      4  C   UNL     1       3.717  -0.916  -1.780  0.00  0.00    +0.135 C 
ATOM      5  N   UNL     1       3.916  -0.780  -0.326  0.00  0.00    -0.281 N 
ATOM      6  C   UNL     1       3.045   0.154   0.096  0.00  0.00    +0.310 C 
ATOM      7  O   UNL     1       2.948   0.514   1.252  0.00  0.00    -0.252 OA
ATOM      8  C   UNL     1       3.276  -2.338  -2.132  0.00  0.00    +0.047 C 
ATOM      9  H   UNL     1       4.672  -1.395   0.185  0.00  0.00    +0.152 HD
ENDROOT
BRANCH   4  10
ATOM     10  C   UNL     1       4.975  -0.549  -2.524  0.00  0.00    -0.015 A 
ATOM     11  C   UNL     1       4.893   0.096  -3.743  0.00  0.00    +0.007 A 
ATOM     12  C   UNL     1       6.047   0.438  -4.423  0.00  0.00    +0.020 A 
ATOM     13  C   UNL     1       7.283   0.124  -3.889  0.00  0.00    +0.041 A 
ATOM     14  C   UNL     1       7.365  -0.527  -2.671  0.00  0.00    +0.020 A 
ATOM     15  C   UNL     1       6.210  -0.863  -1.989  0.00  0.00    +0.007 A 
ATOM     16 CL   UNL     1       8.733   0.546  -4.746  0.00  0.00    -0.084 Cl
ENDBRANCH   4  10
BRANCH   1  17
ATOM     17  C   UNL     1       1.265   1.668  -0.728  0.00  0.00    +0.213 C 
BRANCH  17  19
ATOM     18  N   UNL     1      -1.161   1.760  -0.252  0.00  0.00    -0.307 N 
ATOM     19  C   UNL     1      -0.059   1.007  -0.442  0.00  0.00    +0.231 C 
ATOM     20  O   UNL     1      -0.134  -0.202  -0.387  0.00  0.00    -0.274 OA
ATOM     21  H   UNL     1      -1.093   2.856  -0.302  0.00  0.00    +0.149 HD
BRANCH  18  23
ATOM     22  C   UNL     1      -2.593   0.878   1.524  0.00  0.00    +0.033 C 
ATOM     23  C   UNL     1      -2.449   1.117   0.020  0.00  0.00    +0.103 C 
BRANCH  23  24
ATOM     24  C   UNL     1      -3.566   2.010  -0.456  0.00  0.00    +0.008 A 
ATOM     25  C   UNL     1      -3.381   3.378  -0.513  0.00  0.00    +0.011 A 
ATOM     26  C   UNL     1      -4.402   4.197  -0.954  0.00  0.00    +0.039 A 
ATOM     27  C   UNL     1      -5.617   3.649  -1.330  0.00  0.00    +0.126 A 
ATOM     28  C   UNL     1      -5.806   2.279  -1.268  0.00  0.00    +0.077 A 
ATOM     29  C   UNL     1      -4.780   1.459  -0.831  0.00  0.00    +0.131 A 
ATOM     30  F   UNL     1      -4.963   0.122  -0.770  0.00  0.00    -0.205 F 
ATOM     31  F   UNL     1      -6.618   4.451  -1.756  0.00  0.00    -0.205 F 
ENDBRANCH  23  24
ENDBRANCH  18  23
ENDBRANCH  17  19
ENDBRANCH   1  17
TORSDOF 5
