REMARK  Name = ZINC60350642
REMARK  6 active torsions:
REMARK  status: ('A' for Active; 'I' for Inactive)
REMARK    1  A    between atoms: C_4  and  C_7
REMARK    2  A    between atoms: C_7  and  C_9
REMARK    3  A    between atoms: C_7  and  N_23
REMARK    4  A    between atoms: C_17  and  C_19
REMARK    5  A    between atoms: C_24  and  C_26
REMARK    6  A    between atoms: C_31  and  N_32
REMARK                            x       y       z     vdW  Elec       q    Type
REMARK                         _______ _______ _______ _____ _____    ______ ____
ROOT
ATOM      1  C   UNL     1       4.556  -0.248  -0.590  0.00  0.00    +0.134 C 
ENDROOT
BRANCH   1   2
ATOM      2  C   UNL     1       5.325  -0.520   0.677  0.00  0.00    -0.021 A 
ATOM      3  C   UNL     1       5.017  -1.635   1.444  0.00  0.00    +0.008 A 
ATOM      4  C   UNL     1       5.703  -1.899   2.596  0.00  0.00    +0.030 A 
ATOM      5  C   UNL     1       6.726  -1.041   3.010  0.00  0.00    +0.089 A 
ATOM      6  C   UNL     1       7.038   0.087   2.233  0.00  0.00    +0.067 A 
ATOM      7  C   UNL     1       6.334   0.337   1.063  0.00  0.00    +0.033 A 
ATOM      8  N   UNL     1       8.072   0.726   2.888  0.00  0.00    -0.335 N 
ATOM      9  H   UNL     1       8.515   1.542   2.605  0.00  0.00    +0.167 HD
ATOM     10  C   UNL     1       8.354   0.001   4.004  0.00  0.00    +0.213 A 
ATOM     11  N   UNL     1       7.567  -1.033   4.076  0.00  0.00    -0.224 NA
BRANCH  10  12
ATOM     12  C   UNL     1       9.421   0.345   5.010  0.00  0.00    +0.450 C 
ATOM     13  F   UNL     1       9.669  -0.765   5.825  0.00  0.00    -0.163 F 
ATOM     14  F   UNL     1      10.596   0.702   4.340  0.00  0.00    -0.163 F 
ATOM     15  F   UNL     1       8.991   1.416   5.800  0.00  0.00    -0.163 F 
ENDBRANCH  10  12
ENDBRANCH   1   2
BRANCH   1  19
ATOM     16  C   UNL     1       0.824   1.593   0.376  0.00  0.00    +0.000 A 
ATOM     17  C   UNL     1       1.884   2.366  -0.060  0.00  0.00    +0.000 A 
ATOM     18  C   UNL     1       3.092   1.771  -0.372  0.00  0.00    +0.006 A 
ATOM     19  C   UNL     1       3.240   0.402  -0.248  0.00  0.00    -0.023 A 
ATOM     20  C   UNL     1       2.180  -0.371   0.188  0.00  0.00    +0.006 A 
ATOM     21  C   UNL     1       0.972   0.224   0.499  0.00  0.00    +0.000 A 
ENDBRANCH   1  19
BRANCH   1  22
ATOM     22  N   UNL     1       4.310  -1.510  -1.292  0.00  0.00    -0.300 N 
ATOM     23  C   UNL     1       4.111  -1.511  -2.625  0.00  0.00    +0.247 C 
ATOM     24  O   UNL     1       4.136  -0.466  -3.244  0.00  0.00    -0.270 OA
ATOM     25  H   UNL     1       4.290  -2.344  -0.798  0.00  0.00    +0.150 HD
BRANCH  23  26
ATOM     26  C   UNL     1       3.863  -2.785  -3.334  0.00  0.00    +0.070 A 
ATOM     27  C   UNL     1       4.766  -3.842  -3.212  0.00  0.00    +0.053 A 
ATOM     28  C   UNL     1       4.527  -5.029  -3.877  0.00  0.00    +0.124 A 
ATOM     29  C   UNL     1       3.395  -5.170  -4.664  0.00  0.00    +0.040 A 
ATOM     30  C   UNL     1       2.498  -4.125  -4.787  0.00  0.00    +0.036 A 
ATOM     31  C   UNL     1       2.722  -2.936  -4.123  0.00  0.00    +0.138 A 
ATOM     32  F   UNL     1       5.400  -6.054  -3.761  0.00  0.00    -0.205 F 
BRANCH  31  33
ATOM     33  N   UNL     1       1.757  -1.822  -4.253  0.00  0.00    +0.057 N 
ATOM     34  O   UNL     1       0.835  -1.907  -5.031  0.00  0.00    -0.126 OA
ATOM     35  O   UNL     1       1.890  -0.826  -3.581  0.00  0.00    -0.126 OA
ENDBRANCH  31  33
ENDBRANCH  23  26
ENDBRANCH   1  22
TORSDOF 6
