REMARK  Name = ZINC14606944
REMARK  4 active torsions:
REMARK  status: ('A' for Active; 'I' for Inactive)
REMARK    1  A    between atoms: C_4  and  C_7
REMARK    2  A    between atoms: C_7  and  C_8
REMARK    3  A    between atoms: C_7  and  N_14
REMARK    4  A    between atoms: C_26  and  C_28
REMARK                            x       y       z     vdW  Elec       q    Type
REMARK                         _______ _______ _______ _____ _____    ______ ____
ROOT
ATOM      1  N   UNL     1       3.207  -4.883  -0.982  0.00  0.00    -0.289 NA
ATOM      2  C   UNL     1       2.278  -4.395   0.046  0.00  0.00    +0.104 C 
ATOM      3  C   UNL     1       2.379  -2.870   0.139  0.00  0.00    +0.123 C 
ATOM      4  N   UNL     1       3.762  -2.492   0.460  0.00  0.00    -0.299 N 
ATOM      5  C   UNL     1       4.691  -2.981  -0.568  0.00  0.00    +0.123 C 
ATOM      6  C   UNL     1       4.590  -4.505  -0.660  0.00  0.00    +0.104 C 
ATOM      7  C   UNL     1       3.876  -1.137   0.620  0.00  0.00    +0.199 A 
ATOM      8  N   UNL     1       5.106  -0.591   0.821  0.00  0.00    -0.295 N 
ATOM      9  H   UNL     1       5.996  -1.237   0.853  0.00  0.00    +0.172 HD
ATOM     10  C   UNL     1       5.239   0.742   0.982  0.00  0.00    +0.253 A 
ATOM     11  O   UNL     1       6.338   1.240   1.164  0.00  0.00    -0.268 OA
ATOM     12  C   UNL     1       4.090   1.547   0.937  0.00  0.00    +0.098 A 
ATOM     13  C   UNL     1       2.860   0.940   0.729  0.00  0.00    +0.080 A 
ATOM     14  N   UNL     1       2.793  -0.391   0.581  0.00  0.00    -0.216 NA
ENDROOT
BRANCH  13  15
ATOM     15  C   UNL     1       1.627   1.758   0.677  0.00  0.00    +0.001 A 
ATOM     16  C   UNL     1       0.390   1.147   0.467  0.00  0.00    +0.013 A 
ATOM     17  C   UNL     1      -0.755   1.913   0.414  0.00  0.00    +0.039 A 
ATOM     18  C   UNL     1      -0.680   3.287   0.579  0.00  0.00    +0.123 A 
ATOM     19  C   UNL     1       0.546   3.899   0.787  0.00  0.00    +0.039 A 
ATOM     20  C   UNL     1       1.698   3.142   0.837  0.00  0.00    +0.013 A 
ATOM     21  F   UNL     1      -1.805   4.034   0.531  0.00  0.00    -0.205 F 
ENDBRANCH  13  15
BRANCH   1  22
ATOM     22  C   UNL     1       3.085  -6.337  -1.154  0.00  0.00    +0.117 C 
BRANCH  22  26
ATOM     23  C   UNL     1      -0.950  -7.319  -2.156  0.00  0.00    +0.000 A 
ATOM     24  C   UNL     1      -0.267  -8.073  -1.220  0.00  0.00    +0.000 A 
ATOM     25  C   UNL     1       1.039  -7.755  -0.896  0.00  0.00    +0.005 A 
ATOM     26  C   UNL     1       1.662  -6.683  -1.508  0.00  0.00    -0.026 A 
ATOM     27  C   UNL     1       0.977  -5.926  -2.439  0.00  0.00    +0.005 A 
ATOM     28  C   UNL     1      -0.327  -6.246  -2.768  0.00  0.00    +0.000 A 
ENDBRANCH  22  26
BRANCH  22  29
ATOM     29  C   UNL     1       4.002  -6.791  -2.260  0.00  0.00    -0.026 A 
ATOM     30  C   UNL     1       4.068  -6.076  -3.441  0.00  0.00    +0.005 A 
ATOM     31  C   UNL     1       4.913  -6.489  -4.453  0.00  0.00    +0.000 A 
ATOM     32  C   UNL     1       5.685  -7.624  -4.289  0.00  0.00    +0.000 A 
ATOM     33  C   UNL     1       5.615  -8.343  -3.110  0.00  0.00    +0.000 A 
ATOM     34  C   UNL     1       4.774  -7.926  -2.095  0.00  0.00    +0.005 A 
ENDBRANCH  22  29
ENDBRANCH   1  22
TORSDOF 4
