REMARK  Name = ZINC02617946
REMARK  6 active torsions:
REMARK  status: ('A' for Active; 'I' for Inactive)
REMARK    1  A    between atoms: C_1  and  C_2
REMARK    2  A    between atoms: C_2  and  C_4
REMARK    3  A    between atoms: C_2  and  S_10
REMARK    4  A    between atoms: S_10  and  C_11
REMARK    5  A    between atoms: C_14  and  C_24
REMARK    6  A    between atoms: N_15  and  C_16
REMARK                            x       y       z     vdW  Elec       q    Type
REMARK                         _______ _______ _______ _____ _____    ______ ____
ROOT
ATOM      1  C   UNL     1      -2.839   3.668  -0.124  0.00  0.00    +0.197 A 
ATOM      2  N   UNL     1      -3.386   2.521   0.212  0.00  0.00    -0.122 NA
ATOM      3  N   UNL     1      -2.484   1.609   0.296  0.00  0.00    -0.128 NA
ATOM      4  C   UNL     1      -1.305   2.116   0.020  0.00  0.00    +0.169 A 
ATOM      5  N   UNL     1      -1.495   3.453  -0.253  0.00  0.00    -0.267 N 
ENDROOT
BRANCH   5   6
ATOM      6  C   UNL     1      -0.513   4.397  -0.595  0.00  0.00    +0.086 A 
ATOM      7  C   UNL     1      -0.179   4.601  -1.926  0.00  0.00    +0.032 A 
ATOM      8  C   UNL     1       0.784   5.533  -2.261  0.00  0.00    +0.040 A 
ATOM      9  C   UNL     1       1.423   6.258  -1.269  0.00  0.00    +0.126 A 
ATOM     10  C   UNL     1       1.095   6.054   0.060  0.00  0.00    +0.078 A 
ATOM     11  C   UNL     1       0.128   5.125   0.400  0.00  0.00    +0.150 A 
ATOM     12  F   UNL     1      -0.191   4.925   1.698  0.00  0.00    -0.203 F 
ATOM     13  F   UNL     1       2.368   7.165  -1.599  0.00  0.00    -0.205 F 
ENDBRANCH   5   6
BRANCH   4  14
ATOM     14  C   UNL     1      -0.017   1.392   0.010  0.00  0.00    +0.020 A 
ATOM     15  C   UNL     1       1.186   2.100   0.002  0.00  0.00    +0.011 A 
ATOM     16  C   UNL     1       2.385   1.417  -0.013  0.00  0.00    +0.001 A 
ATOM     17  C   UNL     1       2.396   0.034  -0.021  0.00  0.00    +0.000 A 
ATOM     18  C   UNL     1       1.208  -0.674  -0.013  0.00  0.00    +0.001 A 
ATOM     19  C   UNL     1       0.002  -0.004   0.002  0.00  0.00    +0.011 A 
ENDBRANCH   4  14
BRANCH   1  20
ATOM     20  S   UNL     1      -3.681   5.198  -0.359  0.00  0.00    -0.073 S 
BRANCH  20  22
ATOM     21  C   UNL     1      -5.490   4.253   1.457  0.00  0.00    +0.029 C 
ATOM     22  C   UNL     1      -5.379   4.680  -0.009  0.00  0.00    +0.137 C 
BRANCH  22  23
ATOM     23  C   UNL     1      -6.319   5.828  -0.271  0.00  0.00    +0.233 C 
ATOM     24  O   UNL     1      -5.896   6.964  -0.299  0.00  0.00    -0.274 OA
ATOM     25  N   UNL     1      -7.630   5.593  -0.474  0.00  0.00    -0.239 N 
ATOM     26  C   UNL     1      -8.471   6.620  -0.708  0.00  0.00    +0.303 C 
ATOM     27  O   UNL     1      -8.046   7.758  -0.737  0.00  0.00    -0.253 OA
ATOM     28  N   UNL     1      -9.782   6.384  -0.912  0.00  0.00    -0.313 N 
ATOM     29  H   UNL     1      -7.969   4.684  -0.452  0.00  0.00    +0.159 HD
ATOM     30  H   UNL     1     -10.121   5.476  -0.889  0.00  0.00    +0.146 HD
ATOM     31  H   UNL     1     -10.387   7.123  -1.080  0.00  0.00    +0.146 HD
ENDBRANCH  22  23
ENDBRANCH  20  22
ENDBRANCH   1  20
TORSDOF 5
