REMARK  Name = ZINC16447563
REMARK  9 active torsions:
REMARK  status: ('A' for Active; 'I' for Inactive)
REMARK    1  A    between atoms: C_1  and  C_2
REMARK    2  A    between atoms: C_2  and  C_3
REMARK    3  A    between atoms: C_6  and  C_9
REMARK    4  A    between atoms: C_14  and  C_20
REMARK    5  A    between atoms: C_22  and  N_30
REMARK    6  A    between atoms: C_23  and  O_29
REMARK    7  A    between atoms: C_24  and  O_26
REMARK    8  A    between atoms: O_26  and  C_27
REMARK    9  A    between atoms: C_27  and  C_28
REMARK                            x       y       z     vdW  Elec       q    Type
REMARK                         _______ _______ _______ _____ _____    ______ ____
ROOT
ATOM      1  C   UNL     1       2.797  -1.919   4.683  0.00  0.00    +0.032 C 
ATOM      2  C   UNL     1       2.608  -0.929   5.836  0.00  0.00    +0.059 C 
ATOM      3  C   UNL     1       3.295  -1.455   7.072  0.00  0.00    +0.018 C 
ATOM      4  C   UNL     1       3.408  -2.782   7.290  0.00  0.00    +0.020 C 
ATOM      5  C   UNL     1       4.095  -3.284   8.537  0.00  0.00    +0.063 C 
ATOM      6  C   UNL     1       3.803  -2.330   9.697  0.00  0.00    +0.109 C 
ATOM      7  C   UNL     1       4.054  -0.915   9.246  0.00  0.00    +0.218 C 
ATOM      8  O   UNL     1       4.483  -0.097  10.032  0.00  0.00    -0.275 OA
ATOM      9  N   UNL     1       3.805  -0.557   7.975  0.00  0.00    -0.289 N 
ATOM     10  C   UNL     1       2.900  -3.719   6.375  0.00  0.00    +0.162 C 
ATOM     11  O   UNL     1       3.007  -4.905   6.612  0.00  0.00    -0.292 OA
ATOM     12  C   UNL     1       2.226  -3.278   5.103  0.00  0.00    +0.088 C 
ATOM     13  H   UNL     1       3.989   0.353   7.691  0.00  0.00    +0.155 HD
ENDROOT
BRANCH   1  17
ATOM     14  C   UNL     1       0.731  -0.503   1.223  0.00  0.00    -0.048 A 
ATOM     15  C   UNL     1       2.097  -0.710   1.176  0.00  0.00    +0.004 A 
ATOM     16  C   UNL     1       2.766  -1.167   2.296  0.00  0.00    +0.004 A 
ATOM     17  C   UNL     1       2.068  -1.419   3.463  0.00  0.00    -0.043 A 
ATOM     18  C   UNL     1       0.702  -1.212   3.510  0.00  0.00    +0.004 A 
ATOM     19  C   UNL     1       0.034  -0.750   2.391  0.00  0.00    +0.004 A 
BRANCH  14  21
ATOM     20  C   UNL     1      -0.019   1.526   0.010  0.00  0.00    +0.009 C 
ATOM     21  C   UNL     1       0.002  -0.004   0.002  0.00  0.00    +0.032 C 
ENDBRANCH  14  21
ENDBRANCH   1  17
BRANCH   5  22
ATOM     22  C   UNL     1       5.582  -3.349   8.301  0.00  0.00    -0.034 A 
ATOM     23  C   UNL     1       6.280  -2.199   7.980  0.00  0.00    +0.041 A 
ATOM     24  C   UNL     1       7.644  -2.253   7.763  0.00  0.00    +0.171 A 
ATOM     25  C   UNL     1       8.315  -3.461   7.866  0.00  0.00    +0.189 A 
ATOM     26  C   UNL     1       7.612  -4.618   8.190  0.00  0.00    +0.164 A 
ATOM     27  C   UNL     1       6.246  -4.556   8.411  0.00  0.00    +0.053 A 
BRANCH  24  28
ATOM     28  N   UNL     1       8.388  -1.021   7.418  0.00  0.00    +0.060 N 
ATOM     29  O   UNL     1       7.802   0.033   7.328  0.00  0.00    -0.126 OA
ATOM     30  O   UNL     1       9.581  -1.068   7.228  0.00  0.00    -0.126 OA
ENDBRANCH  24  28
BRANCH  25  31
ATOM     31  O   UNL     1       9.656  -3.516   7.652  0.00  0.00    -0.502 OA
ATOM     32  H   UNL     1      10.188  -3.379   8.448  0.00  0.00    +0.292 HD
ENDBRANCH  25  31
BRANCH  26  33
ATOM     33  O   UNL     1       8.266  -5.806   8.292  0.00  0.00    -0.488 OA
BRANCH  33  34
ATOM     34  C   UNL     1       7.481  -6.952   8.627  0.00  0.00    +0.226 C 
ATOM     35  C   UNL     1       8.383  -8.186   8.697  0.00  0.00    +0.048 C 
ENDBRANCH  33  34
ENDBRANCH  26  33
ENDBRANCH   5  22
TORSDOF 7
