REMARK  Name = ZINC30861550
REMARK  7 active torsions:
REMARK  status: ('A' for Active; 'I' for Inactive)
REMARK    1  A    between atoms: C_1  and  C_2
REMARK    2  A    between atoms: N_6  and  C_7
REMARK    3  A    between atoms: C_10  and  C_13
REMARK    4  A    between atoms: C_13  and  N_14
REMARK    5  A    between atoms: C_15  and  C_17
REMARK    6  A    between atoms: N_20  and  S_23
REMARK    7  A    between atoms: S_23  and  C_26
REMARK                            x       y       z     vdW  Elec       q    Type
REMARK                         _______ _______ _______ _____ _____    ______ ____
ROOT
ATOM      1  N   UNL     1       0.201   3.409   6.585  0.00  0.00    -0.311 N 
ATOM      2  C   UNL     1       1.206   3.279   5.696  0.00  0.00    +0.216 C 
ATOM      3  O   UNL     1       2.129   2.527   5.930  0.00  0.00    -0.276 OA
ATOM      4  H   UNL     1      -0.635   4.091   6.372  0.00  0.00    +0.149 HD
ENDROOT
BRANCH   2   5
ATOM      5  C   UNL     1       1.184   4.067   4.412  0.00  0.00    +0.077 C 
ATOM      6  C   UNL     1       2.431   3.736   3.589  0.00  0.00    +0.030 C 
ATOM      7  C   UNL     1       2.422   4.565   2.300  0.00  0.00    +0.110 C 
ATOM      8  N   UNL     1       1.154   4.329   1.596  0.00  0.00    -0.177 NA
ATOM      9  C   UNL     1      -0.107   4.535   2.322  0.00  0.00    +0.110 C 
ATOM     10  C   UNL     1      -0.069   3.702   3.612  0.00  0.00    +0.030 C 
BRANCH   8  11
ATOM     11  S   UNL     1       1.146   3.847   0.011  0.00  0.00    +0.061 S 
ATOM     12  O   UNL     1       2.380   4.274  -0.549  0.00  0.00    -0.153 OA
ATOM     13  O   UNL     1      -0.110   4.239  -0.526  0.00  0.00    -0.153 OA
BRANCH  11  14
ATOM     14  C   UNL     1       1.171   2.086   0.002  0.00  0.00    +0.106 A 
ATOM     15  C   UNL     1      -0.017   1.378   0.010  0.00  0.00    +0.030 A 
ATOM     16  C   UNL     1       0.002  -0.004   0.002  0.00  0.00    +0.022 A 
ATOM     17  C   UNL     1       1.210  -0.679  -0.013  0.00  0.00    +0.041 A 
ATOM     18  C   UNL     1       2.398   0.030  -0.021  0.00  0.00    +0.022 A 
ATOM     19  C   UNL     1       2.378   1.412  -0.013  0.00  0.00    +0.030 A 
ATOM     20 CL   UNL     1       1.234  -2.415  -0.022  0.00  0.00    -0.084 Cl
ENDBRANCH  11  14
ENDBRANCH   8  11
ENDBRANCH   2   5
BRANCH   1  21
ATOM     21  C   UNL     1       0.224   2.643   7.833  0.00  0.00    +0.139 C 
BRANCH  21  25
ATOM     22  C   UNL     1      -3.259   3.566  10.132  0.00  0.00    +0.048 A 
ATOM     23  C   UNL     1      -3.285   2.521   9.219  0.00  0.00    +0.026 A 
ATOM     24  C   UNL     1      -2.158   2.224   8.478  0.00  0.00    +0.007 A 
ATOM     25  C   UNL     1      -1.004   2.969   8.644  0.00  0.00    -0.030 A 
ATOM     26  C   UNL     1      -0.974   4.007   9.556  0.00  0.00    +0.007 A 
ATOM     27  C   UNL     1      -2.100   4.311  10.297  0.00  0.00    +0.026 A 
BRANCH  22  33
ATOM     28  C   UNL     1      -3.297   3.921  13.184  0.00  0.00    +0.084 C 
ATOM     29  C   UNL     1      -4.460   4.033  12.233  0.00  0.00    +0.088 A 
ATOM     30  N   UNL     1      -5.692   4.308  12.565  0.00  0.00    -0.350 N 
ATOM     31  C   UNL     1      -6.457   4.321  11.464  0.00  0.00    +0.102 A 
ATOM     32  C   UNL     1      -5.673   4.048  10.404  0.00  0.00    +0.110 A 
ATOM     33  N   UNL     1      -4.402   3.869  10.886  0.00  0.00    -0.305 N 
ATOM     34  H   UNL     1      -5.951   4.486  13.620  0.00  0.00    +0.166 HD
ENDBRANCH  22  33
ENDBRANCH  21  25
ENDBRANCH   1  21
TORSDOF 6
