REMARK  Name = ZINC56956988
REMARK  10 active torsions:
REMARK  status: ('A' for Active; 'I' for Inactive)
REMARK    1  A    between atoms: C_1  and  C_2
REMARK    2  A    between atoms: C_7  and  C_8
REMARK    3  A    between atoms: N_10  and  N_11
REMARK    4  A    between atoms: N_14  and  C_15
REMARK    5  A    between atoms: C_15  and  C_16
REMARK    6  A    between atoms: C_20  and  O_22
REMARK    7  A    between atoms: O_22  and  C_23
REMARK    8  A    between atoms: C_23  and  C_24
REMARK    9  A    between atoms: C_24  and  C_25
REMARK   10  A    between atoms: C_24  and  C_26
REMARK                            x       y       z     vdW  Elec       q    Type
REMARK                         _______ _______ _______ _____ _____    ______ ____
ROOT
ATOM      1  N   UNL     1       0.573   0.035   4.838  0.00  0.00    -0.218 N 
ATOM      2  C   UNL     1       0.796  -0.642   5.982  0.00  0.00    +0.316 C 
ATOM      3  O   UNL     1       0.890  -0.042   7.036  0.00  0.00    -0.251 OA
ATOM      4  N   UNL     1       0.915  -1.985   5.958  0.00  0.00    -0.294 N 
ATOM      5  H   UNL     1       0.488   1.001   4.856  0.00  0.00    +0.174 HD
ATOM      6  H   UNL     1       0.840  -2.463   5.118  0.00  0.00    +0.151 HD
ENDROOT
BRANCH   1   9
ATOM      7  C   UNL     1       0.242   0.021   2.481  0.00  0.00    +0.260 C 
ATOM      8  O   UNL     1       0.135   1.232   2.503  0.00  0.00    -0.269 OA
ATOM      9  N   UNL     1       0.465  -0.656   3.625  0.00  0.00    -0.229 N 
ATOM     10  H   UNL     1       0.550  -1.622   3.607  0.00  0.00    +0.173 HD
BRANCH   7  17
ATOM     11  C   UNL     1      -0.511   1.452   0.082  0.00  0.00    +0.044 C 
ATOM     12  C   UNL     1      -0.235  -0.028   0.036  0.00  0.00    -0.038 A 
ATOM     13  C   UNL     1      -0.334  -0.714  -1.157  0.00  0.00    +0.004 A 
ATOM     14  C   UNL     1      -0.079  -2.073  -1.200  0.00  0.00    +0.000 A 
ATOM     15  C   UNL     1       0.275  -2.754  -0.049  0.00  0.00    +0.001 A 
ATOM     16  C   UNL     1       0.378  -2.080   1.150  0.00  0.00    +0.013 A 
ATOM     17  C   UNL     1       0.128  -0.708   1.200  0.00  0.00    +0.041 A 
ENDBRANCH   7  17
ENDBRANCH   1   9
BRANCH   4  18
ATOM     18  C   UNL     1       1.157  -2.721   7.201  0.00  0.00    +0.141 C 
BRANCH  18  19
ATOM     19  C   UNL     1       1.249  -4.195   6.902  0.00  0.00    -0.027 A 
ATOM     20  C   UNL     1       0.109  -4.977   6.926  0.00  0.00    +0.005 A 
ATOM     21  C   UNL     1       0.190  -6.330   6.652  0.00  0.00    +0.004 A 
ATOM     22  C   UNL     1       1.411  -6.904   6.354  0.00  0.00    +0.045 A 
ATOM     23  C   UNL     1       2.556  -6.121   6.330  0.00  0.00    +0.121 A 
ATOM     24  C   UNL     1       2.471  -4.763   6.599  0.00  0.00    +0.050 A 
BRANCH  23  25
ATOM     25  O   UNL     1       3.758  -6.683   6.037  0.00  0.00    -0.492 OA
BRANCH  25  26
ATOM     26  C   UNL     1       3.770  -8.086   5.764  0.00  0.00    +0.232 C 
BRANCH  26  27
ATOM     27  C   UNL     1       5.200  -8.534   5.458  0.00  0.00    +0.020 C 
ATOM     28  C   UNL     1       5.233 -10.055   5.290  0.00  0.00    +0.010 C 
ATOM     29  C   UNL     1       5.679  -7.867   4.168  0.00  0.00    +0.010 C 
ENDBRANCH  26  27
ENDBRANCH  25  26
ENDBRANCH  23  25
ENDBRANCH  18  19
ENDBRANCH   4  18
TORSDOF 7
