REMARK  Name = ZINC13963428
REMARK  9 active torsions:
REMARK  status: ('A' for Active; 'I' for Inactive)
REMARK    1  A    between atoms: C_1  and  C_2
REMARK    2  A    between atoms: C_2  and  O_3
REMARK    3  A    between atoms: O_3  and  C_4
REMARK    4  A    between atoms: C_4  and  C_6
REMARK    5  A    between atoms: C_10  and  N_11
REMARK    6  A    between atoms: C_12  and  C_14
REMARK    7  A    between atoms: N_20  and  S_21
REMARK    8  A    between atoms: S_21  and  C_24
REMARK    9  A    between atoms: C_30  and  C_34
REMARK                            x       y       z     vdW  Elec       q    Type
REMARK                         _______ _______ _______ _____ _____    ______ ____
ROOT
ATOM      1  N   UNL     1      -2.248  -1.427  -1.648  0.00  0.00    -0.278 N 
ATOM      2  C   UNL     1      -1.599  -0.336  -1.193  0.00  0.00    +0.236 C 
ATOM      3  O   UNL     1      -0.871  -0.423  -0.227  0.00  0.00    -0.274 OA
ATOM      4  H   UNL     1      -2.830  -1.357  -2.421  0.00  0.00    +0.155 HD
ENDROOT
BRANCH   1   9
ATOM      5  C   UNL     1      -2.664  -3.869  -1.325  0.00  0.00    +0.091 A 
ATOM      6  C   UNL     1      -2.317  -5.009  -0.494  0.00  0.00    -0.021 A 
ATOM      7  C   UNL     1      -1.460  -4.745   0.516  0.00  0.00    -0.004 A 
ATOM      8  S   UNL     1      -1.107  -3.017   0.371  0.00  0.00    -0.077 S 
ATOM      9  C   UNL     1      -2.083  -2.647  -1.012  0.00  0.00    +0.086 A 
ATOM     10  C   UNL     1      -0.932  -5.714   1.530  0.00  0.00    +0.046 C 
ATOM     11  C   UNL     1      -1.215  -7.138   1.030  0.00  0.00    -0.009 C 
ATOM     12  C   UNL     1      -2.675  -7.221   0.575  0.00  0.00    +0.008 C 
ATOM     13  C   UNL     1      -2.865  -6.414  -0.710  0.00  0.00    +0.037 C 
ATOM     14  C   UNL     1      -0.974  -8.137   2.164  0.00  0.00    +0.008 C 
BRANCH   5  15
ATOM     15  C   UNL     1      -3.588  -4.004  -2.453  0.00  0.00    +0.342 C 
ATOM     16  O   UNL     1      -3.162  -4.282  -3.558  0.00  0.00    -0.245 OA
BRANCH  15  17
ATOM     17  O   UNL     1      -4.911  -3.820  -2.267  0.00  0.00    -0.461 OA
BRANCH  17  19
ATOM     18  C   UNL     1      -7.223  -3.725  -3.026  0.00  0.00    +0.048 C 
ATOM     19  C   UNL     1      -5.768  -3.970  -3.429  0.00  0.00    +0.229 C 
ENDBRANCH  17  19
ENDBRANCH  15  17
ENDBRANCH   5  15
ENDBRANCH   1   9
BRANCH   2  20
ATOM     20  C   UNL     1      -1.779   0.991  -1.885  0.00  0.00    +0.166 C 
ATOM     21  C   UNL     1      -0.443   1.448  -2.466  0.00  0.00    +0.030 C 
ATOM     22  C   UNL     1      -0.595   2.858  -3.042  0.00  0.00    +0.003 C 
ATOM     23  C   UNL     1      -0.995   3.826  -1.927  0.00  0.00    +0.017 C 
ATOM     24  C   UNL     1      -2.343   3.395  -1.341  0.00  0.00    +0.110 C 
ATOM     25  N   UNL     1      -2.247   1.991  -0.916  0.00  0.00    -0.164 NA
BRANCH  25  26
ATOM     26  S   UNL     1      -2.652   1.547   0.627  0.00  0.00    +0.068 S 
ATOM     27  O   UNL     1      -3.567   2.524   1.104  0.00  0.00    -0.152 OA
ATOM     28  O   UNL     1      -2.970   0.163   0.581  0.00  0.00    -0.152 OA
BRANCH  26  29
ATOM     29  C   UNL     1      -1.198   1.697   1.611  0.00  0.00    +0.143 A 
ATOM     30  C   UNL     1      -0.746   2.768   2.308  0.00  0.00    +0.036 A 
ATOM     31  C   UNL     1       0.435   2.655   3.018  0.00  0.00    +0.010 A 
ATOM     32  C   UNL     1       1.106   1.478   2.996  0.00  0.00    +0.047 A 
ATOM     33  S   UNL     1       0.058   0.476   1.954  0.00  0.00    -0.077 S 
ENDBRANCH  26  29
ENDBRANCH  25  26
ENDBRANCH   2  20
TORSDOF 7
