REMARK  Name = ZINC49570848
REMARK  6 active torsions:
REMARK  status: ('A' for Active; 'I' for Inactive)
REMARK    1  A    between atoms: C_3  and  S_9
REMARK    2  A    between atoms: C_5  and  C_6
REMARK    3  A    between atoms: C_6  and  C_7
REMARK    4  A    between atoms: C_7  and  N_8
REMARK    5  A    between atoms: S_9  and  N_12
REMARK    6  A    between atoms: N_12  and  C_13
REMARK                            x       y       z     vdW  Elec       q    Type
REMARK                         _______ _______ _______ _____ _____    ______ ____
ROOT
ATOM      1  S   UNL     1       4.001   1.932  -0.026  0.00  0.00    +0.065 S 
ATOM      2  O   UNL     1       4.799   0.900  -0.590  0.00  0.00    -0.153 OA
ATOM      3  O   UNL     1       3.957   3.244  -0.570  0.00  0.00    -0.153 OA
ENDROOT
BRANCH   1   6
ATOM      4  C   UNL     1      -0.016   1.351   0.009  0.00  0.00    +0.013 A 
ATOM      5  C   UNL     1       1.183   2.038   0.002  0.00  0.00    +0.036 A 
ATOM      6  C   UNL     1       2.343   1.336  -0.013  0.00  0.00    +0.143 A 
ATOM      7  S   UNL     1       1.754  -0.349  -0.017  0.00  0.00    -0.074 S 
ATOM      8  C   UNL     1       0.002  -0.004   0.002  0.00  0.00    -0.010 A 
BRANCH   8   9
ATOM      9  C   UNL     1      -1.155  -0.969   0.008  0.00  0.00    +0.023 C 
BRANCH   9  10
ATOM     10  C   UNL     1      -1.562  -1.288  -1.432  0.00  0.00    -0.081 C 
BRANCH  10  11
ATOM     11  N   UNL     1      -2.690  -2.228  -1.426  0.00  0.00    +0.378 N 
ATOM     12  H   UNL     1      -3.471  -1.813  -0.940  0.00  0.00    -0.090 HD
ATOM     13  H   UNL     1      -2.958  -2.438  -2.376  0.00  0.00    -0.090 HD
ATOM     14  H   UNL     1      -2.416  -3.079  -0.957  0.00  0.00    -0.090 HD
ENDBRANCH  10  11
ENDBRANCH   9  10
ENDBRANCH   8   9
ENDBRANCH   1   6
BRANCH   1  15
ATOM     15  N   UNL     1       4.477   2.089   1.552  0.00  0.00    -0.188 NA
ATOM     16  H   UNL     1       4.677   2.967   1.913  0.00  0.00    +0.148 HD
BRANCH  15  17
ATOM     17  C   UNL     1       4.596   0.903   2.403  0.00  0.00    +0.061 C 
ATOM     18  C   UNL     1       3.327   0.733   3.278  0.00  0.00    +0.000 C 
ATOM     19  C   UNL     1       3.825   0.897   4.739  0.00  0.00    -0.077 C 
ATOM     20  N   UNL     1       5.053   1.695   4.595  0.00  0.00    +0.383 N 
ATOM     21  C   UNL     1       5.731   1.081   3.417  0.00  0.00    -0.050 C 
ATOM     22  C   UNL     1       6.828   2.033   2.965  0.00  0.00    -0.014 C 
ATOM     23  C   UNL     1       7.853   2.129   4.107  0.00  0.00    -0.003 C 
ATOM     24  C   UNL     1       7.170   2.550   5.407  0.00  0.00    -0.019 C 
ATOM     25  C   UNL     1       5.972   1.632   5.724  0.00  0.00    -0.078 C 
ATOM     26  H   UNL     1       4.817   2.656   4.398  0.00  0.00    -0.081 HD
ENDBRANCH  15  17
ENDBRANCH   1  15
TORSDOF 6
