REMARK  Name = ZINC19318712
REMARK  4 active torsions:
REMARK  status: ('A' for Active; 'I' for Inactive)
REMARK    1  A    between atoms: C_4  and  C_7
REMARK    2  A    between atoms: C_7  and  C_21
REMARK    3  A    between atoms: N_8  and  N_9
REMARK    4  A    between atoms: C_10  and  C_11
REMARK                            x       y       z     vdW  Elec       q    Type
REMARK                         _______ _______ _______ _____ _____    ______ ____
ROOT
ATOM      1  C   UNL     1      -2.486   1.036   0.026  0.00  0.00    +0.077 C 
ATOM      2  N   UNL     1      -2.500  -0.269  -0.060  0.00  0.00    -0.153 NA
ENDROOT
BRANCH   1   3
ATOM      3  C   UNL     1      -3.781   1.797   0.154  0.00  0.00    +0.026 C 
ATOM      4  C   UNL     1      -3.999   2.688  -1.077  0.00  0.00    -0.059 C 
ATOM      5  N   UNL     1      -5.287   3.418  -0.877  0.00  0.00    +0.397 N 
ATOM      6  C   UNL     1      -6.400   2.459  -0.786  0.00  0.00    +0.011 C 
ATOM      7  N   UNL     1      -6.202   1.605   0.397  0.00  0.00    -0.305 NA
ATOM      8  C   UNL     1      -4.962   0.822   0.261  0.00  0.00    +0.096 C 
ATOM      9  C   UNL     1      -6.157   2.428   1.617  0.00  0.00    +0.167 C 
ATOM     10  N   UNL     1      -5.045   3.386   1.507  0.00  0.00    -0.305 NA
ATOM     11  C   UNL     1      -3.761   2.673   1.415  0.00  0.00    +0.096 C 
ATOM     12  C   UNL     1      -5.235   4.254   0.333  0.00  0.00    +0.011 C 
ATOM     13  H   UNL     1      -5.463   4.082  -1.736  0.00  0.00    -0.078 HD
ENDBRANCH   1   3
BRANCH   1  17
ATOM     14  C   UNL     1       1.202   3.127  -0.064  0.00  0.00    +0.000 A 
ATOM     15  C   UNL     1       1.196   1.743  -0.035  0.00  0.00    +0.001 A 
ATOM     16  C   UNL     1       0.001   1.056  -0.002  0.00  0.00    +0.010 A 
ATOM     17  C   UNL     1      -1.207   1.761  -0.003  0.00  0.00    -0.001 A 
ATOM     18  C   UNL     1      -1.192   3.160  -0.026  0.00  0.00    +0.010 A 
ATOM     19  C   UNL     1       0.011   3.832  -0.060  0.00  0.00    +0.001 A 
ENDBRANCH   1  17
BRANCH   2  20
ATOM     20  N   UNL     1      -3.624  -0.898  -0.136  0.00  0.00    -0.157 NA
ATOM     21  C   UNL     1      -3.637  -2.195  -0.319  0.00  0.00    +0.143 C 
BRANCH  21  22
ATOM     22  C   UNL     1      -4.910  -2.895  -0.512  0.00  0.00    +0.002 A 
ATOM     23  C   UNL     1      -6.105  -2.186  -0.607  0.00  0.00    +0.010 A 
ATOM     24  C   UNL     1      -7.307  -2.852  -0.790  0.00  0.00    +0.001 A 
ATOM     25  C   UNL     1      -7.370  -4.209  -0.884  0.00  0.00    +0.008 A 
ATOM     26  C   UNL     1      -6.205  -4.990  -0.797  0.00  0.00    -0.017 A 
ATOM     27  C   UNL     1      -4.953  -4.354  -0.616  0.00  0.00    -0.009 A 
ATOM     28  C   UNL     1      -3.791  -5.128  -0.522  0.00  0.00    +0.009 A 
ATOM     29  C   UNL     1      -3.876  -6.486  -0.618  0.00  0.00    +0.001 A 
ATOM     30  C   UNL     1      -5.105  -7.114  -0.802  0.00  0.00    +0.001 A 
ATOM     31  C   UNL     1      -6.256  -6.391  -0.892  0.00  0.00    +0.008 A 
ENDBRANCH  21  22
ENDBRANCH   2  20
TORSDOF 4
