REMARK  Name = ZINC41311777
REMARK  5 active torsions:
REMARK  status: ('A' for Active; 'I' for Inactive)
REMARK    1  A    between atoms: C_6  and  C_7
REMARK    2  A    between atoms: C_7  and  C_9
REMARK    3  A    between atoms: C_7  and  N_23
REMARK    4  A    between atoms: C_9  and  N_10
REMARK    5  A    between atoms: C_11  and  C_13
REMARK                            x       y       z     vdW  Elec       q    Type
REMARK                         _______ _______ _______ _____ _____    ______ ____
ROOT
ATOM      1  C   UNL     1      -1.427  -1.200  -1.439  0.00  0.00    +0.094 C 
ENDROOT
BRANCH   1   2
ATOM      2  N   UNL     1      -1.790  -0.043  -2.261  0.00  0.00    -0.310 N 
ATOM      3  C   UNL     1      -2.060  -0.205  -3.571  0.00  0.00    +0.279 C 
ATOM      4  O   UNL     1      -2.003  -1.312  -4.072  0.00  0.00    -0.267 OA
ATOM      5  H   UNL     1      -1.835   0.840  -1.862  0.00  0.00    +0.149 HD
BRANCH   3   6
ATOM      6  C   UNL     1      -2.424   0.956  -4.396  0.00  0.00    +0.190 A 
ATOM      7  C   UNL     1      -2.720   0.912  -5.720  0.00  0.00    +0.063 A 
ATOM      8  C   UNL     1      -3.018   2.289  -6.114  0.00  0.00    +0.022 A 
ATOM      9  C   UNL     1      -3.385   2.899  -7.316  0.00  0.00    +0.031 A 
ATOM     10  C   UNL     1      -3.597   4.249  -7.353  0.00  0.00    +0.042 A 
ATOM     11  C   UNL     1      -3.449   5.016  -6.204  0.00  0.00    +0.023 A 
ATOM     12  C   UNL     1      -3.087   4.432  -5.010  0.00  0.00    +0.048 A 
ATOM     13  C   UNL     1      -2.867   3.061  -4.948  0.00  0.00    +0.136 A 
ATOM     14  O   UNL     1      -2.518   2.226  -3.949  0.00  0.00    -0.450 OA
ATOM     15 CL   UNL     1      -4.054   5.011  -8.845  0.00  0.00    -0.084 Cl
ENDBRANCH   3   6
ENDBRANCH   1   2
BRANCH   1  16
ATOM     16  C   UNL     1      -1.046  -0.729  -0.034  0.00  0.00    -0.020 C 
BRANCH  16  22
ATOM     17  C   UNL     1       0.120   1.485  -0.081  0.00  0.00    +0.003 A 
ATOM     18  C   UNL     1       1.269   2.251  -0.147  0.00  0.00    +0.020 A 
ATOM     19  C   UNL     1       2.505   1.636  -0.238  0.00  0.00    +0.041 A 
ATOM     20  C   UNL     1       2.591   0.256  -0.264  0.00  0.00    +0.020 A 
ATOM     21  C   UNL     1       1.442  -0.509  -0.197  0.00  0.00    +0.003 A 
ATOM     22  C   UNL     1       0.207   0.105  -0.106  0.00  0.00    -0.059 A 
ATOM     23 CL   UNL     1       3.949   2.598  -0.322  0.00  0.00    -0.084 Cl
ENDBRANCH  16  22
BRANCH  16  24
ATOM     24  N   UNL     1      -0.808  -1.896   0.826  0.00  0.00    +0.385 N 
ATOM     25  C   UNL     1      -0.451  -1.456   2.199  0.00  0.00    -0.078 C 
ATOM     26  C   UNL     1      -0.787  -2.694   3.067  0.00  0.00    -0.020 C 
ATOM     27  C   UNL     1      -2.070  -3.244   2.402  0.00  0.00    -0.020 C 
ATOM     28  C   UNL     1      -2.050  -2.688   0.967  0.00  0.00    -0.078 C 
ATOM     29  H   UNL     1      -0.072  -2.469   0.440  0.00  0.00    -0.081 HD
ENDBRANCH  16  24
ENDBRANCH   1  16
TORSDOF 5
