REMARK  Name = ZINC03640527
REMARK  10 active torsions:
REMARK  status: ('A' for Active; 'I' for Inactive)
REMARK    1  A    between atoms: C_1  and  N_2
REMARK    2  A    between atoms: N_2  and  C_3
REMARK    3  A    between atoms: N_2  and  C_4
REMARK    4  A    between atoms: C_4  and  C_5
REMARK    5  A    between atoms: C_6  and  C_16
REMARK    6  A    between atoms: N_18  and  N_19
REMARK    7  A    between atoms: C_20  and  C_21
REMARK    8  A    between atoms: C_26  and  O_27
REMARK    9  A    between atoms: O_27  and  C_28
REMARK   10  A    between atoms: C_28  and  C_29
REMARK                            x       y       z     vdW  Elec       q    Type
REMARK                         _______ _______ _______ _____ _____    ______ ____
ROOT
ATOM      1  C   UNL     1      -1.441  -2.162  -2.643  0.00  0.00    +0.285 C 
ATOM      2  O   UNL     1      -1.465  -0.956  -2.798  0.00  0.00    -0.267 OA
ATOM      3  N   UNL     1      -1.465  -2.980  -3.714  0.00  0.00    -0.202 N 
ATOM      4  H   UNL     1      -1.446  -3.942  -3.590  0.00  0.00    +0.178 HD
ENDROOT
BRANCH   1   6
ATOM      5  C   UNL     1      -1.359  -2.014  -0.120  0.00  0.00    +0.063 A 
ATOM      6  C   UNL     1      -1.387  -2.729  -1.283  0.00  0.00    +0.170 A 
ATOM      7  N   UNL     1      -1.357  -4.039  -0.978  0.00  0.00    -0.124 NA
ATOM      8  N   UNL     1      -1.313  -4.183   0.300  0.00  0.00    -0.058 NA
ATOM      9  N   UNL     1      -1.306  -2.911   0.890  0.00  0.00    -0.194 N 
ATOM     10  C   UNL     1      -1.258  -2.626   2.259  0.00  0.00    +0.240 A 
ATOM     11  C   UNL     1      -1.196  -3.614   3.340  0.00  0.00    +0.206 A 
ATOM     12  N   UNL     1      -1.163  -2.976   4.477  0.00  0.00    -0.032 NA
ATOM     13  O   UNL     1      -1.202  -1.588   4.197  0.00  0.00    -0.239 OA
ATOM     14  N   UNL     1      -1.256  -1.436   2.790  0.00  0.00    -0.027 NA
ATOM     15  N   UNL     1      -1.175  -4.995   3.180  0.00  0.00    -0.337 N 
ATOM     16  H   UNL     1      -1.203  -5.380   2.290  0.00  0.00    +0.144 HD
ATOM     17  H   UNL     1      -1.133  -5.572   3.958  0.00  0.00    +0.144 HD
BRANCH   5  18
ATOM     18  C   UNL     1      -1.376  -0.512   0.012  0.00  0.00    -0.021 C 
BRANCH  18  20
ATOM     19  C   UNL     1      -0.018   1.465   0.010  0.00  0.00    -0.096 C 
ATOM     20  N   UNL     1       0.002  -0.004   0.002  0.00  0.00    +0.380 N 
ATOM     21  C   UNL     1       0.713  -0.491   1.192  0.00  0.00    -0.096 C 
ATOM     22  H   UNL     1       0.474  -0.330  -0.828  0.00  0.00    -0.082 HD
ENDBRANCH  18  20
ENDBRANCH   5  18
ENDBRANCH   1   6
BRANCH   3  23
ATOM     23  N   UNL     1      -1.516  -2.441  -5.006  0.00  0.00    -0.187 NA
ATOM     24  C   UNL     1      -1.539  -3.229  -6.037  0.00  0.00    +0.142 C 
BRANCH  24  25
ATOM     25  C   UNL     1      -1.593  -2.662  -7.397  0.00  0.00    +0.036 A 
ATOM     26  C   UNL     1      -1.624  -3.506  -8.509  0.00  0.00    +0.013 A 
ATOM     27  C   UNL     1      -1.674  -2.969  -9.778  0.00  0.00    +0.001 A 
ATOM     28  C   UNL     1      -1.695  -1.596  -9.955  0.00  0.00    +0.004 A 
ATOM     29  C   UNL     1      -1.665  -0.750  -8.863  0.00  0.00    +0.046 A 
ATOM     30  C   UNL     1      -1.621  -1.273  -7.580  0.00  0.00    +0.130 A 
BRANCH  30  31
ATOM     31  O   UNL     1      -1.597  -0.442  -6.506  0.00  0.00    -0.487 OA
BRANCH  31  32
ATOM     32  C   UNL     1      -1.628   0.962  -6.770  0.00  0.00    +0.264 C 
BRANCH  32  33
ATOM     33  C   UNL     1      -1.596   1.719  -5.468  0.00  0.00    -0.010 A 
ATOM     34  C   UNL     1      -2.778   2.043  -4.828  0.00  0.00    +0.010 A 
ATOM     35  C   UNL     1      -2.749   2.737  -3.633  0.00  0.00    +0.039 A 
ATOM     36  C   UNL     1      -1.537   3.108  -3.077  0.00  0.00    +0.123 A 
ATOM     37  C   UNL     1      -0.354   2.783  -3.719  0.00  0.00    +0.039 A 
ATOM     38  C   UNL     1      -0.384   2.084  -4.911  0.00  0.00    +0.010 A 
ATOM     39  F   UNL     1      -1.508   3.787  -1.909  0.00  0.00    -0.205 F 
ENDBRANCH  32  33
ENDBRANCH  31  32
ENDBRANCH  30  31
ENDBRANCH  24  25
ENDBRANCH   3  23
TORSDOF 8
