REMARK  Name = ZINC24879574
REMARK  7 active torsions:
REMARK  status: ('A' for Active; 'I' for Inactive)
REMARK    1  A    between atoms: C_4  and  C_7
REMARK    2  A    between atoms: C_7  and  C_8
REMARK    3  A    between atoms: C_7  and  N_14
REMARK    4  A    between atoms: N_17  and  C_20
REMARK    5  A    between atoms: C_20  and  C_21
REMARK    6  A    between atoms: C_21  and  C_22
REMARK    7  A    between atoms: N_24  and  N_25
REMARK                            x       y       z     vdW  Elec       q    Type
REMARK                         _______ _______ _______ _____ _____    ______ ____
ROOT
ATOM      1  N   UNL     1       0.113   1.409  -0.124  0.00  0.00    -0.295 NA
ATOM      2  C   UNL     1       1.496   1.849  -0.359  0.00  0.00    +0.067 C 
ATOM      3  C   UNL     1       2.400   1.291   0.742  0.00  0.00    -0.063 C 
ATOM      4  N   UNL     1       2.311  -0.176   0.749  0.00  0.00    +0.382 N 
ATOM      5  C   UNL     1       0.929  -0.616   0.984  0.00  0.00    -0.063 C 
ATOM      6  C   UNL     1       0.024  -0.058  -0.117  0.00  0.00    +0.067 C 
ATOM      7  H   UNL     1       2.619  -0.540  -0.243  0.00  0.00    -0.082 HD
ENDROOT
BRANCH   1   8
ATOM      8  C   UNL     1      -0.800   1.987  -1.118  0.00  0.00    +0.117 C 
BRANCH   8  12
ATOM      9  C   UNL     1      -4.793   0.709  -0.299  0.00  0.00    +0.000 A 
ATOM     10  C   UNL     1      -4.317   0.701  -1.597  0.00  0.00    +0.000 A 
ATOM     11  C   UNL     1      -3.025   1.115  -1.862  0.00  0.00    +0.005 A 
ATOM     12  C   UNL     1      -2.209   1.536  -0.829  0.00  0.00    -0.026 A 
ATOM     13  C   UNL     1      -2.682   1.539   0.469  0.00  0.00    +0.005 A 
ATOM     14  C   UNL     1      -3.976   1.129   0.734  0.00  0.00    +0.000 A 
ENDBRANCH   8  12
BRANCH   8  15
ATOM     15  C   UNL     1      -0.730   3.491  -1.050  0.00  0.00    -0.026 A 
ATOM     16  C   UNL     1      -0.737   4.129   0.176  0.00  0.00    +0.005 A 
ATOM     17  C   UNL     1      -0.668   5.508   0.239  0.00  0.00    +0.000 A 
ATOM     18  C   UNL     1      -0.602   6.250  -0.925  0.00  0.00    +0.000 A 
ATOM     19  C   UNL     1      -0.601   5.613  -2.152  0.00  0.00    +0.000 A 
ATOM     20  C   UNL     1      -0.665   4.234  -2.215  0.00  0.00    +0.005 A 
ENDBRANCH   8  15
ENDBRANCH   1   8
BRANCH   4  21
ATOM     21  C   UNL     1       3.224  -0.754   1.744  0.00  0.00    -0.069 C 
BRANCH  21  22
ATOM     22  C   UNL     1       4.671  -0.483   1.326  0.00  0.00    +0.079 C 
BRANCH  22  23
ATOM     23  C   UNL     1       5.608  -1.076   2.347  0.00  0.00    +0.228 C 
ATOM     24  O   UNL     1       5.162  -1.659   3.313  0.00  0.00    -0.274 OA
ATOM     25  N   UNL     1       6.941  -0.959   2.186  0.00  0.00    -0.224 N 
ATOM     26  H   UNL     1       7.345  -0.430   1.310  0.00  0.00    +0.174 HD
BRANCH  25  27
ATOM     27  N   UNL     1       7.812  -1.510   3.135  0.00  0.00    -0.137 N 
ATOM     28  C   UNL     1       8.524  -2.640   2.944  0.00  0.00    +0.263 C 
ATOM     29  O   UNL     1       8.533  -3.344   1.958  0.00  0.00    -0.271 OA
ATOM     30  C   UNL     1       9.310  -2.842   4.220  0.00  0.00    +0.114 C 
ATOM     31  C   UNL     1      10.807  -2.807   3.933  0.00  0.00    +0.035 C 
ATOM     32  C   UNL     1      11.584  -2.986   5.240  0.00  0.00    +0.003 C 
ATOM     33  C   UNL     1      11.202  -4.321   5.881  0.00  0.00    +0.000 C 
ATOM     34  C   UNL     1       9.702  -4.332   6.185  0.00  0.00    +0.003 C 
ATOM     35  C   UNL     1       8.917  -4.159   4.882  0.00  0.00    +0.035 C 
ATOM     36  N   UNL     1       8.919  -1.705   5.063  0.00  0.00    -0.284 N 
ATOM     37  C   UNL     1       8.045  -0.979   4.341  0.00  0.00    +0.326 C 
ATOM     38  O   UNL     1       7.523   0.044   4.742  0.00  0.00    -0.251 OA
ATOM     39  H   UNL     1       9.344  -1.598   6.072  0.00  0.00    +0.151 HD
ENDBRANCH  25  27
ENDBRANCH  22  23
ENDBRANCH  21  22
ENDBRANCH   4  21
TORSDOF 7
