REMARK  Name = ZINC36530809
REMARK  10 active torsions:
REMARK  status: ('A' for Active; 'I' for Inactive)
REMARK    1  A    between atoms: C_1  and  C_2
REMARK    2  A    between atoms: C_5  and  S_8
REMARK    3  A    between atoms: S_8  and  C_11
REMARK    4  A    between atoms: C_11  and  N_12
REMARK    5  A    between atoms: C_13  and  C_15
REMARK    6  A    between atoms: C_15  and  C_17
REMARK    7  A    between atoms: C_15  and  N_25
REMARK    8  A    between atoms: N_25  and  C_26
REMARK    9  A    between atoms: C_27  and  C_29
REMARK   10  A    between atoms: C_32  and  O_35
REMARK                            x       y       z     vdW  Elec       q    Type
REMARK                         _______ _______ _______ _____ _____    ______ ____
ROOT
ATOM      1  C   UNL     1       3.339  -4.990   3.492  0.00  0.00    +0.195 C 
ENDROOT
BRANCH   1   2
ATOM      2  C   UNL     1       4.689  -4.807   2.846  0.00  0.00    +0.018 A 
ATOM      3  C   UNL     1       5.841  -4.953   3.598  0.00  0.00    +0.048 A 
ATOM      4  C   UNL     1       7.079  -4.784   3.004  0.00  0.00    +0.020 A 
ATOM      5  C   UNL     1       7.165  -4.470   1.661  0.00  0.00    +0.003 A 
ATOM      6  C   UNL     1       6.014  -4.324   0.910  0.00  0.00    +0.020 A 
ATOM      7  C   UNL     1       4.776  -4.498   1.500  0.00  0.00    +0.048 A 
ATOM      8 CL   UNL     1       3.330  -4.323   0.555  0.00  0.00    -0.083 Cl
ATOM      9 CL   UNL     1       5.733  -5.347   5.285  0.00  0.00    -0.083 Cl
ENDBRANCH   1   2
BRANCH   1  11
ATOM     10  N   UNL     1       1.718  -3.711   2.130  0.00  0.00    -0.294 N 
ATOM     11  C   UNL     1       2.263  -4.904   2.440  0.00  0.00    +0.239 C 
ATOM     12  O   UNL     1       1.888  -5.907   1.872  0.00  0.00    -0.273 OA
ATOM     13  H   UNL     1       1.981  -2.915   2.620  0.00  0.00    +0.150 HD
BRANCH  10  14
ATOM     14  C   UNL     1       0.729  -3.615   1.054  0.00  0.00    +0.278 C 
BRANCH  14  15
ATOM     15  S   UNL     1      -0.941  -3.707   1.758  0.00  0.00    +0.013 S 
ATOM     16  O   UNL     1      -1.024  -4.786   2.679  0.00  0.00    -0.168 OA
ATOM     17  O   UNL     1      -1.913  -3.552   0.734  0.00  0.00    -0.168 OA
BRANCH  15  22
ATOM     18  C   UNL     1      -1.474   1.255   5.150  0.00  0.00    +0.044 C 
ATOM     19  C   UNL     1      -1.341   0.016   4.303  0.00  0.00    -0.050 A 
ATOM     20  C   UNL     1      -1.709   0.046   2.971  0.00  0.00    +0.005 A 
ATOM     21  C   UNL     1      -1.587  -1.091   2.194  0.00  0.00    +0.027 A 
ATOM     22  C   UNL     1      -1.095  -2.258   2.748  0.00  0.00    +0.090 A 
ATOM     23  C   UNL     1      -0.726  -2.288   4.080  0.00  0.00    +0.027 A 
ATOM     24  C   UNL     1      -0.844  -1.150   4.856  0.00  0.00    +0.005 A 
ENDBRANCH  15  22
ENDBRANCH  14  15
ENDBRANCH  10  14
ENDBRANCH   1  11
BRANCH   1  25
ATOM     25  N   UNL     1       3.283  -6.302   4.141  0.00  0.00    -0.285 N 
ATOM     26  C   UNL     1       3.628  -7.509   3.385  0.00  0.00    +0.133 C 
ATOM     27  C   UNL     1       2.914  -6.399   5.434  0.00  0.00    +0.247 C 
ATOM     28  O   UNL     1       2.515  -5.416   6.027  0.00  0.00    -0.270 OA
BRANCH  27  29
ATOM     29  C   UNL     1       2.994  -7.699   6.129  0.00  0.00    +0.037 A 
ATOM     30  C   UNL     1       4.027  -8.591   5.830  0.00  0.00    +0.016 A 
ATOM     31  C   UNL     1       4.099  -9.802   6.481  0.00  0.00    +0.046 A 
ATOM     32  C   UNL     1       3.144 -10.138   7.434  0.00  0.00    +0.117 A 
ATOM     33  C   UNL     1       2.115  -9.254   7.734  0.00  0.00    +0.046 A 
ATOM     34  C   UNL     1       2.040  -8.038   7.091  0.00  0.00    +0.016 A 
BRANCH  32  35
ATOM     35  O   UNL     1       3.218 -11.333   8.072  0.00  0.00    -0.507 OA
ATOM     36  H   UNL     1       3.738 -11.313   8.887  0.00  0.00    +0.292 HD
ENDBRANCH  32  35
ENDBRANCH  27  29
ENDBRANCH   1  25
TORSDOF 8
