REMARK  Name = ZINC62952368
REMARK  7 active torsions:
REMARK  status: ('A' for Active; 'I' for Inactive)
REMARK    1  A    between atoms: C_1  and  C_2
REMARK    2  A    between atoms: C_2  and  C_3
REMARK    3  A    between atoms: C_3  and  C_20
REMARK    4  A    between atoms: N_6  and  C_9
REMARK    5  A    between atoms: C_9  and  C_11
REMARK    6  A    between atoms: C_9  and  C_13
REMARK    7  A    between atoms: C_11  and  N_12
REMARK                            x       y       z     vdW  Elec       q    Type
REMARK                         _______ _______ _______ _____ _____    ______ ____
ROOT
ATOM      1  C   UNL     1      -4.905  -2.431  -1.271  0.00  0.00    -0.019 C 
ENDROOT
BRANCH   1   5
ATOM      2  C   UNL     1      -1.262  -0.503  -0.191  0.00  0.00    -0.036 C 
ATOM      3  C   UNL     1      -2.014  -0.045  -1.444  0.00  0.00    -0.012 C 
ATOM      4  C   UNL     1      -3.468  -0.515  -1.360  0.00  0.00    -0.077 C 
ATOM      5  N   UNL     1      -3.507  -1.980  -1.272  0.00  0.00    +0.385 N 
ATOM      6  C   UNL     1      -2.851  -2.423  -0.037  0.00  0.00    -0.077 C 
ATOM      7  C   UNL     1      -1.373  -2.026  -0.069  0.00  0.00    -0.012 C 
ATOM      8  C   UNL     1      -1.877   0.155   1.046  0.00  0.00    +0.011 C 
ATOM      9  H   UNL     1      -3.029  -2.377  -2.067  0.00  0.00    -0.081 HD
BRANCH   2  11
ATOM     10  C   UNL     1       0.320   1.417  -0.425  0.00  0.00    +0.004 C 
ATOM     11  C   UNL     1       0.210  -0.105  -0.303  0.00  0.00    +0.003 C 
ENDBRANCH   2  11
ENDBRANCH   1   5
BRANCH   1  12
ATOM     12  C   UNL     1      -4.950  -3.926  -1.082  0.00  0.00    +0.092 A 
ATOM     13  C   UNL     1      -5.840  -4.597  -0.329  0.00  0.00    +0.059 A 
ATOM     14  C   UNL     1      -5.517  -5.969  -0.437  0.00  0.00    +0.070 A 
ATOM     15  C   UNL     1      -4.447  -6.055  -1.251  0.00  0.00    +0.184 A 
ATOM     16  O   UNL     1      -4.112  -4.814  -1.642  0.00  0.00    -0.454 OA
ATOM     17 BR   UNL     1      -3.570  -7.650  -1.761  0.00  0.00    -0.007 Br
ATOM     18 BR   UNL     1      -6.413  -7.408   0.401  0.00  0.00    -0.046 Br
ENDBRANCH   1  12
BRANCH   1  19
ATOM     19  C   UNL     1      -5.561  -2.066  -2.605  0.00  0.00    -0.094 C 
BRANCH  19  20
ATOM     20  N   UNL     1      -6.980  -2.443  -2.572  0.00  0.00    +0.377 N 
ATOM     21  H   UNL     1      -7.421  -2.022  -1.769  0.00  0.00    -0.090 HD
ATOM     22  H   UNL     1      -7.433  -2.119  -3.413  0.00  0.00    -0.090 HD
ATOM     23  H   UNL     1      -7.060  -3.447  -2.513  0.00  0.00    -0.090 HD
ENDBRANCH  19  20
ENDBRANCH   1  19
TORSDOF 5
