REMARK  Name = ZINC35710367
REMARK  8 active torsions:
REMARK  status: ('A' for Active; 'I' for Inactive)
REMARK    1  A    between atoms: C_1  and  C_2
REMARK    2  A    between atoms: C_2  and  C_3
REMARK    3  A    between atoms: C_2  and  C_4
REMARK    4  A    between atoms: N_6  and  C_7
REMARK    5  A    between atoms: N_6  and  C_13
REMARK    6  A    between atoms: C_7  and  C_8
REMARK    7  A    between atoms: C_13  and  C_14
REMARK    8  A    between atoms: C_25  and  C_28
REMARK                            x       y       z     vdW  Elec       q    Type
REMARK                         _______ _______ _______ _____ _____    ______ ____
ROOT
ATOM      1  C   UNL     1      -1.328  -0.680  -3.040  0.00  0.00    +0.233 C 
ATOM      2  O   UNL     1      -1.257  -1.845  -2.710  0.00  0.00    -0.274 OA
ATOM      3  N   UNL     1      -0.882  -0.295  -4.252  0.00  0.00    -0.297 N 
ATOM      4  C   UNL     1      -0.956   1.113  -4.664  0.00  0.00    +0.126 C 
ATOM      5  C   UNL     1       0.448   1.581  -5.068  0.00  0.00    +0.125 C 
ATOM      6  N   UNL     1       1.018   0.599  -6.002  0.00  0.00    -0.311 N 
ATOM      7  C   UNL     1       1.093  -0.810  -5.590  0.00  0.00    +0.125 C 
ATOM      8  C   UNL     1      -0.306  -1.276  -5.183  0.00  0.00    +0.126 C 
ATOM      9  C   UNL     1       1.479   0.996  -7.251  0.00  0.00    +0.144 A 
ATOM     10  C   UNL     1       1.629   2.353  -7.542  0.00  0.00    +0.047 A 
ATOM     11  C   UNL     1       2.091   2.701  -8.799  0.00  0.00    +0.033 A 
ATOM     12  C   UNL     1       2.379   1.671  -9.700  0.00  0.00    +0.093 A 
ATOM     13  N   UNL     1       2.205   0.408  -9.335  0.00  0.00    -0.147 NA
ATOM     14  N   UNL     1       1.782   0.087  -8.167  0.00  0.00    -0.134 NA
ENDROOT
BRANCH  12  15
ATOM     15  C   UNL     1       2.876   1.990 -11.061  0.00  0.00    +0.002 A 
ATOM     16  C   UNL     1       3.063   3.317 -11.443  0.00  0.00    +0.013 A 
ATOM     17  C   UNL     1       3.526   3.609 -12.709  0.00  0.00    +0.039 A 
ATOM     18  C   UNL     1       3.804   2.586 -13.601  0.00  0.00    +0.123 A 
ATOM     19  C   UNL     1       3.619   1.265 -13.225  0.00  0.00    +0.039 A 
ATOM     20  C   UNL     1       3.163   0.963 -11.959  0.00  0.00    +0.013 A 
ATOM     21  F   UNL     1       4.257   2.877 -14.840  0.00  0.00    -0.205 F 
ENDBRANCH  12  15
BRANCH   1  22
ATOM     22  C   UNL     1      -1.917   0.336  -2.096  0.00  0.00    +0.204 C 
BRANCH  22  25
ATOM     23  C   UNL     1      -1.435  -0.498   0.142  0.00  0.00    +0.219 C 
ATOM     24  O   UNL     1      -1.753  -1.107   1.141  0.00  0.00    -0.275 OA
ATOM     25  N   UNL     1      -2.325  -0.328  -0.856  0.00  0.00    -0.285 N 
BRANCH  23  27
ATOM     26  C   UNL     1      -0.096   1.589   0.193  0.00  0.00    +0.017 C 
ATOM     27  C   UNL     1      -0.044   0.070   0.016  0.00  0.00    +0.069 C 
ATOM     28  C   UNL     1       0.855  -0.539   1.095  0.00  0.00    +0.017 C 
ENDBRANCH  23  27
BRANCH  25  29
ATOM     29  C   UNL     1      -3.700  -0.808  -0.700  0.00  0.00    +0.182 C 
BRANCH  29  30
ATOM     30  C   UNL     1      -4.547   0.283  -0.098  0.00  0.00    +0.122 A 
ATOM     31  C   UNL     1      -5.234   1.214  -0.783  0.00  0.00    +0.046 A 
ATOM     32  C   UNL     1      -5.883   2.030   0.172  0.00  0.00    +0.041 A 
ATOM     33  C   UNL     1      -5.554   1.549   1.384  0.00  0.00    +0.195 A 
ATOM     34  O   UNL     1      -4.749   0.487   1.214  0.00  0.00    -0.466 OA
ENDBRANCH  29  30
ENDBRANCH  25  29
ENDBRANCH  22  25
ENDBRANCH   1  22
TORSDOF 6
