REMARK  Name = ZINC36350839
REMARK  7 active torsions:
REMARK  status: ('A' for Active; 'I' for Inactive)
REMARK    1  A    between atoms: C_1  and  C_2
REMARK    2  A    between atoms: C_5  and  C_8
REMARK    3  A    between atoms: C_8  and  N_9
REMARK    4  A    between atoms: C_11  and  C_16
REMARK    5  A    between atoms: N_18  and  C_19
REMARK    6  A    between atoms: C_24  and  C_29
REMARK    7  A    between atoms: C_26  and  C_28
REMARK                            x       y       z     vdW  Elec       q    Type
REMARK                         _______ _______ _______ _____ _____    ______ ____
ROOT
ATOM      1  N   UNL     1       1.447  -4.746  -0.032  0.00  0.00    -0.296 N 
ATOM      2  C   UNL     1       2.226  -5.000  -1.249  0.00  0.00    +0.121 C 
ATOM      3  C   UNL     1       3.701  -5.044  -0.792  0.00  0.00    +0.101 C 
ATOM      4  C   UNL     1       3.560  -5.458   0.691  0.00  0.00    +0.110 C 
ATOM      5  C   UNL     1       2.171  -4.995   1.073  0.00  0.00    +0.217 C 
ATOM      6  O   UNL     1       1.770  -4.869   2.210  0.00  0.00    -0.276 OA
ENDROOT
BRANCH   3   7
ATOM      7  C   UNL     1       4.476  -6.076  -1.570  0.00  0.00    +0.218 C 
ATOM      8  O   UNL     1       3.921  -6.735  -2.423  0.00  0.00    -0.275 OA
ATOM      9  N   UNL     1       5.786  -6.267  -1.318  0.00  0.00    -0.312 N 
ATOM     10  H   UNL     1       6.230  -5.740  -0.635  0.00  0.00    +0.149 HD
BRANCH   9  11
ATOM     11  C   UNL     1       6.539  -7.271  -2.074  0.00  0.00    +0.076 C 
ATOM     12  C   UNL     1       6.363  -8.642  -1.417  0.00  0.00    +0.022 C 
ATOM     13  C   UNL     1       7.150  -9.690  -2.207  0.00  0.00    +0.002 C 
ATOM     14  C   UNL     1       8.633  -9.315  -2.215  0.00  0.00    +0.003 C 
ATOM     15  C   UNL     1       8.809  -7.944  -2.872  0.00  0.00    -0.009 C 
ATOM     16  C   UNL     1       8.022  -6.896  -2.082  0.00  0.00    +0.009 C 
ATOM     17  C   UNL     1       8.543  -6.844  -0.644  0.00  0.00    +0.009 C 
ATOM     18  C   UNL     1      10.292  -7.570  -2.880  0.00  0.00    +0.008 C 
ENDBRANCH   9  11
ENDBRANCH   3   7
BRANCH   1  19
ATOM     19  C   UNL     1       0.059  -4.275  -0.021  0.00  0.00    +0.142 C 
BRANCH  19  24
ATOM     20  C   UNL     1      -0.018   1.503   0.010  0.00  0.00    +0.044 C 
ATOM     21  C   UNL     1       0.002  -0.004   0.002  0.00  0.00    -0.050 A 
ATOM     22  C   UNL     1       0.006  -0.689  -1.199  0.00  0.00    +0.003 A 
ATOM     23  C   UNL     1       0.025  -2.071  -1.206  0.00  0.00    +0.005 A 
ATOM     24  C   UNL     1       0.040  -2.768  -0.013  0.00  0.00    -0.030 A 
ATOM     25  C   UNL     1       0.037  -2.084   1.188  0.00  0.00    +0.005 A 
ATOM     26  C   UNL     1       0.023  -0.702   1.195  0.00  0.00    +0.003 A 
ENDBRANCH  19  24
ENDBRANCH   1  19
TORSDOF 4
