REMARK  Name = ZINC43460137
REMARK  6 active torsions:
REMARK  status: ('A' for Active; 'I' for Inactive)
REMARK    1  A    between atoms: C_1  and  C_2
REMARK    2  A    between atoms: C_2  and  C_23
REMARK    3  A    between atoms: C_4  and  N_22
REMARK    4  A    between atoms: C_9  and  O_13
REMARK    5  A    between atoms: O_13  and  C_14
REMARK    6  A    between atoms: C_14  and  C_15
REMARK                            x       y       z     vdW  Elec       q    Type
REMARK                         _______ _______ _______ _____ _____    ______ ____
ROOT
ATOM      1  C   UNL     1      -0.019   1.526   0.010  0.00  0.00    +0.055 C 
ATOM      2  C   UNL     1       0.002  -0.004   0.002  0.00  0.00    +0.104 C 
ATOM      3  C   UNL     1      -1.435  -0.540   0.040  0.00  0.00    +0.036 C 
ATOM      4  C   UNL     1      -2.142   0.066   1.254  0.00  0.00    -0.037 C 
ATOM      5  C   UNL     1      -1.269  -0.078   2.475  0.00  0.00    -0.020 A 
ATOM      6  C   UNL     1      -1.848   0.053   3.727  0.00  0.00    +0.009 A 
ATOM      7  C   UNL     1      -1.081  -0.068   4.867  0.00  0.00    +0.046 A 
ATOM      8  C   UNL     1       0.280  -0.321   4.763  0.00  0.00    +0.124 A 
ATOM      9  C   UNL     1       0.862  -0.455   3.513  0.00  0.00    +0.091 A 
ATOM     10  C   UNL     1       0.087  -0.335   2.365  0.00  0.00    +0.126 A 
ATOM     11  O   UNL     1       0.692  -0.482   1.157  0.00  0.00    -0.486 OA
ATOM     12  C   UNL     1       0.706  -0.503  -1.262  0.00  0.00    +0.055 C 
ENDROOT
BRANCH   4  13
ATOM     13  N   UNL     1      -3.414  -0.634   1.479  0.00  0.00    +0.383 N 
ATOM     14  H   UNL     1      -3.234  -1.613   1.648  0.00  0.00    -0.089 HD
ATOM     15  H   UNL     1      -3.881  -0.235   2.279  0.00  0.00    -0.089 HD
ATOM     16  H   UNL     1      -4.000  -0.536   0.664  0.00  0.00    -0.089 HD
ENDBRANCH   4  13
BRANCH   8  17
ATOM     17  O   UNL     1       1.039  -0.439   5.884  0.00  0.00    -0.488 OA
BRANCH  17  18
ATOM     18  C   UNL     1       0.371  -0.290   7.138  0.00  0.00    +0.275 C 
BRANCH  18  19
ATOM     19  C   UNL     1       1.380  -0.454   8.276  0.00  0.00    +0.232 C 
ATOM     20  C   UNL     1       0.682  -0.350   9.653  0.00  0.00    +0.155 C 
ATOM     21  N   UNL     1       1.683   0.382  10.455  0.00  0.00    -0.277 N 
ATOM     22  C   UNL     1       2.581   0.914   9.605  0.00  0.00    +0.401 C 
ATOM     23  O   UNL     1       3.549   1.555   9.964  0.00  0.00    -0.226 OA
ATOM     24  O   UNL     1       2.295   0.659   8.317  0.00  0.00    -0.442 OA
ATOM     25  H   UNL     1       1.691   0.464  11.422  0.00  0.00    +0.152 HD
ENDBRANCH  18  19
ENDBRANCH  17  18
ENDBRANCH   8  17
TORSDOF 4
