REMARK  Name = ZINC09222450
REMARK  9 active torsions:
REMARK  status: ('A' for Active; 'I' for Inactive)
REMARK    1  A    between atoms: C_1  and  O_2
REMARK    2  A    between atoms: O_2  and  C_3
REMARK    3  A    between atoms: C_5  and  C_23
REMARK    4  A    between atoms: C_7  and  S_11
REMARK    5  A    between atoms: C_8  and  O_9
REMARK    6  A    between atoms: O_9  and  C_10
REMARK    7  A    between atoms: S_11  and  N_14
REMARK    8  A    between atoms: C_24  and  C_25
REMARK    9  A    between atoms: C_32  and  C_34
REMARK                            x       y       z     vdW  Elec       q    Type
REMARK                         _______ _______ _______ _____ _____    ______ ____
ROOT
ATOM      1  C   UNL     1       0.420   7.064   1.457  0.00  0.00    +0.164 A 
ATOM      2  C   UNL     1       0.370   7.302   2.816  0.00  0.00    +0.057 A 
ATOM      3  C   UNL     1      -0.778   6.961   3.541  0.00  0.00    -0.019 A 
ATOM      4  C   UNL     1      -1.869   6.381   2.883  0.00  0.00    +0.040 A 
ATOM      5  C   UNL     1      -1.810   6.148   1.527  0.00  0.00    +0.154 A 
ATOM      6  C   UNL     1      -0.669   6.481   0.810  0.00  0.00    +0.188 A 
ENDROOT
BRANCH   5   7
ATOM      7  S   UNL     1      -3.184   5.417   0.701  0.00  0.00    +0.078 S 
ATOM      8  O   UNL     1      -3.420   6.198  -0.463  0.00  0.00    -0.150 OA
ATOM      9  O   UNL     1      -4.183   5.200   1.688  0.00  0.00    -0.150 OA
BRANCH   7  10
ATOM     10  N   UNL     1      -2.703   3.922   0.178  0.00  0.00    -0.202 N 
ATOM     11  C   UNL     1      -2.687   2.709   1.001  0.00  0.00    +0.136 C 
ATOM     12  C   UNL     1      -2.167   1.598   0.075  0.00  0.00    +0.058 C 
ATOM     13  C   UNL     1      -1.921   2.289  -1.247  0.00  0.00    -0.023 A 
ATOM     14  C   UNL     1      -2.253   3.628  -1.113  0.00  0.00    +0.054 A 
ATOM     15  C   UNL     1      -2.108   4.476  -2.213  0.00  0.00    +0.025 A 
ATOM     16  C   UNL     1      -1.642   3.983  -3.413  0.00  0.00    +0.002 A 
ATOM     17  C   UNL     1      -1.313   2.646  -3.537  0.00  0.00    +0.000 A 
ATOM     18  C   UNL     1      -1.453   1.800  -2.452  0.00  0.00    +0.005 A 
ENDBRANCH   7  10
ENDBRANCH   5   7
BRANCH   1  20
ATOM     19  C   UNL     1       2.614   7.983   1.477  0.00  0.00    +0.277 C 
ATOM     20  O   UNL     1       1.534   7.394   0.750  0.00  0.00    -0.491 OA
ENDBRANCH   1  20
BRANCH   6  21
ATOM     21  O   UNL     1      -0.615   6.244  -0.526  0.00  0.00    -0.490 OA
ATOM     22  C   UNL     1      -0.922   7.338  -1.393  0.00  0.00    +0.277 C 
ENDBRANCH   6  21
BRANCH   3  23
ATOM     23  C   UNL     1      -0.837   7.211   4.988  0.00  0.00    +0.013 C 
ATOM     24  C   UNL     1       0.216   7.770   5.620  0.00  0.00    +0.068 C 
BRANCH  24  25
ATOM     25  C   UNL     1       0.157   8.018   7.060  0.00  0.00    +0.240 C 
ATOM     26  O   UNL     1      -0.803   7.637   7.705  0.00  0.00    -0.271 OA
ATOM     27  N   UNL     1       1.165   8.669   7.674  0.00  0.00    -0.286 N 
ATOM     28  C   UNL     1       2.378   9.041   6.932  0.00  0.00    +0.109 C 
ATOM     29  C   UNL     1       3.599   8.498   7.680  0.00  0.00    +0.019 C 
ATOM     30  C   UNL     1       3.570   8.997   9.127  0.00  0.00    +0.004 C 
ATOM     31  C   UNL     1       2.308   8.479   9.821  0.00  0.00    +0.032 C 
ATOM     32  C   UNL     1       1.070   9.027   9.096  0.00  0.00    +0.162 C 
BRANCH  32  33
ATOM     33  C   UNL     1      -0.175   8.417   9.687  0.00  0.00    +0.231 C 
ATOM     34  O   UNL     1      -0.348   7.218   9.634  0.00  0.00    -0.274 OA
ATOM     35  N   UNL     1      -1.097   9.205  10.276  0.00  0.00    -0.328 N 
ATOM     36  H   UNL     1      -0.959  10.164  10.319  0.00  0.00    +0.145 HD
ATOM     37  H   UNL     1      -1.898   8.813  10.657  0.00  0.00    +0.145 HD
ENDBRANCH  32  33
ENDBRANCH  24  25
ENDBRANCH   3  23
TORSDOF 7
