REMARK  Name = ZINC19960140
REMARK  4 active torsions:
REMARK  status: ('A' for Active; 'I' for Inactive)
REMARK    1  A    between atoms: C_1  and  S_2
REMARK    2  A    between atoms: S_2  and  C_3
REMARK    3  A    between atoms: C_8  and  C_24
REMARK    4  A    between atoms: C_14  and  C_19
REMARK                            x       y       z     vdW  Elec       q    Type
REMARK                         _______ _______ _______ _____ _____    ______ ____
ROOT
ATOM      1  C   UNL     1      -1.702  -0.454   0.016  0.00  0.00    +0.210 A 
ATOM      2  N   UNL     1      -2.733   0.404   0.025  0.00  0.00    -0.187 NA
ATOM      3  C   UNL     1      -3.854  -0.264   0.031  0.00  0.00    +0.219 A 
ATOM      4  N   UNL     1      -3.558  -1.587   0.032  0.00  0.00    -0.220 N 
ATOM      5  N   UNL     1      -2.167  -1.684   0.014  0.00  0.00    -0.141 NA
ATOM      6  C   UNL     1      -4.570  -2.636   0.047  0.00  0.00    +0.175 C 
ATOM      7  C   UNL     1      -5.926  -2.051  -0.281  0.00  0.00    +0.041 C 
ATOM      8  C   UNL     1      -6.157  -0.721  -0.264  0.00  0.00    +0.020 C 
ATOM      9  N   UNL     1      -5.165   0.183   0.034  0.00  0.00    -0.287 N 
ATOM     10  C   UNL     1      -7.529  -0.168  -0.572  0.00  0.00    +0.063 C 
ATOM     11  C   UNL     1      -8.237  -1.081  -1.575  0.00  0.00    +0.068 C 
ATOM     12  C   UNL     1      -8.332  -2.484  -0.967  0.00  0.00    +0.091 C 
ATOM     13  C   UNL     1      -6.950  -2.957  -0.610  0.00  0.00    +0.164 C 
ATOM     14  O   UNL     1      -6.713  -4.149  -0.606  0.00  0.00    -0.292 OA
ATOM     15  H   UNL     1      -5.378   1.106   0.241  0.00  0.00    +0.155 HD
ENDROOT
BRANCH   6  16
ATOM     16  C   UNL     1      -4.617  -3.265   1.416  0.00  0.00    -0.018 A 
ATOM     17  C   UNL     1      -4.923  -2.493   2.521  0.00  0.00    +0.009 A 
ATOM     18  C   UNL     1      -4.967  -3.069   3.776  0.00  0.00    +0.039 A 
ATOM     19  C   UNL     1      -4.703  -4.420   3.928  0.00  0.00    +0.123 A 
ATOM     20  C   UNL     1      -4.397  -5.192   2.820  0.00  0.00    +0.039 A 
ATOM     21  C   UNL     1      -4.359  -4.615   1.565  0.00  0.00    +0.009 A 
ATOM     22  F   UNL     1      -4.745  -4.984   5.154  0.00  0.00    -0.205 F 
ENDBRANCH   6  16
BRANCH  11  23
ATOM     23  C   UNL     1      -9.620  -0.553  -1.854  0.00  0.00    +0.109 A 
ATOM     24  C   UNL     1     -10.092  -0.178  -3.056  0.00  0.00    +0.045 A 
ATOM     25  C   UNL     1     -11.425   0.249  -2.858  0.00  0.00    +0.041 A 
ATOM     26  C   UNL     1     -11.688   0.110  -1.546  0.00  0.00    +0.195 A 
ATOM     27  O   UNL     1     -10.594  -0.382  -0.944  0.00  0.00    -0.468 OA
ENDBRANCH  11  23
BRANCH   1  29
ATOM     28  C   UNL     1      -0.022   1.810   0.012  0.00  0.00    +0.093 C 
ATOM     29  S   UNL     1       0.002  -0.004   0.002  0.00  0.00    -0.088 S 
ENDBRANCH   1  29
TORSDOF 3
