REMARK  Name = ZINC40731880
REMARK  5 active torsions:
REMARK  status: ('A' for Active; 'I' for Inactive)
REMARK    1  A    between atoms: C_1  and  C_2
REMARK    2  A    between atoms: C_9  and  N_12
REMARK    3  A    between atoms: C_14  and  N_27
REMARK    4  A    between atoms: C_15  and  N_19
REMARK    5  A    between atoms: C_24  and  C_26
REMARK                            x       y       z     vdW  Elec       q    Type
REMARK                         _______ _______ _______ _____ _____    ______ ____
ROOT
ATOM      1  N   UNL     1       0.052  -1.966   3.625  0.00  0.00    -0.296 N 
ATOM      2  C   UNL     1      -0.041  -2.646   4.833  0.00  0.00    +0.149 A 
ATOM      3  C   UNL     1      -0.157  -1.945   6.035  0.00  0.00    +0.106 A 
ATOM      4  C   UNL     1      -0.248  -2.677   7.220  0.00  0.00    +0.147 A 
ATOM      5  N   UNL     1      -0.219  -4.006   7.160  0.00  0.00    -0.219 NA
ATOM      6  C   UNL     1      -0.108  -4.630   6.004  0.00  0.00    +0.225 A 
ATOM      7  N   UNL     1      -0.026  -3.977   4.863  0.00  0.00    -0.219 NA
ATOM      8  H   UNL     1       0.125  -0.998   3.617  0.00  0.00    +0.154 HD
ENDROOT
BRANCH   1  17
ATOM      9  C   UNL     1       2.414   0.958   0.319  0.00  0.00    +0.065 C 
ATOM     10  C   UNL     1       1.771  -0.402   0.228  0.00  0.00    +0.039 A 
ATOM     11  C   UNL     1       1.781  -1.077  -0.991  0.00  0.00    +0.023 A 
ATOM     12  C   UNL     1       1.204  -2.311  -1.092  0.00  0.00    +0.012 A 
ATOM     13  C   UNL     1       0.611  -2.862   0.060  0.00  0.00    +0.002 A 
ATOM     14  C   UNL     1      -0.001  -4.126   0.031  0.00  0.00    +0.010 A 
ATOM     15  C   UNL     1      -0.565  -4.634   1.162  0.00  0.00    +0.003 A 
ATOM     16  C   UNL     1      -0.547  -3.917   2.355  0.00  0.00    +0.025 A 
ATOM     17  C   UNL     1       0.042  -2.674   2.423  0.00  0.00    +0.059 A 
ATOM     18  C   UNL     1       0.637  -2.122   1.266  0.00  0.00    +0.092 A 
ATOM     19  N   UNL     1       1.222  -0.922   1.299  0.00  0.00    -0.250 NA
ENDBRANCH   1  17
BRANCH   4  20
ATOM     20  N   UNL     1      -0.365  -2.029   8.443  0.00  0.00    -0.311 N 
ATOM     21  C   UNL     1       0.825  -1.748   9.258  0.00  0.00    +0.107 C 
ATOM     22  C   UNL     1       0.604  -2.314  10.665  0.00  0.00    +0.019 C 
ATOM     23  C   UNL     1      -0.698  -1.751  11.238  0.00  0.00    +0.003 C 
ATOM     24  C   UNL     1      -1.873  -2.178  10.355  0.00  0.00    +0.022 C 
ATOM     25  C   UNL     1      -1.680  -1.605   8.943  0.00  0.00    +0.072 C 
ATOM     26  C   UNL     1      -2.776  -2.136   8.017  0.00  0.00    +0.028 C 
ENDBRANCH   4  20
BRANCH   3  27
ATOM     27  N   UNL     1      -0.182  -0.541   6.051  0.00  0.00    -0.353 N 
ATOM     28  H   UNL     1      -0.192  -0.046   5.216  0.00  0.00    +0.143 HD
ATOM     29  H   UNL     1      -0.190  -0.066   6.896  0.00  0.00    +0.143 HD
ENDBRANCH   3  27
TORSDOF 3
