REMARK  Name = ZINC15860426
REMARK  6 active torsions:
REMARK  status: ('A' for Active; 'I' for Inactive)
REMARK    1  A    between atoms: C_1  and  C_2
REMARK    2  A    between atoms: C_5  and  C_7
REMARK    3  A    between atoms: C_7  and  C_9
REMARK    4  A    between atoms: C_7  and  N_52
REMARK    5  A    between atoms: C_9  and  N_10
REMARK    6  A    between atoms: C_11  and  C_13
REMARK                            x       y       z     vdW  Elec       q    Type
REMARK                         _______ _______ _______ _____ _____    ______ ____
ROOT
ATOM      1  N   UNL     1       1.747   5.288   1.360  0.00  0.00    -0.310 N 
ATOM      2  C   UNL     1       1.643   6.028   2.482  0.00  0.00    +0.279 C 
ATOM      3  O   UNL     1       1.307   5.504   3.526  0.00  0.00    -0.267 OA
ATOM      4  H   UNL     1       2.015   5.706   0.527  0.00  0.00    +0.149 HD
ENDROOT
BRANCH   2   5
ATOM      5  C   UNL     1       1.939   7.479   2.443  0.00  0.00    +0.193 A 
ATOM      6  C   UNL     1       1.826   8.197   3.586  0.00  0.00    +0.103 A 
ATOM      7  C   UNL     1       2.120   9.638   3.549  0.00  0.00    +0.193 A 
ATOM      8  O   UNL     1       2.035  10.333   4.546  0.00  0.00    -0.287 OA
ATOM      9  C   UNL     1       2.522  10.202   2.246  0.00  0.00    +0.065 A 
ATOM     10  C   UNL     1       2.823  11.556   2.104  0.00  0.00    +0.030 A 
ATOM     11  C   UNL     1       3.194  12.044   0.870  0.00  0.00    +0.019 A 
ATOM     12  C   UNL     1       3.270  11.193  -0.225  0.00  0.00    +0.019 A 
ATOM     13  C   UNL     1       2.976   9.853  -0.097  0.00  0.00    +0.048 A 
ATOM     14  C   UNL     1       2.598   9.339   1.139  0.00  0.00    +0.140 A 
ATOM     15  O   UNL     1       2.313   8.030   1.279  0.00  0.00    -0.450 OA
ATOM     16 BR   UNL     1       3.603  13.879   0.667  0.00  0.00    -0.050 Br
ENDBRANCH   2   5
BRANCH   1  17
ATOM     17  C   UNL     1       1.455   3.853   1.399  0.00  0.00    +0.097 C 
BRANCH  17  18
ATOM     18  C   UNL     1       1.647   3.256   0.004  0.00  0.00    +0.016 C 
BRANCH  18  24
ATOM     19  C   UNL     1      -0.589   3.986  -0.568  0.00  0.00    -0.078 C 
ATOM     20  C   UNL     1      -1.391   4.883  -1.514  0.00  0.00    -0.019 C 
ATOM     21  C   UNL     1      -1.239   4.369  -2.948  0.00  0.00    -0.004 C 
ATOM     22  C   UNL     1       0.247   4.343  -3.318  0.00  0.00    -0.019 C 
ATOM     23  C   UNL     1       1.001   3.461  -2.320  0.00  0.00    -0.078 C 
ATOM     24  N   UNL     1       0.835   4.023  -0.963  0.00  0.00    +0.387 N 
ATOM     25  H   UNL     1       1.155   4.999  -0.965  0.00  0.00    -0.081 HD
ENDBRANCH  18  24
BRANCH  18  30
ATOM     26  C   UNL     1      -1.246  -0.873   0.143  0.00  0.00    +0.086 C 
ATOM     27  C   UNL     1      -0.029   0.013   0.076  0.00  0.00    +0.102 A 
ATOM     28  C   UNL     1       1.246  -0.408  -0.009  0.00  0.00    +0.044 A 
ATOM     29  C   UNL     1       2.057   0.750  -0.048  0.00  0.00    +0.043 A 
ATOM     30  C   UNL     1       1.229   1.808   0.015  0.00  0.00    +0.093 A 
ATOM     31  O   UNL     1      -0.033   1.355   0.090  0.00  0.00    -0.466 OA
ENDBRANCH  18  30
ENDBRANCH  17  18
ENDBRANCH   1  17
TORSDOF 5
