REMARK  Name = ZINC67531191
REMARK  7 active torsions:
REMARK  status: ('A' for Active; 'I' for Inactive)
REMARK    1  A    between atoms: C_1  and  C_2
REMARK    2  A    between atoms: C_2  and  C_3
REMARK    3  A    between atoms: C_3  and  O_4
REMARK    4  A    between atoms: O_4  and  C_5
REMARK    5  A    between atoms: N_14  and  C_15
REMARK    6  A    between atoms: C_15  and  C_17
REMARK    7  A    between atoms: C_15  and  C_18
REMARK                            x       y       z     vdW  Elec       q    Type
REMARK                         _______ _______ _______ _____ _____    ______ ____
ROOT
ATOM      1  C   UNL     1       1.390  -2.490  -2.405  0.00  0.00    +0.136 C 
ATOM      2  C   UNL     1       2.015  -3.833  -2.022  0.00  0.00    +0.035 C 
ATOM      3  C   UNL     1       2.739  -4.425  -3.233  0.00  0.00    +0.022 C 
ATOM      4  C   UNL     1       1.728  -4.666  -4.359  0.00  0.00    +0.109 C 
ATOM      5  N   UNL     1       1.018  -3.410  -4.635  0.00  0.00    -0.283 N 
ATOM      6  C   UNL     1       0.364  -2.708  -3.522  0.00  0.00    +0.140 C 
ATOM      7  C   UNL     1       0.969  -2.909  -5.885  0.00  0.00    +0.303 C 
ATOM      8  O   UNL     1       0.303  -1.919  -6.117  0.00  0.00    -0.253 OA
ATOM      9  N   UNL     1       1.658  -3.506  -6.878  0.00  0.00    -0.293 N 
ATOM     10  H   UNL     1       2.129  -4.337  -6.709  0.00  0.00    +0.151 HD
ENDROOT
BRANCH   9  11
ATOM     11  C   UNL     1       1.695  -2.901  -8.211  0.00  0.00    +0.102 C 
ATOM     12  C   UNL     1       2.810  -1.854  -8.265  0.00  0.00    +0.033 C 
BRANCH  11  13
ATOM     13  C   UNL     1       1.958  -3.969  -9.241  0.00  0.00    -0.025 A 
ATOM     14  C   UNL     1       2.864  -4.978  -8.972  0.00  0.00    +0.009 A 
ATOM     15  C   UNL     1       3.110  -5.963  -9.911  0.00  0.00    +0.048 A 
ATOM     16  C   UNL     1       2.447  -5.938 -11.126  0.00  0.00    +0.142 A 
ATOM     17  C   UNL     1       1.534  -4.920 -11.398  0.00  0.00    +0.076 A 
ATOM     18  C   UNL     1       1.288  -3.941 -10.450  0.00  0.00    +0.032 A 
ATOM     19  N   UNL     1       0.871  -4.906 -12.633  0.00  0.00    -0.280 N 
ATOM     20  C   UNL     1       0.883  -6.021 -13.395  0.00  0.00    +0.255 C 
ATOM     21  O   UNL     1       0.343  -6.022 -14.481  0.00  0.00    -0.272 OA
ATOM     22  C   UNL     1       1.571  -7.264 -12.891  0.00  0.00    +0.325 C 
ATOM     23  O   UNL     1       2.676  -6.899 -12.060  0.00  0.00    -0.481 OA
ATOM     24  H   UNL     1       0.411  -4.107 -12.935  0.00  0.00    +0.155 HD
ENDBRANCH  11  13
ENDBRANCH   9  11
BRANCH   1  25
ATOM     25  O   UNL     1       0.741  -1.923  -1.265  0.00  0.00    -0.375 OA
BRANCH  25  26
ATOM     26  C   UNL     1       0.721  -0.494  -1.258  0.00  0.00    +0.160 C 
BRANCH  26  28
ATOM     27  C   UNL     1      -0.016   1.530   0.008  0.00  0.00    +0.006 C 
ATOM     28  C   UNL     1       0.006  -0.000   0.001  0.00  0.00    +0.025 C 
ENDBRANCH  26  28
ENDBRANCH  25  26
ENDBRANCH   1  25
TORSDOF 5
