REMARK  Name = ZINC29894741
REMARK  8 active torsions:
REMARK  status: ('A' for Active; 'I' for Inactive)
REMARK    1  A    between atoms: C_1  and  C_2
REMARK    2  A    between atoms: C_2  and  C_3
REMARK    3  A    between atoms: C_3  and  C_4
REMARK    4  A    between atoms: C_3  and  C_5
REMARK    5  A    between atoms: C_3  and  C_6
REMARK    6  A    between atoms: N_14  and  C_18
REMARK    7  A    between atoms: C_18  and  N_19
REMARK    8  A    between atoms: C_23  and  C_26
REMARK                            x       y       z     vdW  Elec       q    Type
REMARK                         _______ _______ _______ _____ _____    ______ ____
ROOT
ATOM      1  C   UNL     1       0.739  -2.027  -1.265  0.00  0.00    -0.005 C 
ATOM      2  C   UNL     1       1.477  -2.534  -0.024  0.00  0.00    +0.006 C 
ATOM      3  C   UNL     1       1.488  -4.065  -0.028  0.00  0.00    +0.035 C 
ATOM      4  C   UNL     1       2.179  -4.566  -1.291  0.00  0.00    +0.113 C 
ATOM      5  C   UNL     1       1.466  -4.051  -2.537  0.00  0.00    +0.035 C 
ATOM      6  C   UNL     1       1.455  -2.520  -2.524  0.00  0.00    +0.006 C 
ATOM      7  C   UNL     1       2.232  -6.077  -1.300  0.00  0.00    +0.248 C 
ATOM      8  O   UNL     1       1.293  -6.844  -1.296  0.00  0.00    -0.273 OA
ATOM      9  N   UNL     1       3.544  -6.391  -1.313  0.00  0.00    -0.211 N 
ATOM     10  C   UNL     1       4.313  -5.295  -1.314  0.00  0.00    +0.310 C 
ATOM     11  O   UNL     1       5.528  -5.323  -1.325  0.00  0.00    -0.252 OA
ATOM     12  N   UNL     1       3.590  -4.159  -1.301  0.00  0.00    -0.285 N 
ATOM     13  H   UNL     1       3.933  -3.252  -1.299  0.00  0.00    +0.151 HD
ENDROOT
BRANCH   1  14
ATOM     14  C   UNL     1       0.718  -0.497  -1.257  0.00  0.00    -0.032 C 
ATOM     15  C   UNL     1      -0.022   0.009  -2.496  0.00  0.00    +0.011 C 
ATOM     16  C   UNL     1       2.154   0.032  -1.268  0.00  0.00    +0.011 C 
BRANCH  14  18
ATOM     17  C   UNL     1      -0.019   1.526   0.010  0.00  0.00    +0.004 C 
ATOM     18  C   UNL     1       0.002  -0.004   0.002  0.00  0.00    +0.003 C 
ENDBRANCH  14  18
ENDBRANCH   1  14
BRANCH   9  19
ATOM     19  C   UNL     1       4.062  -7.761  -1.324  0.00  0.00    +0.205 C 
BRANCH  19  20
ATOM     20  N   UNL     1       4.223  -8.212  -2.713  0.00  0.00    -0.281 NA
ATOM     21  C   UNL     1       2.942  -8.672  -3.269  0.00  0.00    +0.114 C 
ATOM     22  C   UNL     1       3.143  -9.076  -4.732  0.00  0.00    +0.176 C 
ATOM     23  O   UNL     1       4.159 -10.080  -4.809  0.00  0.00    -0.369 OA
ATOM     24  C   UNL     1       5.420  -9.666  -4.277  0.00  0.00    +0.162 C 
ATOM     25  C   UNL     1       5.242  -9.268  -2.809  0.00  0.00    +0.122 C 
BRANCH  24  26
ATOM     26  C   UNL     1       6.405 -10.801  -4.375  0.00  0.00    -0.018 A 
ATOM     27  C   UNL     1       5.975 -12.105  -4.214  0.00  0.00    +0.009 A 
ATOM     28  C   UNL     1       6.878 -13.148  -4.304  0.00  0.00    +0.039 A 
ATOM     29  C   UNL     1       8.214 -12.886  -4.557  0.00  0.00    +0.123 A 
ATOM     30  C   UNL     1       8.644 -11.579  -4.718  0.00  0.00    +0.039 A 
ATOM     31  C   UNL     1       7.738 -10.539  -4.633  0.00  0.00    +0.009 A 
ATOM     32  F   UNL     1       9.098 -13.904  -4.645  0.00  0.00    -0.205 F 
ENDBRANCH  24  26
ENDBRANCH  19  20
ENDBRANCH   9  19
TORSDOF 5
