REMARK  Name = ZINC20837746
REMARK  7 active torsions:
REMARK  status: ('A' for Active; 'I' for Inactive)
REMARK    1  A    between atoms: C_3  and  S_26
REMARK    2  A    between atoms: C_6  and  N_7
REMARK    3  A    between atoms: C_8  and  C_10
REMARK    4  A    between atoms: C_10  and  S_11
REMARK    5  A    between atoms: S_11  and  C_12
REMARK    6  A    between atoms: N_17  and  N_18
REMARK    7  A    between atoms: S_26  and  N_29
REMARK                            x       y       z     vdW  Elec       q    Type
REMARK                         _______ _______ _______ _____ _____    ______ ____
ROOT
ATOM      1  N   UNL     1       1.627  -4.378  -1.609  0.00  0.00    -0.285 N 
ATOM      2  C   UNL     1       2.413  -4.321  -2.703  0.00  0.00    +0.227 C 
ATOM      3  O   UNL     1       2.172  -3.519  -3.581  0.00  0.00    -0.275 OA
ATOM      4  H   UNL     1       1.893  -5.045  -0.776  0.00  0.00    +0.155 HD
ENDROOT
BRANCH   1  10
ATOM      5  C   UNL     1      -0.254  -3.310  -2.684  0.00  0.00    +0.025 A 
ATOM      6  C   UNL     1      -1.392  -2.532  -2.607  0.00  0.00    +0.030 A 
ATOM      7  C   UNL     1      -1.808  -2.032  -1.386  0.00  0.00    +0.106 A 
ATOM      8  C   UNL     1      -1.084  -2.305  -0.240  0.00  0.00    +0.030 A 
ATOM      9  C   UNL     1       0.053  -3.087  -0.310  0.00  0.00    +0.025 A 
ATOM     10  C   UNL     1       0.473  -3.590  -1.534  0.00  0.00    +0.034 A 
BRANCH   7  11
ATOM     11  S   UNL     1      -3.261  -1.040  -1.292  0.00  0.00    +0.061 S 
ATOM     12  O   UNL     1      -3.451  -0.474  -2.581  0.00  0.00    -0.153 OA
ATOM     13  O   UNL     1      -3.134  -0.244  -0.122  0.00  0.00    -0.153 OA
BRANCH  11  14
ATOM     14  N   UNL     1      -4.537  -2.063  -1.031  0.00  0.00    -0.177 NA
ATOM     15  C   UNL     1      -4.941  -2.400   0.303  0.00  0.00    +0.109 C 
ATOM     16  C   UNL     1      -4.236  -3.623   0.941  0.00  0.00    +0.017 C 
ATOM     17  C   UNL     1      -4.090  -4.758  -0.103  0.00  0.00    +0.001 C 
ATOM     18  C   UNL     1      -5.314  -4.846  -0.967  0.00  0.00    +0.001 C 
ATOM     19  C   UNL     1      -4.969  -4.081  -2.240  0.00  0.00    +0.017 C 
ATOM     20  C   UNL     1      -5.289  -2.655  -2.189  0.00  0.00    +0.109 C 
ENDBRANCH  11  14
ENDBRANCH   7  11
ENDBRANCH   1  10
BRANCH   2  21
ATOM     21  C   UNL     1       3.590  -5.252  -2.835  0.00  0.00    +0.173 C 
BRANCH  21  22
ATOM     22  S   UNL     1       4.442  -4.931  -4.404  0.00  0.00    -0.075 S 
BRANCH  22  23
ATOM     23  C   UNL     1       5.776  -6.083  -4.408  0.00  0.00    +0.211 A 
ATOM     24  N   UNL     1       6.710  -6.227  -5.394  0.00  0.00    -0.186 NA
ATOM     25  C   UNL     1       7.569  -7.222  -5.021  0.00  0.00    +0.232 A 
ATOM     26  N   UNL     1       7.182  -7.675  -3.854  0.00  0.00    -0.245 N 
ATOM     27  N   UNL     1       6.048  -6.950  -3.462  0.00  0.00    -0.144 NA
ATOM     28  N   UNL     1       8.660  -7.675  -5.751  0.00  0.00    -0.205 N 
ATOM     29  H   UNL     1       8.896  -7.221  -6.725  0.00  0.00    +0.177 HD
ATOM     30  H   UNL     1       7.738  -8.490  -3.368  0.00  0.00    +0.192 HD
BRANCH  28  31
ATOM     31  N   UNL     1       9.460  -8.708  -5.246  0.00  0.00    -0.189 NA
ATOM     32  C   UNL     1      10.523  -9.057  -5.869  0.00  0.00    +0.037 C 
ATOM     33  C   UNL     1      10.882  -8.409  -7.203  0.00  0.00    +0.052 C 
ATOM     34  C   UNL     1      12.368  -8.164  -7.299  0.00  0.00    +0.006 C 
ATOM     35  C   UNL     1      13.058  -9.391  -7.909  0.00  0.00    +0.000 C 
ATOM     36  C   UNL     1      13.281 -10.459  -6.930  0.00  0.00    +0.000 C 
ATOM     37  C   UNL     1      11.972 -11.031  -6.369  0.00  0.00    +0.006 C 
ATOM     38  C   UNL     1      11.440 -10.129  -5.288  0.00  0.00    +0.052 C 
ENDBRANCH  28  31
ENDBRANCH  22  23
ENDBRANCH  21  22
ENDBRANCH   2  21
TORSDOF 7
