REMARK  Name = ZINC16911360
REMARK  11 active torsions:
REMARK  status: ('A' for Active; 'I' for Inactive)
REMARK    1  A    between atoms: C_1  and  C_2
REMARK    2  A    between atoms: C_2  and  C_3
REMARK    3  A    between atoms: C_3  and  N_4
REMARK    4  A    between atoms: C_8  and  C_9
REMARK    5  A    between atoms: C_14  and  O_15
REMARK    6  A    between atoms: O_15  and  C_16
REMARK    7  A    between atoms: C_16  and  C_18
REMARK    8  A    between atoms: C_16  and  C_20
REMARK    9  A    between atoms: C_18  and  C_19
REMARK   10  A    between atoms: N_24  and  C_25
REMARK   11  A    between atoms: C_28  and  C_30
REMARK                            x       y       z     vdW  Elec       q    Type
REMARK                         _______ _______ _______ _____ _____    ______ ____
ROOT
ATOM      1  N   UNL     1       7.766   2.739  -0.409  0.00  0.00    -0.246 N 
ATOM      2  C   UNL     1       6.607   2.106  -0.481  0.00  0.00    +0.259 C 
ATOM      3  O   UNL     1       6.522   0.988  -0.955  0.00  0.00    -0.269 OA
ATOM      4  C   UNL     1       5.423   2.817   0.035  0.00  0.00    +0.078 C 
ATOM      5  C   UNL     1       4.128   2.412   0.083  0.00  0.00    +0.032 C 
ATOM      6  S   UNL     1       6.152   4.352   0.587  0.00  0.00    -0.049 S 
ATOM      7  C   UNL     1       7.843   4.001   0.136  0.00  0.00    +0.171 C 
ATOM      8  N   UNL     1       8.906   4.763   0.288  0.00  0.00    -0.198 NA
ENDROOT
BRANCH   5   9
ATOM      9  C   UNL     1       3.726   1.159  -0.568  0.00  0.00    +0.018 A 
ATOM     10  C   UNL     1       4.280   0.796  -1.801  0.00  0.00    +0.011 A 
ATOM     11  C   UNL     1       3.894  -0.379  -2.408  0.00  0.00    +0.001 A 
ATOM     12  C   UNL     1       2.963  -1.207  -1.800  0.00  0.00    +0.004 A 
ATOM     13  C   UNL     1       2.412  -0.864  -0.581  0.00  0.00    +0.046 A 
ATOM     14  C   UNL     1       2.787   0.313   0.046  0.00  0.00    +0.129 A 
BRANCH  14  15
ATOM     15  O   UNL     1       2.245   0.650   1.244  0.00  0.00    -0.477 OA
BRANCH  15  16
ATOM     16  C   UNL     1       1.378  -0.306   1.856  0.00  0.00    +0.285 C 
BRANCH  16  17
ATOM     17  C   UNL     1       1.616  -0.319   3.345  0.00  0.00    +0.396 C 
ATOM     18  O   UNL     1       2.376   0.478   3.842  0.00  0.00    -0.242 OA
ATOM     19  O   UNL     1       0.983  -1.215   4.118  0.00  0.00    -0.242 OA
ENDBRANCH  16  17
BRANCH  16  20
ATOM     20  C   UNL     1      -0.077   0.071   1.575  0.00  0.00    +0.053 C 
ATOM     21  C   UNL     1      -0.352  -0.037   0.074  0.00  0.00    +0.008 C 
ENDBRANCH  16  20
ENDBRANCH  15  16
ENDBRANCH  14  15
ENDBRANCH   5   9
BRANCH   8  22
ATOM     22  C   UNL     1       8.785   5.993   0.854  0.00  0.00    +0.217 A 
ATOM     23  N   UNL     1       7.704   6.622   1.315  0.00  0.00    -0.121 NA
ATOM     24  N   UNL     1       7.776   7.776   1.819  0.00  0.00    -0.145 NA
ATOM     25  C   UNL     1       8.915   8.434   1.912  0.00  0.00    +0.101 A 
ATOM     26  S   UNL     1      10.031   7.236   1.187  0.00  0.00    -0.031 S 
ATOM     27  C   UNL     1       9.198   9.805   2.469  0.00  0.00    +0.075 C 
ENDBRANCH   8  22
BRANCH   1  28
ATOM     28  C   UNL     1       8.980   2.090  -0.909  0.00  0.00    +0.116 C 
BRANCH  28  30
ATOM     29  C   UNL     1      10.898   0.608  -0.302  0.00  0.00    +0.005 C 
ATOM     30  C   UNL     1       9.630   1.287   0.220  0.00  0.00    +0.016 C 
ENDBRANCH  28  30
ENDBRANCH   1  28
TORSDOF 8
