REMARK  Name = ZINC23222787
REMARK  10 active torsions:
REMARK  status: ('A' for Active; 'I' for Inactive)
REMARK    1  A    between atoms: C_1  and  C_2
REMARK    2  A    between atoms: C_2  and  O_3
REMARK    3  A    between atoms: O_3  and  C_4
REMARK    4  A    between atoms: C_4  and  C_6
REMARK    5  A    between atoms: C_7  and  C_34
REMARK    6  A    between atoms: C_11  and  N_33
REMARK    7  A    between atoms: C_13  and  C_15
REMARK    8  A    between atoms: C_15  and  S_16
REMARK    9  A    between atoms: S_16  and  C_17
REMARK   10  A    between atoms: C_27  and  C_31
REMARK                            x       y       z     vdW  Elec       q    Type
REMARK                         _______ _______ _______ _____ _____    ______ ____
ROOT
ATOM      1  C   UNL     1       1.337   8.656  -2.851  0.00  0.00    +0.153 C 
ENDROOT
BRANCH   1   9
ATOM      2  C   UNL     1       1.148   5.778   1.968  0.00  0.00    +0.112 A 
ATOM      3  C   UNL     1       1.057   6.887   2.753  0.00  0.00    +0.119 A 
ATOM      4  O   UNL     1       1.070   7.986   1.987  0.00  0.00    -0.441 OA
ATOM      5  C   UNL     1       1.160   7.674   0.682  0.00  0.00    +0.233 A 
ATOM      6  C   UNL     1       1.214   6.276   0.583  0.00  0.00    +0.094 A 
ATOM      7  C   UNL     1       1.311   5.690  -0.683  0.00  0.00    +0.131 A 
ATOM      8  N   UNL     1       1.347   6.488  -1.747  0.00  0.00    -0.216 NA
ATOM      9  C   UNL     1       1.293   7.799  -1.612  0.00  0.00    +0.145 A 
ATOM     10  N   UNL     1       1.202   8.390  -0.439  0.00  0.00    -0.196 NA
ATOM     11  C   UNL     1       0.959   6.880   4.257  0.00  0.00    +0.087 C 
BRANCH   7  12
ATOM     12  N   UNL     1       1.368   4.314  -0.825  0.00  0.00    -0.342 N 
ATOM     13  H   UNL     1       1.444   3.868  -1.827  0.00  0.00    +0.144 HD
ATOM     14  H   UNL     1       1.337   3.668   0.065  0.00  0.00    +0.144 HD
ENDBRANCH   7  12
BRANCH   2  15
ATOM     15  C   UNL     1       1.170   4.377   2.410  0.00  0.00    +0.343 C 
ATOM     16  O   UNL     1       2.230   3.833   2.656  0.00  0.00    -0.245 OA
BRANCH  15  17
ATOM     17  O   UNL     1       0.016   3.693   2.543  0.00  0.00    -0.461 OA
BRANCH  17  19
ATOM     18  C   UNL     1      -1.289   1.707   3.075  0.00  0.00    +0.048 C 
ATOM     19  C   UNL     1       0.113   2.313   2.984  0.00  0.00    +0.229 C 
ENDBRANCH  17  19
ENDBRANCH  15  17
ENDBRANCH   2  15
ENDBRANCH   1   9
BRANCH   1  20
ATOM     20  S   UNL     1      -0.348   8.940  -3.449  0.00  0.00    -0.078 S 
BRANCH  20  21
ATOM     21  C   UNL     1      -0.007   9.938  -4.860  0.00  0.00    +0.191 A 
ATOM     22  N   UNL     1       1.251  10.243  -5.154  0.00  0.00    -0.207 NA
ATOM     23  C   UNL     1       1.568  10.984  -6.202  0.00  0.00    +0.129 A 
ATOM     24  C   UNL     1       0.532  11.483  -7.040  0.00  0.00    +0.051 A 
ATOM     25  C   UNL     1       0.646  12.317  -8.239  0.00  0.00    -0.025 A 
ATOM     26  C   UNL     1      -0.501  12.657  -8.859  0.00  0.00    -0.004 A 
ATOM     27  S   UNL     1      -1.787  11.900  -7.902  0.00  0.00    -0.073 S 
ATOM     28  C   UNL     1      -0.778  11.124  -6.666  0.00  0.00    +0.115 A 
ATOM     29  N   UNL     1      -1.013  10.375  -5.606  0.00  0.00    -0.215 NA
ATOM     30  C   UNL     1      -0.652  13.495 -10.092  0.00  0.00    +0.046 C 
ATOM     31  C   UNL     1       0.720  13.611 -10.771  0.00  0.00    -0.009 C 
ATOM     32  C   UNL     1       1.762  13.979  -9.711  0.00  0.00    +0.008 C 
ATOM     33  C   UNL     1       1.994  12.791  -8.777  0.00  0.00    +0.037 C 
ATOM     34  C   UNL     1       0.671  14.702 -11.843  0.00  0.00    +0.008 C 
ATOM     35  N   UNL     1       2.892  11.275  -6.478  0.00  0.00    -0.343 N 
ATOM     36  H   UNL     1       3.149  11.892  -7.352  0.00  0.00    +0.144 HD
ATOM     37  H   UNL     1       3.688  10.891  -5.824  0.00  0.00    +0.144 HD
ENDBRANCH  20  21
ENDBRANCH   1  20
TORSDOF 7
