REMARK  Name = ZINC08901311
REMARK  11 active torsions:
REMARK  status: ('A' for Active; 'I' for Inactive)
REMARK    1  A    between atoms: C_1  and  C_2
REMARK    2  A    between atoms: C_2  and  N_59
REMARK    3  A    between atoms: C_3  and  C_4
REMARK    4  A    between atoms: C_3  and  N_59
REMARK    5  A    between atoms: C_5  and  C_6
REMARK    6  A    between atoms: C_5  and  N_59
REMARK    7  A    between atoms: C_6  and  N_7
REMARK    8  A    between atoms: C_8  and  C_26
REMARK    9  A    between atoms: C_11  and  C_12
REMARK   10  A    between atoms: C_11  and  O_21
REMARK   11  A    between atoms: C_30  and  N_32
REMARK                            x       y       z     vdW  Elec       q    Type
REMARK                         _______ _______ _______ _____ _____    ______ ____
ROOT
ATOM      1  N   UNL     1       1.292   2.576  -0.027  0.00  0.00    -0.285 N 
ATOM      2  C   UNL     1       0.091   1.843   0.384  0.00  0.00    +0.145 C 
ATOM      3  C   UNL     1      -0.448   2.548   1.607  0.00  0.00    +0.074 C 
ATOM      4  C   UNL     1      -1.574   2.205   2.337  0.00  0.00    +0.168 C 
ATOM      5  C   UNL     1       0.420   3.620   1.853  0.00  0.00    +0.249 C 
ATOM      6  O   UNL     1       0.318   4.427   2.760  0.00  0.00    -0.282 OA
ATOM      7  C   UNL     1       1.486   3.602   0.818  0.00  0.00    +0.288 C 
ATOM      8  O   UNL     1       2.400   4.399   0.746  0.00  0.00    -0.266 OA
ENDROOT
BRANCH   4   9
ATOM      9  C   UNL     1      -1.900   2.932   3.563  0.00  0.00    +0.171 A 
ATOM     10  C   UNL     1      -3.127   3.434   3.878  0.00  0.00    +0.061 A 
ATOM     11  C   UNL     1      -3.003   4.057   5.145  0.00  0.00    +0.021 A 
ATOM     12  C   UNL     1      -3.896   4.738   5.981  0.00  0.00    +0.011 A 
ATOM     13  C   UNL     1      -3.460   5.237   7.175  0.00  0.00    +0.001 A 
ATOM     14  C   UNL     1      -2.137   5.074   7.566  0.00  0.00    +0.004 A 
ATOM     15  C   UNL     1      -1.242   4.407   6.758  0.00  0.00    +0.047 A 
ATOM     16  C   UNL     1      -1.661   3.891   5.539  0.00  0.00    +0.136 A 
ATOM     17  O   UNL     1      -1.033   3.204   4.563  0.00  0.00    -0.452 OA
ENDBRANCH   4   9
BRANCH   2  18
ATOM     18  C   UNL     1      -0.933   1.868  -0.722  0.00  0.00    -0.020 A 
ATOM     19  C   UNL     1      -1.120   3.020  -1.464  0.00  0.00    +0.006 A 
ATOM     20  C   UNL     1      -2.056   3.042  -2.481  0.00  0.00    +0.003 A 
ATOM     21  C   UNL     1      -2.812   1.915  -2.749  0.00  0.00    +0.033 A 
ATOM     22  C   UNL     1      -2.628   0.766  -2.004  0.00  0.00    +0.127 A 
ATOM     23  C   UNL     1      -1.689   0.743  -0.990  0.00  0.00    +0.038 A 
BRANCH  22  24
ATOM     24  N   UNL     1      -3.438  -0.439  -2.291  0.00  0.00    +0.056 N 
ATOM     25  O   UNL     1      -3.276  -1.452  -1.633  0.00  0.00    -0.126 OA
ATOM     26  O   UNL     1      -4.266  -0.418  -3.184  0.00  0.00    -0.126 OA
ENDBRANCH  22  24
ENDBRANCH   2  18
BRANCH   4  27
ATOM     27  O   UNL     1      -2.372   1.198   1.915  0.00  0.00    -0.503 OA
ATOM     28  H   UNL     1      -3.132   1.085   2.555  0.00  0.00    +0.292 HD
ENDBRANCH   4  27
BRANCH   1  29
ATOM     29  C   UNL     1       2.143   2.243  -1.173  0.00  0.00    +0.090 C 
BRANCH  29  30
ATOM     30  C   UNL     1       1.633   2.974  -2.416  0.00  0.00    -0.060 C 
BRANCH  30  31
ATOM     31  N   UNL     1       2.487   2.611  -3.566  0.00  0.00    +0.380 N 
ATOM     32  H   UNL     1       2.551   1.588  -3.625  0.00  0.00    -0.082 HD
BRANCH  31  34
ATOM     33  C   UNL     1       0.667   2.285  -5.166  0.00  0.00    -0.017 C 
ATOM     34  C   UNL     1       1.896   3.128  -4.818  0.00  0.00    -0.082 C 
ENDBRANCH  31  34
BRANCH  31  35
ATOM     35  C   UNL     1       3.845   3.167  -3.382  0.00  0.00    -0.082 C 
ATOM     36  C   UNL     1       4.790   2.495  -4.380  0.00  0.00    -0.017 C 
ENDBRANCH  31  35
ENDBRANCH  30  31
ENDBRANCH  29  30
ENDBRANCH   1  29
TORSDOF 9
