REMARK  Name = ZINC14340206
REMARK  12 active torsions:
REMARK  status: ('A' for Active; 'I' for Inactive)
REMARK    1  A    between atoms: C_1  and  C_2
REMARK    2  A    between atoms: N_5  and  C_11
REMARK    3  A    between atoms: C_7  and  C_10
REMARK    4  A    between atoms: C_11  and  C_12
REMARK    5  A    between atoms: C_11  and  C_13
REMARK    6  A    between atoms: C_11  and  C_14
REMARK    7  A    between atoms: C_14  and  N_15
REMARK    8  A    between atoms: C_16  and  C_18
REMARK    9  A    between atoms: C_20  and  S_25
REMARK   10  A    between atoms: S_25  and  N_28
REMARK   11  A    between atoms: N_28  and  C_29
REMARK   12  A    between atoms: N_28  and  C_30
REMARK                            x       y       z     vdW  Elec       q    Type
REMARK                         _______ _______ _______ _____ _____    ______ ____
ROOT
ATOM      1  N   UNL     1      -0.329   5.706   3.192  0.00  0.00    -0.310 N 
ATOM      2  C   UNL     1      -1.224   4.857   3.735  0.00  0.00    +0.246 C 
ATOM      3  O   UNL     1      -1.854   5.187   4.721  0.00  0.00    -0.270 OA
ATOM      4  H   UNL     1       0.241   5.407   2.299  0.00  0.00    +0.149 HD
ENDROOT
BRANCH   2   5
ATOM      5  C   UNL     1      -1.441   3.526   3.131  0.00  0.00    +0.057 A 
ATOM      6  C   UNL     1      -0.716   3.142   2.001  0.00  0.00    +0.043 A 
ATOM      7  C   UNL     1      -0.927   1.900   1.439  0.00  0.00    +0.106 A 
ATOM      8  C   UNL     1      -1.847   1.030   1.999  0.00  0.00    +0.030 A 
ATOM      9  C   UNL     1      -2.565   1.401   3.121  0.00  0.00    +0.022 A 
ATOM     10  C   UNL     1      -2.368   2.644   3.691  0.00  0.00    +0.053 A 
ATOM     11 CL   UNL     1      -3.271   3.108   5.099  0.00  0.00    -0.083 Cl
BRANCH   7  12
ATOM     12  S   UNL     1      -0.017   1.417   0.010  0.00  0.00    +0.060 S 
ATOM     13  O   UNL     1       0.002  -0.004   0.002  0.00  0.00    -0.153 OA
ATOM     14  O   UNL     1       1.172   2.195   0.003  0.00  0.00    -0.153 OA
BRANCH  12  15
ATOM     15  N   UNL     1      -0.897   1.885  -1.312  0.00  0.00    -0.183 NA
ATOM     16  C   UNL     1      -0.691   3.213  -1.897  0.00  0.00    +0.131 C 
ATOM     17  C   UNL     1      -1.883   0.973  -1.897  0.00  0.00    +0.131 C 
ENDBRANCH  12  15
ENDBRANCH   7  12
ENDBRANCH   2   5
BRANCH   1  18
ATOM     18  C   UNL     1      -0.114   7.026   3.790  0.00  0.00    +0.126 C 
BRANCH  18  19
ATOM     19  C   UNL     1       0.945   7.784   2.987  0.00  0.00    +0.032 C 
ATOM     20  C   UNL     1       1.169   9.162   3.612  0.00  0.00    +0.029 C 
ATOM     21  C   UNL     1       2.257   6.997   3.004  0.00  0.00    +0.029 C 
BRANCH  19  25
ATOM     22  C   UNL     1      -2.601   9.487   0.029  0.00  0.00    +0.039 C 
ATOM     23  C   UNL     1      -1.283   8.713   0.096  0.00  0.00    +0.130 C 
ATOM     24  C   UNL     1      -0.817   8.621   1.551  0.00  0.00    +0.116 C 
ATOM     25  N   UNL     1       0.487   7.943   1.601  0.00  0.00    -0.291 NA
ATOM     26  C   UNL     1       1.482   8.669   0.797  0.00  0.00    +0.116 C 
ATOM     27  C   UNL     1       0.993   8.760  -0.650  0.00  0.00    +0.130 C 
ATOM     28  O   UNL     1      -0.290   9.393  -0.676  0.00  0.00    -0.371 OA
ATOM     29  C   UNL     1       1.986   9.582  -1.474  0.00  0.00    +0.039 C 
ENDBRANCH  19  25
ENDBRANCH  18  19
ENDBRANCH   1  18
TORSDOF 6
