REMARK  Name = ZINC04387918
REMARK  6 active torsions:
REMARK  status: ('A' for Active; 'I' for Inactive)
REMARK    1  A    between atoms: C_3  and  C_8
REMARK    2  A    between atoms: C_5  and  O_7
REMARK    3  A    between atoms: C_10  and  C_22
REMARK    4  A    between atoms: C_12  and  C_17
REMARK    5  A    between atoms: C_12  and  O_21
REMARK    6  A    between atoms: C_22  and  C_24
REMARK                            x       y       z     vdW  Elec       q    Type
REMARK                         _______ _______ _______ _____ _____    ______ ____
ROOT
ATOM      1  C   UNL     1      -3.063   6.321   0.677  0.00  0.00    +0.118 C 
ATOM      2  C   UNL     1      -1.692   5.831   0.200  0.00  0.00    +0.144 C 
ATOM      3  C   UNL     1      -1.481   6.301  -1.243  0.00  0.00    +0.241 C 
ATOM      4  N   UNL     1      -2.595   5.832  -2.069  0.00  0.00    -0.291 N 
ATOM      5  C   UNL     1      -3.817   5.641  -1.548  0.00  0.00    +0.133 C 
ATOM      6  S   UNL     1      -5.074   5.106  -2.579  0.00  0.00    -0.019 S 
ATOM      7  N   UNL     1      -4.092   5.851  -0.253  0.00  0.00    -0.319 N 
ATOM      8  H   UNL     1      -2.447   5.657  -3.011  0.00  0.00    +0.151 HD
ATOM      9  H   UNL     1      -4.990   5.689   0.075  0.00  0.00    +0.148 HD
ENDROOT
BRANCH   1  12
ATOM     10  C   UNL     1      -3.212   6.000   4.437  0.00  0.00    +0.004 A 
ATOM     11  C   UNL     1      -2.959   6.496   3.172  0.00  0.00    +0.006 A 
ATOM     12  C   UNL     1      -3.341   5.777   2.055  0.00  0.00    -0.023 A 
ATOM     13  C   UNL     1      -3.983   4.562   2.200  0.00  0.00    +0.051 A 
ATOM     14  C   UNL     1      -4.234   4.059   3.469  0.00  0.00    +0.117 A 
ATOM     15  C   UNL     1      -3.849   4.783   4.588  0.00  0.00    +0.045 A 
BRANCH  14  16
ATOM     16  O   UNL     1      -4.861   2.862   3.614  0.00  0.00    -0.507 OA
ATOM     17  H   UNL     1      -5.825   2.926   3.661  0.00  0.00    +0.292 HD
ENDBRANCH  14  16
ENDBRANCH   1  12
BRANCH   3  18
ATOM     18  C   UNL     1      -1.425   7.830  -1.280  0.00  0.00    +0.436 C 
ATOM     19  F   UNL     1      -0.365   8.277  -0.485  0.00  0.00    -0.166 F 
ATOM     20  F   UNL     1      -1.233   8.258  -2.598  0.00  0.00    -0.166 F 
ATOM     21  F   UNL     1      -2.627   8.352  -0.791  0.00  0.00    -0.166 F 
ENDBRANCH   3  18
BRANCH   3  22
ATOM     22  O   UNL     1      -0.256   5.765  -1.746  0.00  0.00    -0.364 OA
ATOM     23  H   UNL     1      -0.058   6.023  -2.657  0.00  0.00    +0.212 HD
ENDBRANCH   3  22
BRANCH   2  24
ATOM     24  C   UNL     1      -1.646   4.326   0.254  0.00  0.00    +0.179 C 
ATOM     25  O   UNL     1      -2.638   3.678  -0.011  0.00  0.00    -0.291 OA
BRANCH  24  26
ATOM     26  C   UNL     1      -0.448   3.668   0.613  0.00  0.00    +0.055 A 
ATOM     27  C   UNL     1      -0.194   2.305   0.716  0.00  0.00    +0.019 A 
ATOM     28  C   UNL     1       1.070   1.935   1.093  0.00  0.00    +0.008 A 
ATOM     29  C   UNL     1       2.002   2.897   1.333  0.00  0.00    +0.046 A 
ATOM     30  S   UNL     1       1.134   4.370   1.045  0.00  0.00    -0.094 S 
ENDBRANCH  24  26
ENDBRANCH   2  24
TORSDOF 6
