REMARK  Name = ZINC07472811
REMARK  4 active torsions:
REMARK  status: ('A' for Active; 'I' for Inactive)
REMARK    1  A    between atoms: C_4  and  C_7
REMARK    2  A    between atoms: C_11  and  S_13
REMARK    3  A    between atoms: S_13  and  C_14
REMARK    4  A    between atoms: C_14  and  N_15
REMARK                            x       y       z     vdW  Elec       q    Type
REMARK                         _______ _______ _______ _____ _____    ______ ____
ROOT
ATOM      1  S   UNL     1       5.807  -3.938  -0.085  0.00  0.00    -0.063 S 
ENDROOT
BRANCH   1   6
ATOM      2  C   UNL     1       8.110  -6.612  -1.703  0.00  0.00    +0.182 A 
ATOM      3  N   UNL     1       9.001  -5.652  -1.602  0.00  0.00    -0.152 NA
ATOM      4  H   UNL     1       8.745  -3.688  -0.815  0.00  0.00    +0.191 HD
ATOM      5  N   UNL     1       8.352  -4.552  -1.020  0.00  0.00    -0.253 N 
ATOM      6  C   UNL     1       7.074  -4.931  -0.801  0.00  0.00    +0.186 A 
ATOM      7  N   UNL     1       6.939  -6.170  -1.221  0.00  0.00    -0.201 NA
BRANCH   2  11
ATOM      8  C   UNL     1       8.819 -10.485  -3.310  0.00  0.00    +0.000 A 
ATOM      9  C   UNL     1       9.848  -9.563  -3.255  0.00  0.00    +0.001 A 
ATOM     10  C   UNL     1       9.624  -8.304  -2.735  0.00  0.00    +0.011 A 
ATOM     11  C   UNL     1       8.357  -7.963  -2.264  0.00  0.00    +0.021 A 
ATOM     12  C   UNL     1       7.324  -8.896  -2.322  0.00  0.00    +0.011 A 
ATOM     13  C   UNL     1       7.560 -10.152  -2.844  0.00  0.00    +0.001 A 
ENDBRANCH   2  11
ENDBRANCH   1   6
BRANCH   1  14
ATOM     14  C   UNL     1       4.317  -4.964  -0.218  0.00  0.00    +0.226 C 
BRANCH  14  15
ATOM     15  N   UNL     1       3.833  -4.946  -1.600  0.00  0.00    -0.200 N 
ATOM     16  C   UNL     1       3.033  -3.938  -2.023  0.00  0.00    +0.279 A 
ATOM     17  O   UNL     1       2.703  -3.036  -1.276  0.00  0.00    -0.265 OA
ATOM     18  C   UNL     1       2.580  -3.977  -3.422  0.00  0.00    +0.068 A 
ATOM     19  C   UNL     1       1.756  -2.986  -3.952  0.00  0.00    +0.015 A 
ATOM     20  C   UNL     1       1.358  -3.065  -5.269  0.00  0.00    +0.001 A 
ATOM     21  C   UNL     1       1.772  -4.122  -6.069  0.00  0.00    +0.002 A 
ATOM     22  C   UNL     1       2.586  -5.110  -5.565  0.00  0.00    +0.030 A 
ATOM     23  C   UNL     1       3.003  -5.053  -4.232  0.00  0.00    +0.100 A 
ATOM     24  N   UNL     1       3.806  -6.009  -3.703  0.00  0.00    -0.131 NA
ATOM     25  N   UNL     1       4.201  -5.965  -2.482  0.00  0.00    -0.061 NA
ENDBRANCH  14  15
ENDBRANCH   1  14
TORSDOF 4
