REMARK  Name = ZINC39663293
REMARK  4 active torsions:
REMARK  status: ('A' for Active; 'I' for Inactive)
REMARK    1  A    between atoms: C_6  and  C_7
REMARK    2  A    between atoms: C_10  and  C_12
REMARK    3  A    between atoms: C_16  and  C_25
REMARK    4  A    between atoms: N_27  and  C_28
REMARK                            x       y       z     vdW  Elec       q    Type
REMARK                         _______ _______ _______ _____ _____    ______ ____
ROOT
ATOM      1  C   UNL     1      -4.993  -1.057   0.067  0.00  0.00    +0.282 C 
ATOM      2  O   UNL     1      -5.742  -2.016   0.029  0.00  0.00    -0.267 OA
ATOM      3  N   UNL     1      -5.497   0.192   0.045  0.00  0.00    -0.294 N 
ATOM      4  C   UNL     1      -4.752   1.473   0.077  0.00  0.00    +0.121 C 
ATOM      5  C   UNL     1      -5.514   2.392  -0.904  0.00  0.00    +0.100 C 
ATOM      6  C   UNL     1      -6.937   1.813  -0.960  0.00  0.00    -0.004 C 
ATOM      7  C   UNL     1      -6.922   0.596  -0.023  0.00  0.00    +0.115 C 
ATOM      8  C   UNL     1      -7.947   2.846  -0.470  0.00  0.00    -0.010 C 
ATOM      9  C   UNL     1      -9.360   2.268  -0.590  0.00  0.00    -0.082 C 
ATOM     10  N   UNL     1      -9.630   1.915  -1.988  0.00  0.00    +0.379 N 
ATOM     11  C   UNL     1      -8.714   0.854  -2.423  0.00  0.00    -0.082 C 
ATOM     12  C   UNL     1      -7.274   1.373  -2.382  0.00  0.00    -0.010 C 
ATOM     13  H   UNL     1     -10.582   1.591  -2.075  0.00  0.00    -0.086 HD
ATOM     14  H   UNL     1      -9.501   2.729  -2.570  0.00  0.00    -0.086 HD
ENDROOT
BRANCH   1  18
ATOM     15  C   UNL     1      -1.388  -0.850   0.241  0.00  0.00    +0.136 A 
ATOM     16  C   UNL     1      -1.529  -2.208   0.232  0.00  0.00    +0.050 A 
ATOM     17  C   UNL     1      -2.899  -2.479   0.166  0.00  0.00    +0.055 A 
ATOM     18  C   UNL     1      -3.544  -1.262   0.137  0.00  0.00    +0.190 A 
ATOM     19  O   UNL     1      -2.608  -0.290   0.189  0.00  0.00    -0.450 OA
BRANCH  15  25
ATOM     20  C   UNL     1      -0.098   1.279   0.314  0.00  0.00    +0.014 A 
ATOM     21  C   UNL     1       1.101   1.958   0.374  0.00  0.00    +0.039 A 
ATOM     22  C   UNL     1       2.295   1.256   0.425  0.00  0.00    +0.123 A 
ATOM     23  C   UNL     1       2.292  -0.130   0.416  0.00  0.00    +0.039 A 
ATOM     24  C   UNL     1       1.099  -0.819   0.356  0.00  0.00    +0.014 A 
ATOM     25  C   UNL     1      -0.107  -0.117   0.305  0.00  0.00    +0.017 A 
ATOM     26  F   UNL     1       3.467   1.926   0.484  0.00  0.00    -0.205 F 
ENDBRANCH  15  25
ENDBRANCH   1  18
BRANCH   5  27
ATOM     27  C   UNL     1      -5.540   3.807  -0.386  0.00  0.00    +0.218 C 
ATOM     28  O   UNL     1      -5.556   4.014   0.809  0.00  0.00    -0.275 OA
ATOM     29  N   UNL     1      -5.546   4.841  -1.249  0.00  0.00    -0.314 N 
ATOM     30  H   UNL     1      -5.533   4.675  -2.205  0.00  0.00    +0.149 HD
BRANCH  29  31
ATOM     31  C   UNL     1      -5.571   6.216  -0.745  0.00  0.00    +0.059 C 
ATOM     32  C   UNL     1      -7.017   6.636  -0.472  0.00  0.00    -0.056 C 
ATOM     33  N   UNL     1      -7.366   7.797  -1.294  0.00  0.00    +0.381 N 
ATOM     34  C   UNL     1      -7.266   7.469  -2.718  0.00  0.00    -0.078 C 
ATOM     35  C   UNL     1      -5.828   7.077  -3.066  0.00  0.00    -0.014 C 
ATOM     36  C   UNL     1      -4.968   7.160  -1.794  0.00  0.00    +0.004 C 
ATOM     37  C   UNL     1      -5.043   8.594  -1.254  0.00  0.00    -0.014 C 
ATOM     38  C   UNL     1      -6.509   8.938  -0.965  0.00  0.00    -0.078 C 
ATOM     39  H   UNL     1      -8.323   8.050  -1.099  0.00  0.00    -0.082 HD
ENDBRANCH  29  31
ENDBRANCH   5  27
TORSDOF 4
