REMARK  Name = ZINC26951299
REMARK  9 active torsions:
REMARK  status: ('A' for Active; 'I' for Inactive)
REMARK    1  A    between atoms: C_4  and  O_7
REMARK    2  A    between atoms: O_7  and  C_8
REMARK    3  A    between atoms: C_8  and  C_9
REMARK    4  A    between atoms: N_15  and  C_16
REMARK    5  A    between atoms: C_16  and  C_18
REMARK    6  A    between atoms: C_16  and  O_22
REMARK    7  A    between atoms: N_23  and  C_24
REMARK    8  A    between atoms: C_24  and  C_26
REMARK    9  A    between atoms: C_24  and  O_30
REMARK                            x       y       z     vdW  Elec       q    Type
REMARK                         _______ _______ _______ _____ _____    ______ ____
ROOT
ATOM      1  C   UNL     1      -3.958   2.934   2.218  0.00  0.00    +0.173 A 
ATOM      2  N   UNL     1      -4.630   2.807   1.087  0.00  0.00    -0.196 NA
ATOM      3  C   UNL     1      -4.013   2.378  -0.011  0.00  0.00    +0.222 A 
ATOM      4  N   UNL     1      -2.720   2.078   0.029  0.00  0.00    -0.181 NA
ATOM      5  C   UNL     1      -2.047   2.208   1.168  0.00  0.00    +0.222 A 
ATOM      6  N   UNL     1      -2.672   2.632   2.264  0.00  0.00    -0.196 NA
ATOM      7  N   UNL     1      -0.703   1.897   1.215  0.00  0.00    -0.285 N 
ATOM      8  N   UNL     1      -4.716   2.245  -1.191  0.00  0.00    -0.285 N 
ATOM      9  H   UNL     1      -0.147   2.005   2.158  0.00  0.00    +0.151 HD
ATOM     10  H   UNL     1      -5.787   2.494  -1.224  0.00  0.00    +0.151 HD
ENDROOT
BRANCH   1  11
ATOM     11  C   UNL     1      -4.660   3.420   3.460  0.00  0.00    +0.305 C 
BRANCH  11  12
ATOM     12  O   UNL     1      -5.187   2.301   4.177  0.00  0.00    -0.484 OA
BRANCH  12  16
ATOM     13  C   UNL     1      -7.216   3.108   7.677  0.00  0.00    +0.000 A 
ATOM     14  C   UNL     1      -7.072   1.802   7.248  0.00  0.00    +0.004 A 
ATOM     15  C   UNL     1      -6.393   1.529   6.077  0.00  0.00    +0.045 A 
ATOM     16  C   UNL     1      -5.855   2.567   5.330  0.00  0.00    +0.121 A 
ATOM     17  C   UNL     1      -5.996   3.877   5.765  0.00  0.00    +0.045 A 
ATOM     18  C   UNL     1      -6.681   4.145   6.934  0.00  0.00    +0.004 A 
ENDBRANCH  12  16
ENDBRANCH  11  12
ENDBRANCH   1  11
BRANCH   7  19
ATOM     19  C   UNL     1      -0.017   1.425   0.010  0.00  0.00    +0.254 C 
BRANCH  19  20
ATOM     20  C   UNL     1       1.418   1.954  -0.001  0.00  0.00    +0.232 C 
ATOM     21 CL   UNL     1       2.262   1.373  -1.484  0.00  0.00    -0.079 Cl
ATOM     22 CL   UNL     1       1.394   3.757   0.009  0.00  0.00    -0.079 Cl
ATOM     23 CL   UNL     1       2.290   1.357   1.460  0.00  0.00    -0.079 Cl
ENDBRANCH  19  20
BRANCH  19  24
ATOM     24  O   UNL     1       0.002  -0.004   0.002  0.00  0.00    -0.370 OA
ATOM     25  H   UNL     1       0.478  -0.543  -0.831  0.00  0.00    +0.212 HD
ENDBRANCH  19  24
ENDBRANCH   7  19
BRANCH   8  26
ATOM     26  C   UNL     1      -4.037   1.772  -2.400  0.00  0.00    +0.254 C 
BRANCH  26  27
ATOM     27  C   UNL     1      -4.999   0.915  -3.224  0.00  0.00    +0.232 C 
ATOM     28 CL   UNL     1      -4.162   0.334  -4.712  0.00  0.00    -0.079 Cl
ATOM     29 CL   UNL     1      -5.535  -0.500  -2.244  0.00  0.00    -0.079 Cl
ATOM     30 CL   UNL     1      -6.435   1.902  -3.689  0.00  0.00    -0.079 Cl
ENDBRANCH  26  27
BRANCH  26  31
ATOM     31  O   UNL     1      -3.612   2.894  -3.177  0.00  0.00    -0.370 OA
ATOM     32  H   UNL     1      -3.080   2.736  -4.126  0.00  0.00    +0.212 HD
ENDBRANCH  26  31
ENDBRANCH   8  26
TORSDOF 9
