REMARK  Name = ZINC13117002
REMARK  12 active torsions:
REMARK  status: ('A' for Active; 'I' for Inactive)
REMARK    1  A    between atoms: C_1  and  C_2
REMARK    2  A    between atoms: C_3  and  C_35
REMARK    3  A    between atoms: C_5  and  N_11
REMARK    4  A    between atoms: C_6  and  C_7
REMARK    5  A    between atoms: C_7  and  O_9
REMARK    6  A    between atoms: O_9  and  C_10
REMARK    7  A    between atoms: C_12  and  C_14
REMARK    8  A    between atoms: C_14  and  S_15
REMARK    9  A    between atoms: S_15  and  C_16
REMARK   10  A    between atoms: N_26  and  C_27
REMARK   11  A    between atoms: C_32  and  O_33
REMARK   12  A    between atoms: O_33  and  C_34
REMARK                            x       y       z     vdW  Elec       q    Type
REMARK                         _______ _______ _______ _____ _____    ______ ____
ROOT
ATOM      1  C   UNL     1      -1.119  -2.036   0.002  0.00  0.00    +0.177 A 
ATOM      2  N   UNL     1      -1.136  -0.726   0.009  0.00  0.00    -0.223 NA
ATOM      3  C   UNL     1       0.002  -0.004   0.002  0.00  0.00    +0.079 A 
ATOM      4  C   UNL     1      -0.017   1.394   0.010  0.00  0.00    +0.028 A 
ATOM      5  C   UNL     1       1.161   2.086   0.002  0.00  0.00    +0.002 A 
ATOM      6  C   UNL     1       2.381   1.422  -0.012  0.00  0.00    +0.001 A 
ATOM      7  C   UNL     1       2.432   0.055  -0.020  0.00  0.00    +0.015 A 
ATOM      8  C   UNL     1       1.245  -0.677  -0.013  0.00  0.00    +0.065 A 
ATOM      9  C   UNL     1       1.240  -2.146  -0.021  0.00  0.00    +0.267 A 
ATOM     10  O   UNL     1       2.278  -2.781  -0.035  0.00  0.00    -0.267 OA
ATOM     11  N   UNL     1       0.037  -2.766  -0.013  0.00  0.00    -0.252 N 
ENDROOT
BRANCH  11  12
ATOM     12  C   UNL     1      -0.024  -4.167  -0.020  0.00  0.00    +0.093 A 
ATOM     13  C   UNL     1      -0.037  -4.868   1.177  0.00  0.00    +0.030 A 
ATOM     14  C   UNL     1      -0.103  -6.248   1.169  0.00  0.00    +0.002 A 
ATOM     15  C   UNL     1      -0.145  -6.934  -0.031  0.00  0.00    +0.004 A 
ATOM     16  C   UNL     1      -0.126  -6.243  -1.228  0.00  0.00    +0.048 A 
ATOM     17  C   UNL     1      -0.066  -4.859  -1.228  0.00  0.00    +0.144 A 
BRANCH  17  18
ATOM     18  O   UNL     1      -0.048  -4.177  -2.404  0.00  0.00    -0.493 OA
ATOM     19  C   UNL     1      -0.093  -4.952  -3.604  0.00  0.00    +0.277 C 
ENDBRANCH  17  18
ENDBRANCH  11  12
BRANCH   1  20
ATOM     20  S   UNL     1      -2.656  -2.897   0.012  0.00  0.00    -0.078 S 
BRANCH  20  21
ATOM     21  C   UNL     1      -3.801  -1.495   0.030  0.00  0.00    +0.173 C 
BRANCH  21  23
ATOM     22  N   UNL     1      -6.248  -1.135   0.056  0.00  0.00    -0.279 N 
ATOM     23  C   UNL     1      -5.220  -2.005   0.041  0.00  0.00    +0.228 C 
ATOM     24  O   UNL     1      -5.435  -3.198   0.037  0.00  0.00    -0.275 OA
ATOM     25  H   UNL     1      -6.076  -0.180   0.059  0.00  0.00    +0.155 HD
BRANCH  22  30
ATOM     26  C   UNL     1     -11.307  -0.938   0.105  0.00  0.00    +0.045 C 
ATOM     27  C   UNL     1      -9.966  -1.624   0.088  0.00  0.00    -0.025 A 
ATOM     28  C   UNL     1      -9.865  -2.965   0.080  0.00  0.00    -0.008 A 
ATOM     29  S   UNL     1      -8.106  -3.244   0.054  0.00  0.00    -0.078 S 
ATOM     30  C   UNL     1      -7.553  -1.603   0.066  0.00  0.00    +0.086 A 
ATOM     31  C   UNL     1      -8.735  -0.870   0.081  0.00  0.00    +0.091 A 
ATOM     32  C   UNL     1     -10.973  -3.986   0.085  0.00  0.00    +0.052 C 
BRANCH  31  33
ATOM     33  C   UNL     1      -8.730   0.594   0.089  0.00  0.00    +0.342 C 
ATOM     34  O   UNL     1      -8.739   1.208  -0.961  0.00  0.00    -0.245 OA
BRANCH  33  35
ATOM     35  O   UNL     1      -8.717   1.262   1.261  0.00  0.00    -0.464 OA
ATOM     36  C   UNL     1      -8.713   2.712   1.193  0.00  0.00    +0.280 C 
ENDBRANCH  33  35
ENDBRANCH  31  33
ENDBRANCH  22  30
ENDBRANCH  21  23
ENDBRANCH  20  21
ENDBRANCH   1  20
TORSDOF 8
