REMARK  Name = ZINC13064089
REMARK  11 active torsions:
REMARK  status: ('A' for Active; 'I' for Inactive)
REMARK    1  A    between atoms: C_1  and  C_2
REMARK    2  A    between atoms: C_2  and  C_3
REMARK    3  A    between atoms: C_3  and  C_5
REMARK    4  A    between atoms: C_3  and  N_68
REMARK    5  A    between atoms: N_9  and  C_10
REMARK    6  A    between atoms: C_10  and  C_11
REMARK    7  A    between atoms: C_17  and  C_18
REMARK    8  A    between atoms: C_17  and  N_68
REMARK    9  A    between atoms: C_22  and  O_30
REMARK   10  A    between atoms: O_30  and  C_31
REMARK   11  A    between atoms: C_32  and  N_68
REMARK                            x       y       z     vdW  Elec       q    Type
REMARK                         _______ _______ _______ _____ _____    ______ ____
ROOT
ATOM      1  N   UNL     1      -2.044   6.929   6.495  0.00  0.00    +0.391 N 
ATOM      2  H   UNL     1      -1.807   5.974   6.788  0.00  0.00    -0.080 HD
ENDROOT
BRANCH   1   3
ATOM      3  C   UNL     1      -0.943   7.465   5.669  0.00  0.00    -0.067 C 
ATOM      4  C   UNL     1      -1.074   6.950   4.221  0.00  0.00    -0.015 C 
ATOM      5  C   UNL     1       0.386   6.683   3.779  0.00  0.00    -0.002 C 
ATOM      6  C   UNL     1       1.034   6.111   5.065  0.00  0.00    -0.002 C 
ATOM      7  C   UNL     1       0.397   6.932   6.205  0.00  0.00    -0.015 C 
ENDBRANCH   1   3
BRANCH   1   8
ATOM      8  C   UNL     1      -2.229   7.768   7.698  0.00  0.00    +0.003 C 
BRANCH   8   9
ATOM      9  C   UNL     1      -1.217   7.354   8.734  0.00  0.00    +0.138 A 
ATOM     10  N   UNL     1       0.088   7.399   8.616  0.00  0.00    -0.115 NA
ATOM     11  N   UNL     1       0.602   6.963   9.714  0.00  0.00    -0.023 NA
ATOM     12  N   UNL     1      -0.340   6.633  10.526  0.00  0.00    -0.044 NA
ATOM     13  N   UNL     1      -1.477   6.859   9.959  0.00  0.00    -0.228 N 
BRANCH  13  14
ATOM     14  C   UNL     1      -2.801   6.622  10.538  0.00  0.00    +0.178 C 
BRANCH  14  15
ATOM     15  C   UNL     1      -3.223   5.175  10.271  0.00  0.00    +0.140 C 
ATOM     16  C   UNL     1      -4.595   4.901  10.923  0.00  0.00    +0.035 C 
ATOM     17  C   UNL     1      -4.418   3.459  11.470  0.00  0.00    +0.031 C 
ATOM     18  C   UNL     1      -2.920   3.476  11.865  0.00  0.00    +0.160 C 
ATOM     19  O   UNL     1      -2.277   4.276  10.861  0.00  0.00    -0.375 OA
ENDBRANCH  14  15
ENDBRANCH  13  14
ENDBRANCH   8   9
BRANCH   8  21
ATOM     20  C   UNL     1      -3.059   9.667   6.301  0.00  0.00    +0.002 C 
ATOM     21  C   UNL     1      -2.031   9.246   7.354  0.00  0.00    -0.011 C 
ENDBRANCH   8  21
ENDBRANCH   1   8
BRANCH   1  22
ATOM     22  C   UNL     1      -3.295   6.892   5.708  0.00  0.00    -0.036 C 
BRANCH  22  23
ATOM     23  C   UNL     1      -4.264   5.956   6.383  0.00  0.00    +0.001 A 
ATOM     24  C   UNL     1      -5.250   6.456   7.168  0.00  0.00    +0.017 A 
ATOM     25  C   UNL     1      -6.175   5.520   7.811  0.00  0.00    +0.002 A 
ATOM     26  C   UNL     1      -7.215   5.978   8.626  0.00  0.00    +0.055 A 
ATOM     27  C   UNL     1      -8.066   5.069   9.220  0.00  0.00    +0.121 A 
ATOM     28  C   UNL     1      -7.899   3.703   9.002  0.00  0.00    +0.047 A 
ATOM     29  C   UNL     1      -6.882   3.240   8.197  0.00  0.00    +0.030 A 
ATOM     30  C   UNL     1      -6.010   4.139   7.593  0.00  0.00    +0.049 A 
ATOM     31  N   UNL     1      -4.985   3.696   6.782  0.00  0.00    -0.322 N 
ATOM     32  H   UNL     1      -4.873   2.744   6.632  0.00  0.00    +0.169 HD
ATOM     33  C   UNL     1      -4.141   4.563   6.196  0.00  0.00    +0.251 A 
ATOM     34  O   UNL     1      -3.248   4.135   5.486  0.00  0.00    -0.268 OA
BRANCH  27  35
ATOM     35  O   UNL     1      -9.075   5.508  10.018  0.00  0.00    -0.495 OA
ATOM     36  C   UNL     1      -9.923   4.514  10.598  0.00  0.00    +0.277 C 
ENDBRANCH  27  35
ENDBRANCH  22  23
ENDBRANCH   1  22
TORSDOF 9
