REMARK  Name = ZINC01610766
REMARK  1 active torsions:
REMARK  status: ('A' for Active; 'I' for Inactive)
REMARK    1  A    between atoms: C_7  and  C_13
REMARK                            x       y       z     vdW  Elec       q    Type
REMARK                         _______ _______ _______ _____ _____    ______ ____
ROOT
ATOM      1  C   UNL     1      -3.719   0.535   3.171  0.00  0.00    +0.183 A 
ATOM      2  N   UNL     1      -3.322  -0.064   2.065  0.00  0.00    -0.148 NA
ATOM      3  N   UNL     1      -2.318   0.360   1.429  0.00  0.00    -0.126 NA
ATOM      4  C   UNL     1      -1.619   1.403   1.841  0.00  0.00    +0.191 A 
ATOM      5  S   UNL     1      -2.494   1.834   3.282  0.00  0.00    -0.038 S 
ATOM      6  N   UNL     1      -0.496   1.998   1.276  0.00  0.00    -0.235 N 
ATOM      7  C   UNL     1       0.035   1.514  -0.013  0.00  0.00    +0.145 C 
ATOM      8  S   UNL     1       1.705   2.296  -0.035  0.00  0.00    -0.128 S 
ATOM      9  C   UNL     1       1.337   3.603   1.217  0.00  0.00    +0.167 C 
ATOM     10  C   UNL     1       0.111   3.005   1.889  0.00  0.00    +0.232 C 
ATOM     11  O   UNL     1      -0.298   3.435   2.947  0.00  0.00    -0.274 OA
ENDROOT
BRANCH   7  12
ATOM     12  C   UNL     1       0.142  -0.012  -0.025  0.00  0.00    +0.024 C 
ATOM     13  C   UNL     1       1.023  -0.476   1.142  0.00  0.00    +0.010 C 
ATOM     14  C   UNL     1       0.968  -2.004   1.213  0.00  0.00    +0.027 C 
ATOM     15  C   UNL     1       1.225  -2.593  -0.143  0.00  0.00    -0.031 C 
ATOM     16  C   UNL     1       1.144  -1.928  -1.251  0.00  0.00    -0.031 C 
ATOM     17  C   UNL     1       0.791  -0.472  -1.333  0.00  0.00    +0.033 C 
ENDBRANCH   7  12
TORSDOF 1
