REMARK  Name = ZINC20702116
REMARK  11 active torsions:
REMARK  status: ('A' for Active; 'I' for Inactive)
REMARK    1  A    between atoms: C_1  and  C_2
REMARK    2  A    between atoms: C_5  and  N_9
REMARK    3  A    between atoms: C_7  and  C_8
REMARK    4  A    between atoms: N_9  and  S_10
REMARK    5  A    between atoms: S_10  and  C_13
REMARK    6  A    between atoms: C_26  and  C_29
REMARK    7  A    between atoms: C_32  and  O_37
REMARK    8  A    between atoms: C_33  and  O_35
REMARK    9  A    between atoms: O_35  and  C_36
REMARK   10  A    between atoms: O_37  and  C_38
REMARK   11  A    between atoms: C_38  and  C_40
REMARK                            x       y       z     vdW  Elec       q    Type
REMARK                         _______ _______ _______ _____ _____    ______ ____
ROOT
ATOM      1  C   UNL     1       0.941   3.324  -0.193  0.00  0.00    +0.109 A 
ATOM      2  C   UNL     1       0.846   1.945  -0.242  0.00  0.00    +0.030 A 
ATOM      3  C   UNL     1      -0.393   1.348  -0.356  0.00  0.00    +0.025 A 
ATOM      4  C   UNL     1      -1.538   2.132  -0.427  0.00  0.00    +0.031 A 
ATOM      5  C   UNL     1      -1.448   3.514  -0.371  0.00  0.00    -0.018 A 
ATOM      6  C   UNL     1      -0.196   4.103  -0.257  0.00  0.00    +0.034 A 
ATOM      7  C   UNL     1      -2.654   4.398  -0.434  0.00  0.00    +0.049 C 
ATOM      8  C   UNL     1      -2.783   5.061  -1.784  0.00  0.00    -0.023 C 
ATOM      9  C   UNL     1      -4.045   5.160  -2.122  0.00  0.00    -0.030 C 
ATOM     10  C   UNL     1      -4.932   4.578  -1.038  0.00  0.00    +0.033 C 
ATOM     11  C   UNL     1      -3.976   3.625  -0.263  0.00  0.00    +0.029 C 
ATOM     12  C   UNL     1      -3.907   2.298  -1.025  0.00  0.00    +0.105 C 
ATOM     13  N   UNL     1      -2.783   1.511  -0.507  0.00  0.00    -0.336 N 
ATOM     14  H   UNL     1      -2.938   0.467  -0.199  0.00  0.00    +0.147 HD
ENDROOT
BRANCH  12  15
ATOM     15  C   UNL     1      -3.703   2.569  -2.493  0.00  0.00    -0.023 A 
ATOM     16  C   UNL     1      -2.423   2.675  -3.004  0.00  0.00    +0.009 A 
ATOM     17  C   UNL     1      -2.231   2.924  -4.350  0.00  0.00    +0.050 A 
ATOM     18  C   UNL     1      -3.323   3.067  -5.191  0.00  0.00    +0.173 A 
ATOM     19  C   UNL     1      -4.612   2.961  -4.677  0.00  0.00    +0.163 A 
ATOM     20  C   UNL     1      -4.797   2.706  -3.327  0.00  0.00    +0.055 A 
BRANCH  19  21
ATOM     21  O   UNL     1      -5.686   3.101  -5.497  0.00  0.00    -0.491 OA
ATOM     22  C   UNL     1      -6.979   2.979  -4.901  0.00  0.00    +0.277 C 
ENDBRANCH  19  21
BRANCH  18  23
ATOM     23  O   UNL     1      -3.135   3.312  -6.515  0.00  0.00    -0.422 OA
BRANCH  23  24
ATOM     24  C   UNL     1      -3.151   4.597  -6.905  0.00  0.00    +0.309 C 
ATOM     25  O   UNL     1      -3.417   5.467  -6.110  0.00  0.00    -0.251 OA
ATOM     26  C   UNL     1      -2.837   4.954  -8.335  0.00  0.00    +0.136 C 
ENDBRANCH  23  24
ENDBRANCH  18  23
ENDBRANCH  12  15
BRANCH   1  27
ATOM     27  S   UNL     1       2.522   4.090  -0.049  0.00  0.00    +0.072 S 
ATOM     28  O   UNL     1       2.291   5.410   0.422  0.00  0.00    -0.150 OA
ATOM     29  O   UNL     1       3.357   3.170   0.640  0.00  0.00    -0.150 OA
BRANCH  27  30
ATOM     30  N   UNL     1       3.138   4.234  -1.579  0.00  0.00    -0.216 N 
ATOM     31  H   UNL     1       3.349   5.230  -1.995  0.00  0.00    +0.174 HD
BRANCH  30  36
ATOM     32  C   UNL     1       4.158  -0.405  -4.676  0.00  0.00    +0.044 C 
ATOM     33  C   UNL     1       3.886   0.828  -3.853  0.00  0.00    -0.047 A 
ATOM     34  C   UNL     1       4.292   0.878  -2.532  0.00  0.00    +0.005 A 
ATOM     35  C   UNL     1       4.050   2.008  -1.776  0.00  0.00    +0.025 A 
ATOM     36  C   UNL     1       3.388   3.091  -2.342  0.00  0.00    +0.048 A 
ATOM     37  C   UNL     1       2.982   3.037  -3.669  0.00  0.00    +0.028 A 
ATOM     38  C   UNL     1       3.232   1.905  -4.420  0.00  0.00    -0.046 A 
ATOM     39  C   UNL     1       2.792   1.846  -5.860  0.00  0.00    +0.044 C 
ENDBRANCH  30  36
ENDBRANCH  27  30
ENDBRANCH   1  27
TORSDOF 7
