REMARK  Name = ZINC06322193
REMARK  10 active torsions:
REMARK  status: ('A' for Active; 'I' for Inactive)
REMARK    1  A    between atoms: C_1  and  C_2
REMARK    2  A    between atoms: C_5  and  C_36
REMARK    3  A    between atoms: C_9  and  C_14
REMARK    4  A    between atoms: C_14  and  C_16
REMARK    5  A    between atoms: C_14  and  N_67
REMARK    6  A    between atoms: N_20  and  C_21
REMARK    7  A    between atoms: C_21  and  C_22
REMARK    8  A    between atoms: C_25  and  O_28
REMARK    9  A    between atoms: O_28  and  C_29
REMARK   10  A    between atoms: C_32  and  C_35
REMARK                            x       y       z     vdW  Elec       q    Type
REMARK                         _______ _______ _______ _____ _____    ______ ____
ROOT
ATOM      1  C   UNL     1       3.630   1.575   4.361  0.00  0.00    +0.039 C 
ENDROOT
BRANCH   1  10
ATOM      2  C   UNL     1       1.263   0.421  -0.132  0.00  0.00    +0.044 C 
ATOM      3  C   UNL     1       0.368   1.378   0.613  0.00  0.00    -0.041 A 
ATOM      4  C   UNL     1      -0.817   1.777   0.063  0.00  0.00    +0.004 A 
ATOM      5  C   UNL     1      -1.650   2.655   0.743  0.00  0.00    +0.005 A 
ATOM      6  C   UNL     1      -1.294   3.148   1.980  0.00  0.00    -0.026 A 
ATOM      7  C   UNL     1      -0.090   2.760   2.556  0.00  0.00    +0.052 A 
ATOM      8  C   UNL     1       0.751   1.866   1.866  0.00  0.00    +0.002 A 
ATOM      9  C   UNL     1       2.017   1.463   2.482  0.00  0.00    +0.018 A 
ATOM     10  C   UNL     1       2.334   1.968   3.700  0.00  0.00    +0.011 A 
ATOM     11  C   UNL     1       1.456   2.862   4.350  0.00  0.00    +0.251 A 
ATOM     12  O   UNL     1       1.761   3.304   5.444  0.00  0.00    -0.268 OA
ATOM     13  N   UNL     1       0.291   3.237   3.793  0.00  0.00    -0.322 N 
ATOM     14  H   UNL     1      -0.289   3.853   4.267  0.00  0.00    +0.169 HD
ATOM     15  C   UNL     1      -2.206   4.105   2.704  0.00  0.00    +0.046 C 
ENDBRANCH   1  10
BRANCH   1  22
ATOM     16  C   UNL     1       2.323  -0.028   5.620  0.00  0.00    -0.077 C 
ATOM     17  C   UNL     1       1.955  -0.480   7.035  0.00  0.00    -0.015 C 
ATOM     18  C   UNL     1       3.206  -1.015   7.737  0.00  0.00    -0.018 C 
ATOM     19  C   UNL     1       4.278   0.078   7.755  0.00  0.00    -0.015 C 
ATOM     20  C   UNL     1       4.579   0.514   6.319  0.00  0.00    -0.077 C 
ATOM     21  C   UNL     1       2.857  -1.412   9.172  0.00  0.00    +0.007 C 
ATOM     22  N   UNL     1       3.340   1.042   5.708  0.00  0.00    +0.389 N 
ATOM     23  H   UNL     1       2.976   1.800   6.296  0.00  0.00    -0.080 HD
ENDBRANCH   1  22
BRANCH   1  24
ATOM     24  C   UNL     1       4.513   2.788   4.498  0.00  0.00    +0.143 A 
ATOM     25  N   UNL     1       4.274   3.851   5.227  0.00  0.00    -0.115 NA
ATOM     26  N   UNL     1       5.263   4.664   5.080  0.00  0.00    -0.023 NA
ATOM     27  N   UNL     1       6.126   4.147   4.277  0.00  0.00    -0.044 NA
ATOM     28  N   UNL     1       5.702   2.988   3.901  0.00  0.00    -0.226 N 
BRANCH  28  29
ATOM     29  C   UNL     1       6.386   2.065   2.992  0.00  0.00    +0.182 C 
BRANCH  29  30
ATOM     30  C   UNL     1       6.066   2.435   1.566  0.00  0.00    -0.026 A 
ATOM     31  C   UNL     1       5.051   1.780   0.894  0.00  0.00    +0.009 A 
ATOM     32  C   UNL     1       4.753   2.121  -0.411  0.00  0.00    +0.046 A 
ATOM     33  C   UNL     1       5.479   3.115  -1.050  0.00  0.00    +0.120 A 
ATOM     34  C   UNL     1       6.501   3.767  -0.375  0.00  0.00    +0.046 A 
ATOM     35  C   UNL     1       6.792   3.426   0.931  0.00  0.00    +0.009 A 
BRANCH  33  36
ATOM     36  O   UNL     1       5.191   3.449  -2.336  0.00  0.00    -0.495 OA
ATOM     37  C   UNL     1       4.126   2.736  -2.968  0.00  0.00    +0.277 C 
ENDBRANCH  33  36
ENDBRANCH  29  30
ENDBRANCH  28  29
ENDBRANCH   1  24
TORSDOF 6
