REMARK  Name = ZINC39482235
REMARK  10 active torsions:
REMARK  status: ('A' for Active; 'I' for Inactive)
REMARK    1  A    between atoms: C_1  and  C_2
REMARK    2  A    between atoms: C_2  and  C_3
REMARK    3  A    between atoms: C_2  and  S_4
REMARK    4  A    between atoms: S_4  and  C_7
REMARK    5  A    between atoms: N_10  and  C_14
REMARK    6  A    between atoms: C_16  and  C_31
REMARK    7  A    between atoms: C_19  and  N_20
REMARK    8  A    between atoms: N_20  and  S_21
REMARK    9  A    between atoms: S_21  and  C_24
REMARK   10  A    between atoms: C_29  and  O_30
REMARK                            x       y       z     vdW  Elec       q    Type
REMARK                         _______ _______ _______ _____ _____    ______ ____
ROOT
ATOM      1  C   UNL     1      -3.026  -5.785   0.076  0.00  0.00    +0.053 A 
ATOM      2  C   UNL     1      -2.116  -6.451  -0.726  0.00  0.00    +0.033 A 
ATOM      3  C   UNL     1      -2.535  -7.529  -1.505  0.00  0.00    -0.016 A 
ATOM      4  C   UNL     1      -3.869  -7.932  -1.474  0.00  0.00    +0.010 A 
ATOM      5  C   UNL     1      -4.774  -7.266  -0.674  0.00  0.00    +0.027 A 
ATOM      6  C   UNL     1      -4.359  -6.196   0.106  0.00  0.00    +0.069 A 
ENDROOT
BRANCH   1   9
ATOM      7  C   UNL     1      -1.277  -2.683   0.554  0.00  0.00    +0.215 C 
ATOM      8  C   UNL     1      -2.649  -3.329   0.334  0.00  0.00    +0.147 C 
ATOM      9  N   UNL     1      -2.609  -4.702   0.860  0.00  0.00    -0.324 N 
ATOM     10  C   UNL     1      -2.119  -4.908   2.231  0.00  0.00    +0.120 C 
ATOM     11  C   UNL     1      -0.768  -4.200   2.377  0.00  0.00    +0.101 C 
ATOM     12  N   UNL     1      -0.908  -2.795   1.972  0.00  0.00    -0.293 NA
ATOM     13  H   UNL     1      -0.066  -2.276   2.168  0.00  0.00    +0.124 HD
BRANCH   7  14
ATOM     14  S   UNL     1      -1.350  -0.933   0.084  0.00  0.00    -0.012 S 
ATOM     15  O   UNL     1      -2.137  -0.242   1.043  0.00  0.00    -0.173 OA
ATOM     16  O   UNL     1      -1.705  -0.851  -1.290  0.00  0.00    -0.173 OA
BRANCH  14  18
ATOM     17  C   UNL     1       1.258  -1.190  -0.702  0.00  0.00    +0.031 C 
ATOM     18  C   UNL     1       0.374  -0.398   0.264  0.00  0.00    +0.126 C 
ATOM     19  C   UNL     1       0.481   1.095  -0.056  0.00  0.00    +0.031 C 
ENDBRANCH  14  18
ENDBRANCH   7  14
ENDBRANCH   1   9
BRANCH   3  20
ATOM     20  C   UNL     1      -1.562  -8.245  -2.365  0.00  0.00    -0.018 A 
ATOM     21  C   UNL     1      -0.227  -7.847  -2.393  0.00  0.00    +0.008 A 
ATOM     22  C   UNL     1       0.674  -8.517  -3.196  0.00  0.00    +0.001 A 
ATOM     23  C   UNL     1       0.253  -9.582  -3.972  0.00  0.00    +0.000 A 
ATOM     24  C   UNL     1      -1.071  -9.982  -3.949  0.00  0.00    +0.001 A 
ATOM     25  C   UNL     1      -1.979  -9.323  -3.145  0.00  0.00    +0.008 A 
ENDBRANCH   3  20
BRANCH   6  26
ATOM     26  N   UNL     1      -5.279  -5.527   0.920  0.00  0.00    -0.214 N 
ATOM     27  H   UNL     1      -5.202  -4.569   1.053  0.00  0.00    +0.174 HD
BRANCH  26  28
ATOM     28  S   UNL     1      -6.500  -6.369   1.657  0.00  0.00    +0.076 S 
ATOM     29  O   UNL     1      -5.909  -7.534   2.216  0.00  0.00    -0.150 OA
ATOM     30  O   UNL     1      -7.224  -5.431   2.441  0.00  0.00    -0.150 OA
BRANCH  28  31
ATOM     31  C   UNL     1      -7.594  -6.918   0.389  0.00  0.00    +0.150 A 
ATOM     32  C   UNL     1      -7.765  -8.269   0.161  0.00  0.00    +0.032 A 
ATOM     33  C   UNL     1      -8.622  -8.700  -0.834  0.00  0.00    +0.002 A 
ATOM     34  C   UNL     1      -9.312  -7.780  -1.603  0.00  0.00    +0.004 A 
ATOM     35  C   UNL     1      -9.144  -6.428  -1.378  0.00  0.00    +0.047 A 
ATOM     36  C   UNL     1      -8.288  -5.993  -0.376  0.00  0.00    +0.143 A 
BRANCH  36  37
ATOM     37  O   UNL     1      -8.126  -4.662  -0.149  0.00  0.00    -0.505 OA
ATOM     38  H   UNL     1      -7.468  -4.244  -0.720  0.00  0.00    +0.292 HD
ENDBRANCH  36  37
ENDBRANCH  28  31
ENDBRANCH  26  28
ENDBRANCH   6  26
TORSDOF 8
