REMARK  Name = ZINC12679743
REMARK  10 active torsions:
REMARK  status: ('A' for Active; 'I' for Inactive)
REMARK    1  A    between atoms: C_1  and  C_2
REMARK    2  A    between atoms: C_2  and  O_3
REMARK    3  A    between atoms: O_3  and  C_4
REMARK    4  A    between atoms: C_4  and  C_6
REMARK    5  A    between atoms: C_7  and  C_15
REMARK    6  A    between atoms: C_12  and  C_14
REMARK    7  A    between atoms: C_15  and  S_16
REMARK    8  A    between atoms: S_16  and  C_17
REMARK    9  A    between atoms: C_21  and  C_24
REMARK   10  A    between atoms: N_32  and  N_33
REMARK                            x       y       z     vdW  Elec       q    Type
REMARK                         _______ _______ _______ _____ _____    ______ ____
ROOT
ATOM      1  C   UNL     1       5.093   5.034  -2.463  0.00  0.00    +0.190 A 
ATOM      2  N   UNL     1       5.924   4.779  -1.473  0.00  0.00    -0.215 NA
ATOM      3  C   UNL     1       5.676   3.801  -0.609  0.00  0.00    +0.117 A 
ATOM      4  C   UNL     1       4.530   2.993  -0.707  0.00  0.00    +0.081 A 
ATOM      5  C   UNL     1       4.407   1.968   0.325  0.00  0.00    +0.004 A 
ATOM      6  C   UNL     1       5.379   1.868   1.262  0.00  0.00    +0.056 A 
ATOM      7  S   UNL     1       6.521   3.161   0.814  0.00  0.00    -0.076 S 
ATOM      8  C   UNL     1       3.644   3.296  -1.787  0.00  0.00    +0.280 A 
ATOM      9  O   UNL     1       2.623   2.651  -1.947  0.00  0.00    -0.265 OA
ATOM     10  N   UNL     1       3.954   4.301  -2.627  0.00  0.00    -0.209 N 
ENDROOT
BRANCH   5  11
ATOM     11  C   UNL     1       3.244   1.049   0.343  0.00  0.00    -0.017 A 
ATOM     12  C   UNL     1       1.949   1.559   0.261  0.00  0.00    +0.008 A 
ATOM     13  C   UNL     1       0.870   0.699   0.278  0.00  0.00    +0.001 A 
ATOM     14  C   UNL     1       1.072  -0.666   0.376  0.00  0.00    +0.000 A 
ATOM     15  C   UNL     1       2.354  -1.178   0.457  0.00  0.00    +0.001 A 
ATOM     16  C   UNL     1       3.441  -0.327   0.441  0.00  0.00    +0.008 A 
ENDBRANCH   5  11
BRANCH  10  17
ATOM     17  N   UNL     1       3.113   4.591  -3.664  0.00  0.00    -0.293 N 
ATOM     18  H   UNL     1       3.467   5.361  -4.211  0.00  0.00    +0.163 HD
ATOM     19  H   UNL     1       2.958   3.778  -4.242  0.00  0.00    +0.163 HD
ENDBRANCH  10  17
BRANCH   1  20
ATOM     20  S   UNL     1       5.457   6.340  -3.588  0.00  0.00    -0.080 S 
BRANCH  20  21
ATOM     21  C   UNL     1       7.023   6.925  -2.896  0.00  0.00    +0.128 C 
BRANCH  21  23
ATOM     22  C   UNL     1       7.436   9.335  -3.243  0.00  0.00    +0.074 C 
ATOM     23  C   UNL     1       7.538   8.076  -3.721  0.00  0.00    +0.034 C 
ATOM     24  N   UNL     1       8.107   7.828  -4.938  0.00  0.00    -0.272 N 
ATOM     25  C   UNL     1       8.587   8.785  -5.742  0.00  0.00    +0.304 C 
ATOM     26  O   UNL     1       9.071   8.467  -6.811  0.00  0.00    -0.253 OA
ATOM     27  N   UNL     1       8.556  10.089  -5.402  0.00  0.00    -0.292 N 
ATOM     28  C   UNL     1       7.967  10.462  -4.105  0.00  0.00    +0.110 C 
ATOM     29  C   UNL     1       9.033  11.209  -3.301  0.00  0.00    +0.033 C 
ATOM     30  H   UNL     1       8.163   6.907  -5.238  0.00  0.00    +0.156 HD
ATOM     31  H   UNL     1       8.913  10.766  -5.998  0.00  0.00    +0.151 HD
BRANCH  22  32
ATOM     32  C   UNL     1       6.852   9.592  -1.981  0.00  0.00    +0.338 C 
ATOM     33  O   UNL     1       5.705   9.993  -1.912  0.00  0.00    -0.245 OA
BRANCH  32  34
ATOM     34  O   UNL     1       7.566   9.394  -0.854  0.00  0.00    -0.462 OA
BRANCH  34  36
ATOM     35  C   UNL     1       7.874   9.393   1.544  0.00  0.00    +0.048 C 
ATOM     36  C   UNL     1       6.913   9.675   0.386  0.00  0.00    +0.229 C 
ENDBRANCH  34  36
ENDBRANCH  32  34
ENDBRANCH  22  32
ENDBRANCH  21  23
ENDBRANCH  20  21
ENDBRANCH   1  20
TORSDOF 8
