REMARK  Name = ZINC50649929
REMARK  6 active torsions:
REMARK  status: ('A' for Active; 'I' for Inactive)
REMARK    1  A    between atoms: C_1  and  C_2
REMARK    2  A    between atoms: C_7  and  N_8
REMARK    3  A    between atoms: N_8  and  S_9
REMARK    4  A    between atoms: S_9  and  C_12
REMARK    5  A    between atoms: C_17  and  N_18
REMARK    6  A    between atoms: N_18  and  C_19
REMARK                            x       y       z     vdW  Elec       q    Type
REMARK                         _______ _______ _______ _____ _____    ______ ____
ROOT
ATOM      1  S   UNL     1       0.766  -0.679   3.754  0.00  0.00    +0.076 S 
ATOM      2  O   UNL     1       0.543   0.095   4.925  0.00  0.00    -0.150 OA
ATOM      3  O   UNL     1       0.365  -2.038   3.651  0.00  0.00    -0.150 OA
ENDROOT
BRANCH   1   4
ATOM      4  C   UNL     1       2.501  -0.641   3.449  0.00  0.00    +0.149 A 
ATOM      5  C   UNL     1       3.198  -1.814   3.220  0.00  0.00    +0.049 A 
ATOM      6  C   UNL     1       4.565  -1.737   2.984  0.00  0.00    +0.038 A 
ATOM      7  C   UNL     1       5.183  -0.501   2.984  0.00  0.00    +0.128 A 
ATOM      8  N   UNL     1       4.492   0.601   3.206  0.00  0.00    -0.237 NA
ATOM      9  C   UNL     1       3.187   0.569   3.429  0.00  0.00    +0.145 A 
ATOM     10 BR   UNL     1       5.570  -3.307   2.666  0.00  0.00    -0.049 Br
BRANCH   9  11
ATOM     11  N   UNL     1       2.497   1.756   3.651  0.00  0.00    -0.331 N 
ATOM     12  C   UNL     1       3.228   3.021   3.746  0.00  0.00    +0.127 C 
ATOM     13  H   UNL     1       1.531   1.745   3.742  0.00  0.00    +0.147 HD
ENDBRANCH   9  11
ENDBRANCH   1   4
BRANCH   1  14
ATOM     14  N   UNL     1       0.032   0.126   2.507  0.00  0.00    -0.216 N 
ATOM     15  H   UNL     1      -0.506   0.913   2.688  0.00  0.00    +0.174 HD
BRANCH  14  22
ATOM     16  C   UNL     1       0.174   2.061   0.426  0.00  0.00    +0.046 C 
ATOM     17  C   UNL     1       0.261   0.582   0.148  0.00  0.00    -0.028 A 
ATOM     18  C   UNL     1       0.419   0.130  -1.147  0.00  0.00    +0.005 A 
ATOM     19  C   UNL     1       0.498  -1.227  -1.403  0.00  0.00    +0.000 A 
ATOM     20  C   UNL     1       0.419  -2.135  -0.363  0.00  0.00    +0.002 A 
ATOM     21  C   UNL     1       0.261  -1.690   0.934  0.00  0.00    +0.025 A 
ATOM     22  C   UNL     1       0.186  -0.328   1.195  0.00  0.00    +0.051 A 
ENDBRANCH  14  22
ENDBRANCH   1  14
TORSDOF 4
