REMARK  Name = ZINC12899878
REMARK  11 active torsions:
REMARK  status: ('A' for Active; 'I' for Inactive)
REMARK    1  A    between atoms: C_1  and  C_2
REMARK    2  A    between atoms: C_2  and  O_3
REMARK    3  A    between atoms: O_3  and  C_4
REMARK    4  A    between atoms: C_10  and  C_30
REMARK    5  A    between atoms: C_12  and  C_28
REMARK    6  A    between atoms: C_12  and  C_29
REMARK    7  A    between atoms: C_14  and  C_16
REMARK    8  A    between atoms: C_16  and  N_17
REMARK    9  A    between atoms: C_23  and  C_25
REMARK   10  A    between atoms: C_25  and  C_26
REMARK   11  A    between atoms: C_25  and  C_27
REMARK                            x       y       z     vdW  Elec       q    Type
REMARK                         _______ _______ _______ _____ _____    ______ ____
ROOT
ATOM      1  C   UNL     1       1.625  -1.744  -1.141  0.00  0.00    +0.121 A 
ATOM      2  C   UNL     1       2.414  -2.860  -1.391  0.00  0.00    +0.047 A 
ATOM      3  C   UNL     1       1.919  -4.132  -1.168  0.00  0.00    +0.028 A 
ATOM      4  C   UNL     1       0.631  -4.293  -0.694  0.00  0.00    +0.045 A 
ATOM      5  C   UNL     1      -0.173  -3.170  -0.441  0.00  0.00    +0.003 A 
ATOM      6  C   UNL     1       0.334  -1.894  -0.661  0.00  0.00    +0.055 A 
ATOM      7  C   UNL     1      -1.547  -3.380   0.056  0.00  0.00    -0.043 C 
ATOM      8  C   UNL     1      -1.897  -4.562   0.545  0.00  0.00    +0.002 C 
ATOM      9  C   UNL     1      -0.910  -5.697   0.619  0.00  0.00    +0.055 C 
ATOM     10  N   UNL     1       0.090  -5.562  -0.448  0.00  0.00    -0.261 N 
ATOM     11  C   UNL     1       0.478  -6.630  -1.172  0.00  0.00    +0.235 C 
ATOM     12  O   UNL     1      -0.051  -7.707  -0.994  0.00  0.00    -0.274 OA
ATOM     13  C   UNL     1      -0.210  -5.673   1.979  0.00  0.00    +0.036 C 
ATOM     14  C   UNL     1      -1.651  -7.026   0.455  0.00  0.00    +0.036 C 
ATOM     15  C   UNL     1      -2.549  -2.255   0.008  0.00  0.00    +0.044 C 
ENDROOT
BRANCH   1  16
ATOM     16  O   UNL     1       2.125  -0.499  -1.362  0.00  0.00    -0.492 OA
BRANCH  16  18
ATOM     17  C   UNL     1       3.847   1.054  -2.042  0.00  0.00    +0.048 C 
ATOM     18  C   UNL     1       3.463  -0.415  -1.857  0.00  0.00    +0.225 C 
ENDBRANCH  16  18
ENDBRANCH   1  16
BRANCH  11  19
ATOM     19  C   UNL     1       1.568  -6.487  -2.202  0.00  0.00    +0.181 C 
BRANCH  19  20
ATOM     20  N   UNL     1       1.627  -7.703  -3.024  0.00  0.00    -0.291 NA
ATOM     21  C   UNL     1       2.044  -8.861  -2.223  0.00  0.00    +0.104 C 
ATOM     22  C   UNL     1       1.919 -10.134  -3.067  0.00  0.00    +0.123 C 
ATOM     23  N   UNL     1       2.669  -9.941  -4.317  0.00  0.00    -0.299 N 
ATOM     24  C   UNL     1       2.404  -8.730  -5.108  0.00  0.00    +0.123 C 
ATOM     25  C   UNL     1       2.510  -7.512  -4.183  0.00  0.00    +0.104 C 
ATOM     26  C   UNL     1       3.575 -10.851  -4.727  0.00  0.00    +0.218 C 
ATOM     27  O   UNL     1       3.835 -11.807  -4.027  0.00  0.00    -0.275 OA
BRANCH  26  28
ATOM     28  C   UNL     1       4.266 -10.680  -6.056  0.00  0.00    +0.069 C 
ATOM     29  C   UNL     1       5.463 -11.629  -6.134  0.00  0.00    +0.017 C 
ATOM     30  C   UNL     1       3.285 -11.001  -7.186  0.00  0.00    +0.017 C 
ENDBRANCH  26  28
ENDBRANCH  19  20
ENDBRANCH  11  19
TORSDOF 5
