REMARK  Name = ZINC62264690
REMARK  9 active torsions:
REMARK  status: ('A' for Active; 'I' for Inactive)
REMARK    1  A    between atoms: C_1  and  C_2
REMARK    2  A    between atoms: C_5  and  C_8
REMARK    3  A    between atoms: C_8  and  C_10
REMARK    4  A    between atoms: C_8  and  C_16
REMARK    5  A    between atoms: C_24  and  C_26
REMARK    6  A    between atoms: C_26  and  C_27
REMARK    7  A    between atoms: C_27  and  N_28
REMARK    8  A    between atoms: N_28  and  C_29
REMARK    9  A    between atoms: N_28  and  C_30
REMARK                            x       y       z     vdW  Elec       q    Type
REMARK                         _______ _______ _______ _____ _____    ______ ____
ROOT
ATOM      1  C   UNL     1      -1.299  -4.577   0.588  0.00  0.00    +0.223 C 
ATOM      2  O   UNL     1      -2.091  -3.680   0.784  0.00  0.00    -0.275 OA
ATOM      3  N   UNL     1      -1.626  -5.846   0.904  0.00  0.00    -0.298 N 
ATOM      4  C   UNL     1      -0.639  -6.927   0.776  0.00  0.00    +0.127 C 
ATOM      5  C   UNL     1      -0.519  -7.644   2.126  0.00  0.00    +0.126 C 
ATOM      6  N   UNL     1      -1.869  -7.971   2.605  0.00  0.00    -0.299 N 
ATOM      7  C   UNL     1      -2.857  -6.891   2.734  0.00  0.00    +0.126 C 
ATOM      8  C   UNL     1      -2.975  -6.172   1.389  0.00  0.00    +0.127 C 
ATOM      9  C   UNL     1      -2.196  -9.240   2.921  0.00  0.00    +0.214 C 
ATOM     10  O   UNL     1      -1.373 -10.124   2.811  0.00  0.00    -0.276 OA
ENDROOT
BRANCH   1  11
ATOM     11  C   UNL     1       0.051  -4.274  -0.009  0.00  0.00    +0.108 C 
BRANCH  11  16
ATOM     12  C   UNL     1      -0.087  -5.290  -5.695  0.00  0.00    +0.044 C 
ATOM     13  C   UNL     1      -0.051  -5.025  -4.212  0.00  0.00    -0.050 A 
ATOM     14  C   UNL     1       0.835  -5.717  -3.408  0.00  0.00    +0.003 A 
ATOM     15  C   UNL     1       0.868  -5.474  -2.047  0.00  0.00    +0.004 A 
ATOM     16  C   UNL     1       0.016  -4.538  -1.492  0.00  0.00    -0.035 A 
ATOM     17  C   UNL     1      -0.869  -3.845  -2.296  0.00  0.00    +0.004 A 
ATOM     18  C   UNL     1      -0.899  -4.085  -3.658  0.00  0.00    +0.003 A 
ENDBRANCH  11  16
BRANCH  11  19
ATOM     19  C   UNL     1       0.399  -2.804   0.239  0.00  0.00    +0.005 C 
ATOM     20  C   UNL     1       1.711  -2.465  -0.471  0.00  0.00    +0.004 C 
ATOM     21  C   UNL     1       2.060  -0.996  -0.223  0.00  0.00    +0.000 C 
ATOM     22  C   UNL     1       2.216  -0.755   1.280  0.00  0.00    +0.000 C 
ATOM     23  C   UNL     1       0.904  -1.095   1.990  0.00  0.00    +0.000 C 
ATOM     24  C   UNL     1       0.556  -2.564   1.742  0.00  0.00    +0.004 C 
ENDBRANCH  11  19
ENDBRANCH   1  11
BRANCH   9  25
ATOM     25  C   UNL     1      -3.585  -9.561   3.411  0.00  0.00    +0.077 C 
BRANCH  25  26
ATOM     26  C   UNL     1      -3.692 -11.060   3.697  0.00  0.00    -0.070 C 
BRANCH  26  27
ATOM     27  N   UNL     1      -5.045 -11.372   4.174  0.00  0.00    +0.376 N 
ATOM     28  C   UNL     1      -6.016 -11.111   3.103  0.00  0.00    -0.097 C 
ATOM     29  C   UNL     1      -5.114 -12.788   4.561  0.00  0.00    -0.097 C 
ATOM     30  H   UNL     1      -5.262 -10.794   4.973  0.00  0.00    -0.083 HD
ENDBRANCH  26  27
ENDBRANCH  25  26
ENDBRANCH   9  25
TORSDOF 6
