REMARK  Name = ZINC19655471
REMARK  8 active torsions:
REMARK  status: ('A' for Active; 'I' for Inactive)
REMARK    1  A    between atoms: C_1  and  N_2
REMARK    2  A    between atoms: N_2  and  C_3
REMARK    3  A    between atoms: N_2  and  C_4
REMARK    4  A    between atoms: C_4  and  C_6
REMARK    5  A    between atoms: C_4  and  C_23
REMARK    6  A    between atoms: C_6  and  N_7
REMARK    7  A    between atoms: C_8  and  C_10
REMARK    8  A    between atoms: C_10  and  N_11
REMARK                            x       y       z     vdW  Elec       q    Type
REMARK                         _______ _______ _______ _____ _____    ______ ____
ROOT
ATOM      1  N   UNL     1      -0.298  -0.684  -0.690  0.00  0.00    -0.315 N 
ATOM      2  C   UNL     1       1.031  -0.796  -0.886  0.00  0.00    +0.231 C 
ATOM      3  O   UNL     1       1.743   0.180  -0.787  0.00  0.00    -0.274 OA
ATOM      4  H   UNL     1      -0.944  -1.570  -0.776  0.00  0.00    +0.149 HD
ENDROOT
BRANCH   1   5
ATOM      5  C   UNL     1      -0.882   0.619  -0.363  0.00  0.00    +0.093 C 
BRANCH   5   6
ATOM      6  C   UNL     1      -2.407   0.497  -0.313  0.00  0.00    -0.021 C 
BRANCH   6   7
ATOM      7  C   UNL     1      -3.002   1.812   0.118  0.00  0.00    -0.058 A 
ATOM      8  C   UNL     1      -4.064   2.353  -0.583  0.00  0.00    +0.002 A 
ATOM      9  C   UNL     1      -4.612   3.558  -0.188  0.00  0.00    +0.002 A 
ATOM     10  C   UNL     1      -4.098   4.225   0.909  0.00  0.00    +0.020 A 
ATOM     11  C   UNL     1      -3.035   3.685   1.611  0.00  0.00    +0.041 A 
ATOM     12  C   UNL     1      -2.491   2.475   1.218  0.00  0.00    +0.022 A 
ATOM     13 CL   UNL     1      -2.389   4.521   2.988  0.00  0.00    -0.084 Cl
ENDBRANCH   6   7
BRANCH   6  15
ATOM     14  C   UNL     1      -2.454  -0.146   2.021  0.00  0.00    -0.096 C 
ATOM     15  N   UNL     1      -2.782  -0.549   0.647  0.00  0.00    +0.382 N 
ATOM     16  C   UNL     1      -4.206  -0.890   0.525  0.00  0.00    -0.096 C 
ATOM     17  H   UNL     1      -2.198  -1.451   0.411  0.00  0.00    -0.082 HD
ENDBRANCH   6  15
ENDBRANCH   5   6
ENDBRANCH   1   5
BRANCH   2  18
ATOM     18  C   UNL     1       1.631  -2.135  -1.229  0.00  0.00    +0.209 C 
BRANCH  18  19
ATOM     19  N   UNL     1       3.080  -1.994  -1.391  0.00  0.00    -0.256 N 
ATOM     20  C   UNL     1       3.631  -1.699  -2.646  0.00  0.00    +0.080 A 
ATOM     21  C   UNL     1       2.833  -1.227  -3.676  0.00  0.00    +0.027 A 
ATOM     22  C   UNL     1       3.395  -0.943  -4.907  0.00  0.00    +0.003 A 
ATOM     23  C   UNL     1       4.750  -1.129  -5.113  0.00  0.00    +0.024 A 
ATOM     24  C   UNL     1       5.551  -1.588  -4.087  0.00  0.00    +0.084 A 
ATOM     25  C   UNL     1       4.995  -1.880  -2.853  0.00  0.00    +0.161 A 
ATOM     26  O   UNL     1       5.769  -2.349  -1.837  0.00  0.00    -0.479 OA
ATOM     27  C   UNL     1       5.392  -1.965  -0.512  0.00  0.00    +0.325 C 
ATOM     28  C   UNL     1       3.906  -2.151  -0.334  0.00  0.00    +0.258 C 
ATOM     29  O   UNL     1       3.455  -2.441   0.754  0.00  0.00    -0.271 OA
ATOM     30 CL   UNL     1       7.251  -1.819  -4.353  0.00  0.00    -0.080 Cl
ENDBRANCH  18  19
ENDBRANCH   2  18
TORSDOF 6
