REMARK  Name = ZINC08871902
REMARK  12 active torsions:
REMARK  status: ('A' for Active; 'I' for Inactive)
REMARK    1  A    between atoms: C_1  and  C_2
REMARK    2  A    between atoms: C_5  and  S_8
REMARK    3  A    between atoms: S_8  and  N_11
REMARK    4  A    between atoms: N_11  and  C_12
REMARK    5  A    between atoms: C_15  and  O_37
REMARK    6  A    between atoms: C_16  and  C_18
REMARK    7  A    between atoms: C_18  and  C_19
REMARK    8  A    between atoms: C_18  and  C_28
REMARK    9  A    between atoms: C_19  and  C_21
REMARK   10  A    between atoms: C_19  and  O_27
REMARK   11  A    between atoms: C_28  and  C_30
REMARK   12  A    between atoms: C_28  and  O_36
REMARK                            x       y       z     vdW  Elec       q    Type
REMARK                         _______ _______ _______ _____ _____    ______ ____
ROOT
ATOM      1  C   UNL     1       1.020   2.171  -0.259  0.00  0.00    +0.049 A 
ATOM      2  C   UNL     1       0.744   0.859  -0.623  0.00  0.00    +0.028 A 
ATOM      3  C   UNL     1      -0.562   0.461  -0.829  0.00  0.00    +0.047 A 
ATOM      4  C   UNL     1      -1.598   1.371  -0.678  0.00  0.00    +0.121 A 
ATOM      5  C   UNL     1      -1.323   2.680  -0.310  0.00  0.00    +0.004 A 
ATOM      6  C   UNL     1      -0.018   3.080  -0.103  0.00  0.00    +0.032 A 
ENDROOT
BRANCH   1   7
ATOM      7  N   UNL     1       2.343   2.575  -0.050  0.00  0.00    -0.216 N 
ATOM      8  H   UNL     1       2.569   3.115   0.724  0.00  0.00    +0.174 HD
BRANCH   7   9
ATOM      9  S   UNL     1       3.524   2.134  -1.124  0.00  0.00    +0.072 S 
ATOM     10  O   UNL     1       4.735   2.712  -0.657  0.00  0.00    -0.150 OA
ATOM     11  O   UNL     1       3.379   0.736  -1.334  0.00  0.00    -0.150 OA
BRANCH   9  16
ATOM     12  C   UNL     1       2.247   4.809  -6.379  0.00  0.00    +0.044 C 
ATOM     13  C   UNL     1       2.566   4.141  -5.067  0.00  0.00    -0.050 A 
ATOM     14  C   UNL     1       3.364   4.785  -4.139  0.00  0.00    +0.005 A 
ATOM     15  C   UNL     1       3.656   4.172  -2.935  0.00  0.00    +0.029 A 
ATOM     16  C   UNL     1       3.151   2.915  -2.659  0.00  0.00    +0.109 A 
ATOM     17  C   UNL     1       2.357   2.269  -3.588  0.00  0.00    +0.029 A 
ATOM     18  C   UNL     1       2.061   2.884  -4.790  0.00  0.00    +0.005 A 
ENDBRANCH   9  16
ENDBRANCH   7   9
ENDBRANCH   1   7
BRANCH   4  19
ATOM     19  O   UNL     1      -2.883   0.979  -0.887  0.00  0.00    -0.506 OA
ATOM     20  H   UNL     1      -3.326   0.644  -0.096  0.00  0.00    +0.292 HD
ENDBRANCH   4  19
BRANCH   5  21
ATOM     21  C   UNL     1      -2.450   3.667  -0.142  0.00  0.00    +0.089 C 
BRANCH  21  22
ATOM     22  C   UNL     1      -2.449   4.201   1.292  0.00  0.00    +0.155 C 
BRANCH  22  23
ATOM     23  C   UNL     1      -2.502   3.046   2.259  0.00  0.00    -0.018 A 
ATOM     24  C   UNL     1      -3.708   2.431   2.535  0.00  0.00    +0.006 A 
ATOM     25  C   UNL     1      -3.756   1.368   3.419  0.00  0.00    +0.000 A 
ATOM     26  C   UNL     1      -2.598   0.927   4.032  0.00  0.00    +0.000 A 
ATOM     27  C   UNL     1      -1.392   1.546   3.759  0.00  0.00    +0.000 A 
ATOM     28  C   UNL     1      -1.344   2.605   2.873  0.00  0.00    +0.006 A 
ENDBRANCH  22  23
BRANCH  22  29
ATOM     29  O   UNL     1      -3.590   5.038   1.488  0.00  0.00    -0.386 OA
ATOM     30  H   UNL     1      -4.436   4.590   1.351  0.00  0.00    +0.210 HD
ENDBRANCH  22  29
ENDBRANCH  21  22
BRANCH  21  31
ATOM     31  C   UNL     1      -2.260   4.829  -1.119  0.00  0.00    +0.155 C 
BRANCH  31  32
ATOM     32  C   UNL     1      -3.460   5.738  -1.057  0.00  0.00    -0.018 A 
ATOM     33  C   UNL     1      -4.637   5.372  -1.683  0.00  0.00    +0.006 A 
ATOM     34  C   UNL     1      -5.739   6.204  -1.622  0.00  0.00    +0.000 A 
ATOM     35  C   UNL     1      -5.661   7.407  -0.944  0.00  0.00    +0.000 A 
ATOM     36  C   UNL     1      -4.483   7.775  -0.323  0.00  0.00    +0.000 A 
ATOM     37  C   UNL     1      -3.382   6.940  -0.380  0.00  0.00    +0.006 A 
ENDBRANCH  31  32
BRANCH  31  38
ATOM     38  O   UNL     1      -2.118   4.317  -2.445  0.00  0.00    -0.386 OA
ATOM     39  H   UNL     1      -2.879   3.806  -2.754  0.00  0.00    +0.210 HD
ENDBRANCH  31  38
ENDBRANCH  21  31
ENDBRANCH   5  21
TORSDOF 11
