REMARK  Name = ZINC38914864
REMARK  12 active torsions:
REMARK  status: ('A' for Active; 'I' for Inactive)
REMARK    1  A    between atoms: C_1  and  C_2
REMARK    2  A    between atoms: C_2  and  O_3
REMARK    3  A    between atoms: O_3  and  C_4
REMARK    4  A    between atoms: C_4  and  C_6
REMARK    5  A    between atoms: C_7  and  C_38
REMARK    6  A    between atoms: N_11  and  C_12
REMARK    7  A    between atoms: C_12  and  C_14
REMARK    8  A    between atoms: C_14  and  S_15
REMARK    9  A    between atoms: S_15  and  C_16
REMARK   10  A    between atoms: C_23  and  C_27
REMARK   11  A    between atoms: C_24  and  C_26
REMARK   12  A    between atoms: N_30  and  C_31
REMARK                            x       y       z     vdW  Elec       q    Type
REMARK                         _______ _______ _______ _____ _____    ______ ____
ROOT
ATOM      1  C   UNL     1     -11.373  -0.567   0.055  0.00  0.00    +0.210 C 
ATOM      2  N   UNL     1     -11.794  -1.287  -1.150  0.00  0.00    -0.277 NA
ATOM      3  C   UNL     1     -12.556  -2.482  -0.821  0.00  0.00    +0.135 C 
ATOM      4  C   UNL     1     -13.670  -2.005   0.163  0.00  0.00    +0.129 C 
ATOM      5  C   UNL     1     -14.872  -2.835   0.051  0.00  0.00    -0.049 C 
ATOM      6  C   UNL     1     -15.090  -3.458  -1.112  0.00  0.00    -0.016 C 
ATOM      7  S   UNL     1     -13.661  -3.052  -2.167  0.00  0.00    -0.110 S 
ATOM      8  C   UNL     1     -16.274  -4.316  -1.477  0.00  0.00    +0.051 C 
ATOM      9  C   UNL     1     -15.829  -2.983   1.206  0.00  0.00    +0.041 C 
ATOM     10  C   UNL     1     -12.982  -1.793   1.468  0.00  0.00    +0.231 C 
ATOM     11  O   UNL     1     -13.431  -2.152   2.536  0.00  0.00    -0.274 OA
ATOM     12  N   UNL     1     -11.782  -1.150   1.322  0.00  0.00    -0.246 N 
ATOM     13  H   UNL     1     -12.317  -0.684  -1.768  0.00  0.00    +0.126 HD
ENDROOT
BRANCH  12  14
ATOM     14  C   UNL     1     -10.928  -1.049   2.426  0.00  0.00    +0.039 A 
ATOM     15  C   UNL     1     -10.563   0.200   2.911  0.00  0.00    +0.023 A 
ATOM     16  C   UNL     1      -9.720   0.297   4.001  0.00  0.00    +0.002 A 
ATOM     17  C   UNL     1      -9.239  -0.848   4.608  0.00  0.00    +0.000 A 
ATOM     18  C   UNL     1      -9.599  -2.093   4.127  0.00  0.00    +0.002 A 
ATOM     19  C   UNL     1     -10.447  -2.197   3.042  0.00  0.00    +0.023 A 
ENDBRANCH  12  14
BRANCH   1  20
ATOM     20  S   UNL     1      -9.562  -0.455   0.042  0.00  0.00    -0.113 S 
BRANCH  20  21
ATOM     21  C   UNL     1      -9.016  -2.183   0.132  0.00  0.00    +0.170 C 
BRANCH  21  22
ATOM     22  C   UNL     1      -7.510  -2.234   0.129  0.00  0.00    +0.248 C 
ATOM     23  O   UNL     1      -6.866  -1.203   0.072  0.00  0.00    -0.273 OA
BRANCH  22  29
ATOM     24  C   UNL     1      -2.948  -3.102   0.160  0.00  0.00    +0.118 A 
ATOM     25  C   UNL     1      -3.410  -4.379   0.229  0.00  0.00    +0.036 A 
ATOM     26  N   UNL     1      -4.744  -4.546   0.242  0.00  0.00    -0.339 N 
ATOM     27  H   UNL     1      -5.127  -5.436   0.291  0.00  0.00    +0.167 HD
ATOM     28  C   UNL     1      -5.553  -3.449   0.187  0.00  0.00    +0.164 A 
ATOM     29  N   UNL     1      -6.885  -3.404   0.189  0.00  0.00    -0.156 NA
ATOM     30  S   UNL     1      -4.466  -2.167   0.123  0.00  0.00    -0.046 S 
ATOM     31  C   UNL     1      -2.469  -5.555   0.288  0.00  0.00    +0.065 C 
BRANCH  24  32
ATOM     32  C   UNL     1      -1.564  -2.619   0.130  0.00  0.00    +0.348 C 
ATOM     33  O   UNL     1      -0.643  -3.413   0.164  0.00  0.00    -0.244 OA
BRANCH  32  34
ATOM     34  O   UNL     1      -1.313  -1.296   0.066  0.00  0.00    -0.461 OA
BRANCH  34  36
ATOM     35  C   UNL     1       0.145   0.629  -0.034  0.00  0.00    +0.048 C 
ATOM     36  C   UNL     1       0.059  -0.897   0.040  0.00  0.00    +0.229 C 
ENDBRANCH  34  36
ENDBRANCH  32  34
ENDBRANCH  24  32
ENDBRANCH  22  29
ENDBRANCH  21  22
ENDBRANCH  20  21
ENDBRANCH   1  20
TORSDOF 8
