REMARK  Name = ZINC01019598
REMARK  6 active torsions:
REMARK  status: ('A' for Active; 'I' for Inactive)
REMARK    1  A    between atoms: C_1  and  C_2
REMARK    2  A    between atoms: C_2  and  O_3
REMARK    3  A    between atoms: O_3  and  C_4
REMARK    4  A    between atoms: C_4  and  C_6
REMARK    5  A    between atoms: C_7  and  C_28
REMARK    6  A    between atoms: C_18  and  C_20
REMARK                            x       y       z     vdW  Elec       q    Type
REMARK                         _______ _______ _______ _____ _____    ______ ____
ROOT
ATOM      1  C   UNL     1      -0.720   1.570   1.244  0.00  0.00    +0.080 C 
ATOM      2  C   UNL     1      -0.235   2.536   2.038  0.00  0.00    +0.020 C 
ATOM      3  N   UNL     1       0.963   3.157   1.790  0.00  0.00    -0.288 N 
ATOM      4  C   UNL     1       1.803   2.580   0.849  0.00  0.00    +0.202 A 
ATOM      5  N   UNL     1       3.061   2.839   0.617  0.00  0.00    -0.214 NA
ATOM      6  C   UNL     1       3.505   2.046  -0.378  0.00  0.00    +0.091 A 
ATOM      7  C   UNL     1       4.758   1.929  -0.991  0.00  0.00    +0.030 A 
ATOM      8  C   UNL     1       4.877   0.994  -2.003  0.00  0.00    +0.002 A 
ATOM      9  C   UNL     1       3.813   0.203  -2.400  0.00  0.00    +0.002 A 
ATOM     10  C   UNL     1       2.564   0.300  -1.808  0.00  0.00    +0.028 A 
ATOM     11  C   UNL     1       2.417   1.233  -0.788  0.00  0.00    +0.071 A 
ATOM     12  N   UNL     1       1.361   1.592  -0.002  0.00  0.00    -0.300 N 
ATOM     13  C   UNL     1      -0.013   1.086   0.008  0.00  0.00    +0.162 C 
ATOM     14  C   UNL     1      -1.034   2.953   3.246  0.00  0.00    +0.061 C 
ATOM     15  H   UNL     1       1.213   3.970   2.256  0.00  0.00    +0.155 HD
ENDROOT
BRANCH  13  16
ATOM     16  C   UNL     1      -0.740   1.584  -1.214  0.00  0.00    +0.017 A 
ATOM     17  C   UNL     1      -0.892   2.943  -1.422  0.00  0.00    +0.048 A 
ATOM     18  C   UNL     1      -1.556   3.401  -2.547  0.00  0.00    +0.020 A 
ATOM     19  C   UNL     1      -2.076   2.500  -3.457  0.00  0.00    +0.003 A 
ATOM     20  C   UNL     1      -1.929   1.142  -3.246  0.00  0.00    +0.020 A 
ATOM     21  C   UNL     1      -1.262   0.683  -2.125  0.00  0.00    +0.048 A 
ATOM     22 CL   UNL     1      -1.077  -1.023  -1.861  0.00  0.00    -0.083 Cl
ATOM     23 CL   UNL     1      -0.245   4.075  -0.276  0.00  0.00    -0.083 Cl
ENDBRANCH  13  16
BRANCH   1  24
ATOM     24  C   UNL     1      -1.957   0.979   1.585  0.00  0.00    +0.339 C 
ATOM     25  O   UNL     1      -2.555   1.348   2.578  0.00  0.00    -0.245 OA
BRANCH  24  26
ATOM     26  O   UNL     1      -2.476   0.005   0.808  0.00  0.00    -0.462 OA
BRANCH  26  28
ATOM     27  C   UNL     1      -4.155  -1.630   0.218  0.00  0.00    +0.048 C 
ATOM     28  C   UNL     1      -3.730  -0.548   1.213  0.00  0.00    +0.229 C 
ENDBRANCH  26  28
ENDBRANCH  24  26
ENDBRANCH   1  24
TORSDOF 4
