REMARK  Name = ZINC63625515
REMARK  13 active torsions:
REMARK  status: ('A' for Active; 'I' for Inactive)
REMARK    1  A    between atoms: C_1  and  C_2
REMARK    2  A    between atoms: C_2  and  C_3
REMARK    3  A    between atoms: C_3  and  N_4
REMARK    4  A    between atoms: C_10  and  C_12
REMARK    5  A    between atoms: C_12  and  C_14
REMARK    6  A    between atoms: C_12  and  C_15
REMARK    7  A    between atoms: C_21  and  C_23
REMARK    8  A    between atoms: C_25  and  C_35
REMARK    9  A    between atoms: C_26  and  C_30
REMARK   10  A    between atoms: C_27  and  C_29
REMARK   11  A    between atoms: C_30  and  O_32
REMARK   12  A    between atoms: O_32  and  C_33
REMARK   13  A    between atoms: C_33  and  C_34
REMARK                            x       y       z     vdW  Elec       q    Type
REMARK                         _______ _______ _______ _____ _____    ______ ____
ROOT
ATOM      1  C   UNL     1       0.406  -6.417  -5.435  0.00  0.00    +0.004 C 
ATOM      2  C   UNL     1       1.194  -7.214  -6.477  0.00  0.00    +0.023 C 
ATOM      3  C   UNL     1       0.327  -8.366  -6.995  0.00  0.00    +0.108 C 
ATOM      4  N   UNL     1      -0.944  -7.818  -7.488  0.00  0.00    -0.297 N 
ATOM      5  C   UNL     1      -1.737  -6.962  -6.596  0.00  0.00    +0.108 C 
ATOM      6  C   UNL     1      -0.848  -5.825  -6.083  0.00  0.00    +0.023 C 
ATOM      7  C   UNL     1      -1.373  -8.094  -8.736  0.00  0.00    +0.261 C 
ATOM      8  O   UNL     1      -0.665  -8.726  -9.495  0.00  0.00    -0.269 OA
ENDROOT
BRANCH   7   9
ATOM      9  C   UNL     1      -2.704  -7.628  -9.180  0.00  0.00    +0.111 C 
ATOM     10  N   UNL     1      -3.617  -7.066  -8.445  0.00  0.00    -0.250 NA
ATOM     11  C   UNL     1      -4.727  -6.747  -9.116  0.00  0.00    +0.049 C 
ATOM     12  C   UNL     1      -4.648  -7.087 -10.424  0.00  0.00    +0.066 C 
ATOM     13  C   UNL     1      -3.271  -7.706 -10.584  0.00  0.00    +0.078 C 
ATOM     14  C   UNL     1      -2.418  -6.892 -11.559  0.00  0.00    +0.019 C 
ATOM     15  C   UNL     1      -5.929  -6.088  -8.489  0.00  0.00    +0.066 C 
BRANCH  12  16
ATOM     16  C   UNL     1      -5.666  -6.894 -11.461  0.00  0.00    +0.338 C 
ATOM     17  O   UNL     1      -6.729  -6.373 -11.179  0.00  0.00    -0.245 OA
BRANCH  16  18
ATOM     18  O   UNL     1      -5.425  -7.293 -12.726  0.00  0.00    -0.462 OA
BRANCH  18  19
ATOM     19  C   UNL     1      -6.462  -7.073 -13.684  0.00  0.00    +0.229 C 
ATOM     20  C   UNL     1      -6.009  -7.587 -15.053  0.00  0.00    +0.048 C 
ENDBRANCH  18  19
ENDBRANCH  16  18
ENDBRANCH  12  16
ENDBRANCH   7   9
BRANCH   1  21
ATOM     21  C   UNL     1       1.281  -5.286  -4.890  0.00  0.00    +0.075 C 
ATOM     22  C   UNL     1       2.534  -5.878  -4.242  0.00  0.00    +0.017 C 
BRANCH  21  29
ATOM     23  N   UNL     1       1.117  -0.464  -3.700  0.00  0.00    +0.382 N 
ATOM     24  C   UNL     1      -0.174  -1.057  -3.332  0.00  0.00    -0.060 C 
ATOM     25  C   UNL     1       0.061  -2.413  -2.656  0.00  0.00    +0.089 C 
ATOM     26  N   UNL     1       0.879  -3.244  -3.553  0.00  0.00    -0.305 N 
ATOM     27  C   UNL     1       2.115  -2.665  -4.102  0.00  0.00    +0.089 C 
ATOM     28  C   UNL     1       1.782  -1.298  -4.709  0.00  0.00    -0.060 C 
ATOM     29  C   UNL     1       0.506  -4.502  -3.863  0.00  0.00    +0.219 C 
ATOM     30  O   UNL     1      -0.453  -5.003  -3.314  0.00  0.00    -0.275 OA
ATOM     31  H   UNL     1       1.702  -0.401  -2.880  0.00  0.00    -0.082 HD
BRANCH  23  32
ATOM     32  C   UNL     1       0.898   0.882  -4.247  0.00  0.00    -0.079 C 
BRANCH  32  34
ATOM     33  C   UNL     1       0.091   3.189  -3.727  0.00  0.00    +0.002 C 
ATOM     34  C   UNL     1       0.320   1.787  -3.157  0.00  0.00    -0.022 C 
ENDBRANCH  32  34
ENDBRANCH  23  32
ENDBRANCH  21  29
ENDBRANCH   1  21
TORSDOF 8
