REMARK  Name = ZINC66688362
REMARK  6 active torsions:
REMARK  status: ('A' for Active; 'I' for Inactive)
REMARK    1  A    between atoms: C_5  and  C_7
REMARK    2  A    between atoms: C_14  and  C_16
REMARK    3  A    between atoms: C_16  and  O_17
REMARK    4  A    between atoms: O_17  and  C_18
REMARK    5  A    between atoms: C_21  and  C_24
REMARK    6  A    between atoms: C_24  and  C_25
REMARK                            x       y       z     vdW  Elec       q    Type
REMARK                         _______ _______ _______ _____ _____    ______ ____
ROOT
ATOM      1  C   UNL     1       1.228  -2.186  -0.022  0.00  0.00    +0.168 C 
ATOM      2  C   UNL     1       1.372  -2.705   1.413  0.00  0.00    +0.144 C 
ATOM      3  N   UNL     1       1.201  -4.166   1.398  0.00  0.00    -0.294 N 
ATOM      4  C   UNL     1       0.021  -4.718   0.714  0.00  0.00    +0.136 C 
ATOM      5  C   UNL     1      -0.057  -4.101  -0.687  0.00  0.00    +0.179 C 
ATOM      6  O   UNL     1       0.007  -2.677  -0.580  0.00  0.00    -0.369 OA
ATOM      7  C   UNL     1       2.100  -4.976   1.993  0.00  0.00    +0.253 C 
ATOM      8  O   UNL     1       3.067  -4.502   2.552  0.00  0.00    -0.272 OA
ENDROOT
BRANCH   1  13
ATOM      9  C   UNL     1      -0.017   1.378   0.010  0.00  0.00    +0.001 A 
ATOM     10  C   UNL     1       1.171   2.087   0.002  0.00  0.00    +0.003 A 
ATOM     11  C   UNL     1       2.377   1.414  -0.013  0.00  0.00    +0.039 A 
ATOM     12  C   UNL     1       2.397   0.029  -0.021  0.00  0.00    +0.129 A 
ATOM     13  C   UNL     1       1.208  -0.679  -0.013  0.00  0.00    +0.018 A 
ATOM     14  C   UNL     1       0.002  -0.004   0.002  0.00  0.00    +0.009 A 
ATOM     15  F   UNL     1       3.577  -0.630  -0.036  0.00  0.00    -0.205 F 
ENDBRANCH   1  13
BRANCH   7  16
ATOM     16  C   UNL     1       1.903  -6.470   1.964  0.00  0.00    +0.324 C 
BRANCH  16  17
ATOM     17  O   UNL     1       2.979  -7.106   2.657  0.00  0.00    -0.483 OA
BRANCH  17  18
ATOM     18  C   UNL     1       2.954  -8.463   2.723  0.00  0.00    +0.121 A 
ATOM     19  C   UNL     1       1.917  -9.168   2.130  0.00  0.00    +0.046 A 
ATOM     20  C   UNL     1       1.894 -10.548   2.199  0.00  0.00    +0.007 A 
ATOM     21  C   UNL     1       2.902 -11.225   2.859  0.00  0.00    -0.038 A 
ATOM     22  C   UNL     1       3.936 -10.524   3.452  0.00  0.00    +0.007 A 
ATOM     23  C   UNL     1       3.967  -9.145   3.381  0.00  0.00    +0.046 A 
BRANCH  21  24
ATOM     24  C   UNL     1       2.873 -12.730   2.933  0.00  0.00    +0.130 C 
BRANCH  24  25
ATOM     25  C   UNL     1       3.607 -13.305   1.749  0.00  0.00    +0.215 C 
ATOM     26  O   UNL     1       4.103 -12.566   0.925  0.00  0.00    -0.276 OA
ATOM     27  N   UNL     1       3.710 -14.641   1.604  0.00  0.00    -0.329 N 
ATOM     28  H   UNL     1       3.313 -15.233   2.263  0.00  0.00    +0.145 HD
ATOM     29  H   UNL     1       4.182 -15.011   0.842  0.00  0.00    +0.145 HD
ENDBRANCH  24  25
ENDBRANCH  21  24
ENDBRANCH  17  18
ENDBRANCH  16  17
ENDBRANCH   7  16
TORSDOF 6
