REMARK  Name = ZINC32622608
REMARK  10 active torsions:
REMARK  status: ('A' for Active; 'I' for Inactive)
REMARK    1  A    between atoms: C_1  and  N_2
REMARK    2  A    between atoms: N_2  and  C_3
REMARK    3  A    between atoms: N_2  and  C_4
REMARK    4  A    between atoms: C_4  and  C_5
REMARK    5  A    between atoms: C_5  and  C_6
REMARK    6  A    between atoms: C_6  and  N_7
REMARK    7  A    between atoms: C_8  and  C_23
REMARK    8  A    between atoms: C_26  and  O_29
REMARK    9  A    between atoms: O_29  and  C_30
REMARK   10  A    between atoms: C_30  and  C_31
REMARK                            x       y       z     vdW  Elec       q    Type
REMARK                         _______ _______ _______ _____ _____    ______ ____
ROOT
ATOM      1  N   UNL     1       2.993   0.082   6.076  0.00  0.00    -0.284 N 
ATOM      2  C   UNL     1       1.527   0.036   6.140  0.00  0.00    +0.144 C 
ATOM      3  C   UNL     1       1.168  -1.393   6.454  0.00  0.00    +0.072 A 
ATOM      4  C   UNL     1      -0.113  -2.078   6.645  0.00  0.00    +0.199 A 
ATOM      5  O   UNL     1      -1.173  -1.484   6.561  0.00  0.00    -0.287 OA
ATOM      6  C   UNL     1      -0.055  -3.522   6.945  0.00  0.00    +0.064 A 
ATOM      7  C   UNL     1      -1.213  -4.271   7.145  0.00  0.00    +0.015 A 
ATOM      8  C   UNL     1      -1.115  -5.607   7.420  0.00  0.00    +0.001 A 
ATOM      9  C   UNL     1       0.129  -6.217   7.501  0.00  0.00    +0.004 A 
ATOM     10  C   UNL     1       1.284  -5.492   7.307  0.00  0.00    +0.047 A 
ATOM     11  C   UNL     1       1.209  -4.131   7.025  0.00  0.00    +0.139 A 
ATOM     12  O   UNL     1       2.328  -3.409   6.832  0.00  0.00    -0.450 OA
ATOM     13  C   UNL     1       2.328  -2.090   6.556  0.00  0.00    +0.199 A 
ATOM     14  C   UNL     1       3.457  -1.156   6.318  0.00  0.00    +0.283 C 
ATOM     15  O   UNL     1       4.631  -1.466   6.339  0.00  0.00    -0.267 OA
ENDROOT
BRANCH   2  16
ATOM     16  C   UNL     1       0.936   0.440   4.814  0.00  0.00    -0.022 A 
ATOM     17  C   UNL     1      -0.203   1.223   4.776  0.00  0.00    +0.009 A 
ATOM     18  C   UNL     1      -0.747   1.595   3.561  0.00  0.00    +0.046 A 
ATOM     19  C   UNL     1      -0.149   1.182   2.380  0.00  0.00    +0.121 A 
ATOM     20  C   UNL     1       0.991   0.392   2.421  0.00  0.00    +0.046 A 
ATOM     21  C   UNL     1       1.534   0.028   3.638  0.00  0.00    +0.009 A 
BRANCH  19  22
ATOM     22  O   UNL     1      -0.682   1.547   1.184  0.00  0.00    -0.487 OA
BRANCH  22  23
ATOM     23  C   UNL     1      -0.013   1.086   0.008  0.00  0.00    +0.264 C 
BRANCH  23  24
ATOM     24  C   UNL     1      -0.742   1.585  -1.213  0.00  0.00    -0.010 A 
ATOM     25  C   UNL     1      -1.750   0.825  -1.775  0.00  0.00    +0.007 A 
ATOM     26  C   UNL     1      -2.422   1.285  -2.892  0.00  0.00    +0.000 A 
ATOM     27  C   UNL     1      -2.079   2.501  -3.453  0.00  0.00    +0.000 A 
ATOM     28  C   UNL     1      -1.066   3.259  -2.894  0.00  0.00    +0.000 A 
ATOM     29  C   UNL     1      -0.398   2.801  -1.774  0.00  0.00    +0.007 A 
ENDBRANCH  23  24
ENDBRANCH  22  23
ENDBRANCH  19  22
ENDBRANCH   2  16
BRANCH   1  30
ATOM     30  C   UNL     1       3.806   1.268   5.796  0.00  0.00    +0.107 C 
BRANCH  30  31
ATOM     31  C   UNL     1       4.142   1.977   7.109  0.00  0.00    +0.000 C 
BRANCH  31  32
ATOM     32  C   UNL     1       4.992   3.215   6.817  0.00  0.00    -0.078 C 
BRANCH  32  34
ATOM     33  C   UNL     1       6.319   4.947   7.867  0.00  0.00    -0.097 C 
ATOM     34  N   UNL     1       5.314   3.896   8.079  0.00  0.00    +0.376 N 
ATOM     35  C   UNL     1       4.104   4.443   8.706  0.00  0.00    -0.097 C 
ATOM     36  H   UNL     1       5.744   3.151   8.764  0.00  0.00    -0.083 HD
ENDBRANCH  32  34
ENDBRANCH  31  32
ENDBRANCH  30  31
ENDBRANCH   1  30
TORSDOF 8
