REMARK  Name = ZINC37105372
REMARK  6 active torsions:
REMARK  status: ('A' for Active; 'I' for Inactive)
REMARK    1  A    between atoms: C_1  and  C_2
REMARK    2  A    between atoms: C_2  and  C_4
REMARK    3  A    between atoms: C_2  and  N_12
REMARK    4  A    between atoms: C_6  and  O_11
REMARK    5  A    between atoms: C_9  and  O_10
REMARK    6  A    between atoms: N_12  and  C_13
REMARK                            x       y       z     vdW  Elec       q    Type
REMARK                         _______ _______ _______ _____ _____    ______ ____
ROOT
ATOM      1  C   UNL     1       0.020   1.525   0.063  0.00  0.00    +0.033 C 
ATOM      2  C   UNL     1       0.002  -0.004   0.002  0.00  0.00    +0.101 C 
ENDROOT
BRANCH   2   3
ATOM      3  C   UNL     1      -1.416  -0.483  -0.170  0.00  0.00    +0.017 A 
ATOM      4  C   UNL     1      -1.920  -0.711  -1.435  0.00  0.00    +0.054 A 
ATOM      5  C   UNL     1      -3.225  -1.152  -1.593  0.00  0.00    +0.117 A 
ATOM      6  C   UNL     1      -4.025  -1.365  -0.480  0.00  0.00    +0.049 A 
ATOM      7  C   UNL     1      -3.522  -1.137   0.786  0.00  0.00    +0.049 A 
ATOM      8  C   UNL     1      -2.214  -0.701   0.944  0.00  0.00    +0.122 A 
BRANCH   8   9
ATOM      9  O   UNL     1      -1.717  -0.481   2.190  0.00  0.00    -0.506 OA
ATOM     10  H   UNL     1      -1.851   0.419   2.515  0.00  0.00    +0.292 HD
ENDBRANCH   8   9
BRANCH   5  11
ATOM     11  O   UNL     1      -3.721  -1.376  -2.840  0.00  0.00    -0.507 OA
ATOM     12  H   UNL     1      -3.587  -2.279  -3.160  0.00  0.00    +0.292 HD
ENDBRANCH   5  11
ENDBRANCH   2   3
BRANCH   2  13
ATOM     13  N   UNL     1       0.811  -0.457  -1.132  0.00  0.00    -0.336 N 
ATOM     14  H   UNL     1       0.389  -0.642  -1.986  0.00  0.00    +0.147 HD
BRANCH  13  15
ATOM     15  C   UNL     1       2.191  -0.623  -0.984  0.00  0.00    +0.046 A 
ATOM     16  C   UNL     1       2.796  -0.364   0.239  0.00  0.00    +0.025 A 
ATOM     17  C   UNL     1       4.160  -0.529   0.382  0.00  0.00    +0.016 A 
ATOM     18  C   UNL     1       4.924  -0.952  -0.691  0.00  0.00    +0.015 A 
ATOM     19  C   UNL     1       4.325  -1.210  -1.911  0.00  0.00    +0.036 A 
ATOM     20  C   UNL     1       2.960  -1.053  -2.059  0.00  0.00    +0.063 A 
ATOM     21 CL   UNL     1       2.208  -1.384  -3.589  0.00  0.00    -0.082 Cl
ATOM     22  I   UNL     1       6.992  -1.200  -0.469  0.00  0.00    -0.044 I 
ENDBRANCH  13  15
ENDBRANCH   2  13
TORSDOF 5
