REMARK  Name = ZINC10085933
REMARK  10 active torsions:
REMARK  status: ('A' for Active; 'I' for Inactive)
REMARK    1  A    between atoms: C_1  and  C_2
REMARK    2  A    between atoms: C_2  and  N_65
REMARK    3  A    between atoms: C_5  and  N_8
REMARK    4  A    between atoms: C_9  and  C_11
REMARK    5  A    between atoms: C_11  and  S_12
REMARK    6  A    between atoms: S_12  and  C_13
REMARK    7  A    between atoms: N_23  and  C_24
REMARK    8  A    between atoms: C_29  and  C_30
REMARK    9  A    between atoms: C_30  and  C_31
REMARK   10  A    between atoms: C_30  and  C_32
REMARK                            x       y       z     vdW  Elec       q    Type
REMARK                         _______ _______ _______ _____ _____    ______ ____
ROOT
ATOM      1  C   UNL     1      -1.121  -2.039   0.003  0.00  0.00    +0.177 A 
ATOM      2  N   UNL     1      -1.141  -0.729   0.009  0.00  0.00    -0.223 NA
ATOM      3  C   UNL     1       0.002  -0.004   0.002  0.00  0.00    +0.079 A 
ATOM      4  C   UNL     1      -0.017   1.394   0.010  0.00  0.00    +0.028 A 
ATOM      5  C   UNL     1       1.161   2.086   0.002  0.00  0.00    +0.002 A 
ATOM      6  C   UNL     1       2.381   1.421  -0.013  0.00  0.00    +0.001 A 
ATOM      7  C   UNL     1       2.432   0.055  -0.021  0.00  0.00    +0.015 A 
ATOM      8  C   UNL     1       1.245  -0.677  -0.013  0.00  0.00    +0.065 A 
ATOM      9  C   UNL     1       1.239  -2.146  -0.021  0.00  0.00    +0.267 A 
ATOM     10  O   UNL     1       2.277  -2.781  -0.035  0.00  0.00    -0.267 OA
ATOM     11  N   UNL     1       0.037  -2.767  -0.012  0.00  0.00    -0.255 N 
ENDROOT
BRANCH  11  12
ATOM     12  C   UNL     1      -0.022  -4.167  -0.019  0.00  0.00    +0.055 A 
ATOM     13  C   UNL     1      -0.034  -4.868   1.180  0.00  0.00    +0.026 A 
ATOM     14  C   UNL     1      -0.097  -6.248   1.170  0.00  0.00    +0.002 A 
ATOM     15  C   UNL     1      -0.138  -6.931  -0.031  0.00  0.00    +0.000 A 
ATOM     16  C   UNL     1      -0.121  -6.236  -1.226  0.00  0.00    +0.006 A 
ATOM     17  C   UNL     1      -0.063  -4.856  -1.223  0.00  0.00    -0.021 A 
BRANCH  17  18
ATOM     18  C   UNL     1      -0.044  -4.099  -2.526  0.00  0.00    +0.015 C 
ATOM     19  C   UNL     1       1.180  -4.518  -3.342  0.00  0.00    +0.012 C 
ATOM     20  C   UNL     1      -1.316  -4.413  -3.317  0.00  0.00    +0.012 C 
ENDBRANCH  17  18
ENDBRANCH  11  12
BRANCH   1  21
ATOM     21  S   UNL     1      -2.657  -2.903   0.015  0.00  0.00    -0.078 S 
BRANCH  21  22
ATOM     22  C   UNL     1      -3.804  -1.504   0.033  0.00  0.00    +0.173 C 
BRANCH  22  24
ATOM     23  N   UNL     1      -6.252  -1.148   0.060  0.00  0.00    -0.312 N 
ATOM     24  C   UNL     1      -5.221  -2.016   0.045  0.00  0.00    +0.224 C 
ATOM     25  O   UNL     1      -5.434  -3.210   0.042  0.00  0.00    -0.275 OA
ATOM     26  H   UNL     1      -6.082  -0.193   0.063  0.00  0.00    +0.149 HD
BRANCH  23  29
ATOM     27  C   UNL     1      -9.995  -1.093   0.651  0.00  0.00    -0.077 C 
ATOM     28  C   UNL     1      -8.549  -0.593   0.697  0.00  0.00    +0.003 C 
ATOM     29  C   UNL     1      -7.630  -1.646   0.072  0.00  0.00    +0.069 C 
ATOM     30  C   UNL     1      -8.085  -1.924  -1.363  0.00  0.00    +0.003 C 
ATOM     31  C   UNL     1      -9.544  -2.386  -1.349  0.00  0.00    -0.077 C 
ATOM     32  N   UNL     1     -10.380  -1.319  -0.759  0.00  0.00    +0.380 N 
ATOM     33  H   UNL     1     -10.233  -0.451  -1.287  0.00  0.00    -0.082 HD
BRANCH  32  35
ATOM     34  C   UNL     1     -12.118  -2.187  -2.252  0.00  0.00    -0.017 C 
ATOM     35  C   UNL     1     -11.807  -1.694  -0.838  0.00  0.00    -0.082 C 
ENDBRANCH  32  35
ENDBRANCH  23  29
ENDBRANCH  22  24
ENDBRANCH  21  22
ENDBRANCH   1  21
TORSDOF 7
