REMARK  Name = ZINC60493145
REMARK  8 active torsions:
REMARK  status: ('A' for Active; 'I' for Inactive)
REMARK    1  A    between atoms: C_1  and  C_2
REMARK    2  A    between atoms: C_2  and  O_3
REMARK    3  A    between atoms: O_3  and  C_4
REMARK    4  A    between atoms: N_7  and  C_10
REMARK    5  A    between atoms: C_10  and  C_11
REMARK    6  A    between atoms: N_13  and  C_14
REMARK    7  A    between atoms: C_14  and  C_15
REMARK    8  A    between atoms: N_17  and  C_18
REMARK                            x       y       z     vdW  Elec       q    Type
REMARK                         _______ _______ _______ _____ _____    ______ ____
ROOT
ATOM      1  C   UNL     1      -4.471  -6.094   0.273  0.00  0.00    +0.197 C 
ATOM      2  O   UNL     1      -5.192  -5.211  -0.141  0.00  0.00    -0.278 OA
ATOM      3  N   UNL     1      -4.875  -7.378   0.212  0.00  0.00    -0.308 N 
ATOM      4  H   UNL     1      -4.298  -8.084   0.543  0.00  0.00    +0.149 HD
ENDROOT
BRANCH   1   5
ATOM      5  C   UNL     1      -3.123  -5.755   0.855  0.00  0.00    +0.019 C 
BRANCH   5   9
ATOM      6  C   UNL     1      -1.456  -1.913   0.069  0.00  0.00    +0.115 C 
ATOM      7  C   UNL     1      -1.486  -2.441   1.506  0.00  0.00    +0.013 C 
ATOM      8  C   UNL     1      -1.662  -3.961   1.482  0.00  0.00    -0.076 C 
ATOM      9  N   UNL     1      -2.921  -4.300   0.807  0.00  0.00    +0.386 N 
ATOM     10  C   UNL     1      -2.870  -3.861  -0.592  0.00  0.00    -0.076 C 
ATOM     11  C   UNL     1      -2.741  -2.337  -0.647  0.00  0.00    +0.013 C 
ATOM     12  H   UNL     1      -3.687  -3.841   1.276  0.00  0.00    -0.081 HD
BRANCH   6  13
ATOM     13  O   UNL     1      -1.367  -0.486   0.086  0.00  0.00    -0.377 OA
BRANCH  13  15
ATOM     14  C   UNL     1      -0.053   1.542   0.100  0.00  0.00    +0.034 C 
ATOM     15  C   UNL     1      -0.028   0.012   0.081  0.00  0.00    +0.157 C 
ENDBRANCH  13  15
ENDBRANCH   6  13
ENDBRANCH   5   9
ENDBRANCH   1   5
BRANCH   3  16
ATOM     16  C   UNL     1      -6.185  -7.708  -0.354  0.00  0.00    +0.200 C 
BRANCH  16  17
ATOM     17  C   UNL     1      -6.393  -9.200  -0.306  0.00  0.00    +0.234 C 
ATOM     18  O   UNL     1      -5.531  -9.917   0.157  0.00  0.00    -0.274 OA
ATOM     19  N   UNL     1      -7.536  -9.737  -0.775  0.00  0.00    -0.283 N 
ATOM     20  H   UNL     1      -8.252  -9.160  -1.085  0.00  0.00    +0.155 HD
BRANCH  19  21
ATOM     21  C   UNL     1      -7.691 -11.127  -0.817  0.00  0.00    +0.047 A 
ATOM     22  C   UNL     1      -7.127 -11.920   0.174  0.00  0.00    +0.024 A 
ATOM     23  C   UNL     1      -7.282 -13.292   0.130  0.00  0.00    +0.002 A 
ATOM     24  C   UNL     1      -7.996 -13.877  -0.899  0.00  0.00    +0.001 A 
ATOM     25  C   UNL     1      -8.559 -13.091  -1.888  0.00  0.00    +0.017 A 
ATOM     26  C   UNL     1      -8.413 -11.717  -1.847  0.00  0.00    +0.039 A 
ATOM     27 BR   UNL     1      -9.189 -10.642  -3.195  0.00  0.00    -0.048 Br
ENDBRANCH  19  21
ENDBRANCH  16  17
ENDBRANCH   3  16
TORSDOF 7
