REMARK  Name = ZINC39444648
REMARK  5 active torsions:
REMARK  status: ('A' for Active; 'I' for Inactive)
REMARK    1  A    between atoms: C_1  and  C_2
REMARK    2  A    between atoms: C_2  and  C_4
REMARK    3  A    between atoms: C_2  and  S_19
REMARK    4  A    between atoms: C_9  and  C_14
REMARK    5  A    between atoms: S_19  and  C_20
REMARK                            x       y       z     vdW  Elec       q    Type
REMARK                         _______ _______ _______ _____ _____    ______ ____
ROOT
ATOM      1  C   UNL     1      -0.019   1.526   0.010  0.00  0.00    +0.027 C 
ATOM      2  C   UNL     1       0.002  -0.004   0.002  0.00  0.00    +0.116 C 
ENDROOT
BRANCH   2   3
ATOM      3  C   UNL     1       0.731  -0.503   1.223  0.00  0.00    +0.137 C 
ATOM      4  N   UNL     1       0.064  -0.640   2.347  0.00  0.00    -0.160 NA
ATOM      5  C   UNL     1       0.647  -1.077   3.466  0.00  0.00    +0.272 C 
ATOM      6  O   UNL     1       0.007  -1.197   4.499  0.00  0.00    -0.268 OA
ATOM      7  C   UNL     1       2.096  -1.416   3.424  0.00  0.00    +0.076 C 
ATOM      8  C   UNL     1       2.882  -1.882   4.470  0.00  0.00    -0.009 C 
ATOM      9  C   UNL     1       4.337  -2.150   4.154  0.00  0.00    +0.113 C 
ATOM     10  S   UNL     1       4.408  -1.696   2.375  0.00  0.00    -0.100 S 
ATOM     11  C   UNL     1       2.708  -1.228   2.156  0.00  0.00    +0.112 C 
ATOM     12  N   UNL     1       2.016  -0.793   1.123  0.00  0.00    -0.226 NA
BRANCH   8  13
ATOM     13  C   UNL     1       2.355  -2.093   5.748  0.00  0.00    +0.017 A 
ATOM     14  C   UNL     1       2.216  -3.292   6.460  0.00  0.00    +0.016 A 
ATOM     15  C   UNL     1       1.659  -3.179   7.703  0.00  0.00    +0.008 A 
ATOM     16  C   UNL     1       1.287  -1.949   8.155  0.00  0.00    +0.046 A 
ATOM     17  S   UNL     1       1.692  -0.906   6.902  0.00  0.00    -0.097 S 
ENDBRANCH   8  13
ENDBRANCH   2   3
BRANCH   2  18
ATOM     18  S   UNL     1      -1.700  -0.632   0.015  0.00  0.00    -0.075 S 
BRANCH  18  19
ATOM     19  C   UNL     1      -2.365  -0.093  -1.525  0.00  0.00    +0.192 A 
ATOM     20  N   UNL     1      -3.622  -0.391  -1.832  0.00  0.00    -0.207 NA
ATOM     21  C   UNL     1      -4.175  -0.014  -2.972  0.00  0.00    +0.129 A 
ATOM     22  C   UNL     1      -3.405   0.735  -3.906  0.00  0.00    +0.047 A 
ATOM     23  C   UNL     1      -3.780   1.258  -5.209  0.00  0.00    +0.021 A 
ATOM     24  C   UNL     1      -2.877   1.944  -5.924  0.00  0.00    +0.048 A 
ATOM     25  S   UNL     1      -1.430   1.938  -4.883  0.00  0.00    -0.077 S 
ATOM     26  C   UNL     1      -2.078   1.014  -3.515  0.00  0.00    +0.114 A 
ATOM     27  N   UNL     1      -1.601   0.606  -2.355  0.00  0.00    -0.215 NA
ATOM     28  N   UNL     1      -5.488  -0.344  -3.255  0.00  0.00    -0.343 N 
ATOM     29  H   UNL     1      -6.008  -0.854  -2.614  0.00  0.00    +0.144 HD
ATOM     30  H   UNL     1      -5.889  -0.065  -4.093  0.00  0.00    +0.144 HD
ENDBRANCH  18  19
ENDBRANCH   2  18
TORSDOF 4
