REMARK  Name = ZINC03325714
REMARK  6 active torsions:
REMARK  status: ('A' for Active; 'I' for Inactive)
REMARK    1  A    between atoms: C_7  and  C_16
REMARK    2  A    between atoms: C_9  and  C_11
REMARK    3  A    between atoms: C_16  and  O_18
REMARK    4  A    between atoms: O_18  and  C_19
REMARK    5  A    between atoms: C_19  and  C_20
REMARK    6  A    between atoms: C_20  and  C_22
REMARK                            x       y       z     vdW  Elec       q    Type
REMARK                         _______ _______ _______ _____ _____    ______ ____
ROOT
ATOM      1  C   UNL     1       7.708   0.229  -5.875  0.00  0.00    +0.340 C 
ATOM      2  O   UNL     1       7.961   1.400  -5.676  0.00  0.00    -0.245 OA
ENDROOT
BRANCH   1   9
ATOM      3  C   UNL     1      10.818   2.002  -8.306  0.00  0.00    +0.001 A 
ATOM      4  C   UNL     1      11.565   1.216  -9.181  0.00  0.00    +0.002 A 
ATOM      5  C   UNL     1      11.345  -0.123  -9.286  0.00  0.00    +0.028 A 
ATOM      6  C   UNL     1      10.336  -0.727  -8.511  0.00  0.00    +0.073 A 
ATOM      7  C   UNL     1       9.576   0.079  -7.626  0.00  0.00    +0.014 A 
ATOM      8  C   UNL     1       9.836   1.450  -7.537  0.00  0.00    +0.011 A 
ATOM      9  C   UNL     1       8.532  -0.555  -6.819  0.00  0.00    +0.070 A 
ATOM     10  C   UNL     1       8.343  -1.920  -6.980  0.00  0.00    +0.047 A 
ATOM     11  C   UNL     1       9.149  -2.626  -7.890  0.00  0.00    +0.107 A 
ATOM     12  N   UNL     1      10.088  -2.034  -8.604  0.00  0.00    -0.244 NA
BRANCH  11  13
ATOM     13  C   UNL     1       8.938  -4.076  -8.053  0.00  0.00    +0.153 A 
ATOM     14  C   UNL     1       9.629  -4.895  -8.893  0.00  0.00    +0.051 A 
ATOM     15  C   UNL     1       9.103  -6.189  -8.721  0.00  0.00    +0.042 A 
ATOM     16  C   UNL     1       8.121  -6.098  -7.801  0.00  0.00    +0.196 A 
ATOM     17  O   UNL     1       8.024  -4.821  -7.400  0.00  0.00    -0.461 OA
ENDBRANCH  11  13
ENDBRANCH   1   9
BRANCH   1  18
ATOM     18  O   UNL     1       6.677  -0.356  -5.235  0.00  0.00    -0.453 OA
BRANCH  18  19
ATOM     19  C   UNL     1       5.912   0.474  -4.323  0.00  0.00    +0.311 C 
BRANCH  19  20
ATOM     20  C   UNL     1       4.808  -0.344  -3.705  0.00  0.00    +0.200 C 
ATOM     21  O   UNL     1       4.679  -1.512  -4.004  0.00  0.00    -0.288 OA
BRANCH  20  22
ATOM     22  C   UNL     1       3.888   0.273  -2.740  0.00  0.00    +0.023 A 
ATOM     23  C   UNL     1       4.035   1.622  -2.394  0.00  0.00    +0.015 A 
ATOM     24  C   UNL     1       3.172   2.200  -1.490  0.00  0.00    +0.048 A 
ATOM     25  C   UNL     1       2.154   1.449  -0.919  0.00  0.00    +0.142 A 
ATOM     26  C   UNL     1       2.001   0.102  -1.259  0.00  0.00    +0.076 A 
ATOM     27  C   UNL     1       2.861  -0.486  -2.164  0.00  0.00    +0.038 A 
ATOM     28  N   UNL     1       0.967  -0.640  -0.670  0.00  0.00    -0.280 N 
ATOM     29  C   UNL     1      -0.036   0.016  -0.048  0.00  0.00    +0.255 C 
ATOM     30  O   UNL     1      -0.926  -0.605   0.494  0.00  0.00    -0.272 OA
ATOM     31  C   UNL     1      -0.045   1.523  -0.030  0.00  0.00    +0.325 C 
ATOM     32  O   UNL     1       1.298   2.012  -0.028  0.00  0.00    -0.481 OA
ATOM     33  H   UNL     1       0.972  -1.610  -0.709  0.00  0.00    +0.155 HD
ENDBRANCH  20  22
ENDBRANCH  19  20
ENDBRANCH  18  19
ENDBRANCH   1  18
TORSDOF 6
