REMARK  Name = ZINC32528697
REMARK  7 active torsions:
REMARK  status: ('A' for Active; 'I' for Inactive)
REMARK    1  A    between atoms: C_1  and  C_2
REMARK    2  A    between atoms: C_4  and  S_12
REMARK    3  A    between atoms: S_12  and  C_13
REMARK    4  A    between atoms: C_13  and  C_14
REMARK    5  A    between atoms: C_14  and  C_15
REMARK    6  A    between atoms: N_17  and  C_18
REMARK    7  A    between atoms: C_19  and  C_27
REMARK                            x       y       z     vdW  Elec       q    Type
REMARK                         _______ _______ _______ _____ _____    ______ ____
ROOT
ATOM      1  C   UNL     1      -6.209  -0.881   0.055  0.00  0.00    +0.218 C 
ATOM      2  O   UNL     1      -5.790   0.257   0.058  0.00  0.00    -0.275 OA
ATOM      3  N   UNL     1      -7.537  -1.110   0.066  0.00  0.00    -0.279 N 
ATOM      4  H   UNL     1      -7.918  -2.142   0.064  0.00  0.00    +0.155 HD
ENDROOT
BRANCH   3   5
ATOM      5  C   UNL     1      -8.424  -0.044   0.080  0.00  0.00    +0.084 A 
ATOM      6  C   UNL     1      -9.811  -0.076   0.087  0.00  0.00    +0.068 A 
ATOM      7  C   UNL     1     -10.513   1.196   0.106  0.00  0.00    -0.023 A 
ATOM      8  C   UNL     1      -9.720   2.290   0.104  0.00  0.00    -0.004 A 
ATOM      9  S   UNL     1      -8.069   1.652   0.086  0.00  0.00    -0.077 S 
ATOM     10  C   UNL     1     -10.158   3.722   0.115  0.00  0.00    +0.043 C 
ATOM     11  C   UNL     1     -11.649   3.775  -0.250  0.00  0.00    +0.005 C 
ATOM     12  C   UNL     1     -12.399   2.736   0.588  0.00  0.00    +0.005 C 
ATOM     13  C   UNL     1     -12.031   1.327   0.121  0.00  0.00    +0.037 C 
BRANCH   6  14
ATOM     14  C   UNL     1     -10.542  -1.348   0.081  0.00  0.00    +0.244 C 
ATOM     15  O   UNL     1     -10.840  -1.884   1.132  0.00  0.00    -0.270 OA
ATOM     16  N   UNL     1     -10.884  -1.922  -1.090  0.00  0.00    -0.325 N 
ATOM     17  H   UNL     1     -11.432  -2.876  -1.095  0.00  0.00    +0.145 HD
ATOM     18  H   UNL     1     -10.614  -1.438  -2.040  0.00  0.00    +0.145 HD
ENDBRANCH   6  14
ENDBRANCH   3   5
BRANCH   1  19
ATOM     19  C   UNL     1      -5.245  -2.040   0.039  0.00  0.00    +0.107 C 
BRANCH  19  20
ATOM     20  C   UNL     1      -3.810  -1.509   0.029  0.00  0.00    +0.085 C 
BRANCH  20  21
ATOM     21  S   UNL     1      -2.653  -2.901   0.010  0.00  0.00    -0.105 S 
BRANCH  21  25
ATOM     22  C   UNL     1       2.573  -2.840  -0.038  0.00  0.00    +0.044 C 
ATOM     23  C   UNL     1       1.269  -2.086  -0.022  0.00  0.00    -0.039 A 
ATOM     24  C   UNL     1       0.079  -2.749  -0.015  0.00  0.00    +0.038 A 
ATOM     25  C   UNL     1      -1.123  -2.026   0.001  0.00  0.00    +0.098 A 
ATOM     26  N   UNL     1      -1.135  -0.708   0.009  0.00  0.00    -0.240 NA
ATOM     27  C   UNL     1       0.002  -0.004   0.002  0.00  0.00    +0.072 A 
ATOM     28  C   UNL     1       1.249  -0.676  -0.013  0.00  0.00    +0.003 A 
ATOM     29  C   UNL     1       2.438   0.069  -0.020  0.00  0.00    +0.010 A 
ATOM     30  C   UNL     1       2.380   1.430  -0.012  0.00  0.00    +0.001 A 
ATOM     31  C   UNL     1       1.156   2.093   0.002  0.00  0.00    +0.002 A 
ATOM     32  C   UNL     1      -0.017   1.401   0.010  0.00  0.00    +0.028 A 
ENDBRANCH  21  25
ENDBRANCH  20  21
ENDBRANCH  19  20
ENDBRANCH   1  19
TORSDOF 6
