REMARK  Name = ZINC15959298
REMARK  6 active torsions:
REMARK  status: ('A' for Active; 'I' for Inactive)
REMARK    1  A    between atoms: C_4  and  C_7
REMARK    2  A    between atoms: C_7  and  C_8
REMARK    3  A    between atoms: C_8  and  N_9
REMARK    4  A    between atoms: C_14  and  C_32
REMARK    5  A    between atoms: C_32  and  C_33
REMARK    6  A    between atoms: C_36  and  O_39
REMARK                            x       y       z     vdW  Elec       q    Type
REMARK                         _______ _______ _______ _____ _____    ______ ____
ROOT
ATOM      1  N   UNL     1       5.450  -1.678   1.382  0.00  0.00    -0.241 N 
ATOM      2  C   UNL     1       5.532  -3.014   1.369  0.00  0.00    +0.227 C 
ATOM      3  O   UNL     1       4.587  -3.773   1.367  0.00  0.00    -0.275 OA
ATOM      4  C   UNL     1       6.986  -3.428   1.355  0.00  0.00    +0.107 C 
ATOM      5  C   UNL     1       7.334  -4.095   2.704  0.00  0.00    +0.072 C 
ATOM      6  N   UNL     1       8.624  -3.478   3.112  0.00  0.00    -0.295 NA
ATOM      7  C   UNL     1       8.491  -2.064   2.714  0.00  0.00    +0.136 C 
ATOM      8  C   UNL     1       7.745  -2.072   1.357  0.00  0.00    +0.122 C 
ATOM      9  C   UNL     1       6.631  -1.049   1.373  0.00  0.00    +0.228 C 
ATOM     10  O   UNL     1       6.784   0.153   1.379  0.00  0.00    -0.275 OA
ATOM     11  C   UNL     1       9.832  -1.397   2.596  0.00  0.00    +0.005 A 
ATOM     12  C   UNL     1      10.948  -1.643   1.828  0.00  0.00    +0.027 A 
ATOM     13  C   UNL     1      12.063  -0.831   1.946  0.00  0.00    +0.041 A 
ATOM     14  C   UNL     1      12.051   0.228   2.838  0.00  0.00    +0.022 A 
ATOM     15  C   UNL     1      10.935   0.477   3.608  0.00  0.00    +0.025 A 
ATOM     16  C   UNL     1       9.809  -0.336   3.495  0.00  0.00    +0.039 A 
ATOM     17  N   UNL     1       8.579  -0.287   4.154  0.00  0.00    -0.283 N 
ATOM     18  C   UNL     1       7.749  -1.269   3.754  0.00  0.00    +0.243 C 
ATOM     19  O   UNL     1       6.622  -1.474   4.153  0.00  0.00    -0.273 OA
ATOM     20 CL   UNL     1      13.471  -1.139   0.979  0.00  0.00    -0.084 Cl
ATOM     21  H   UNL     1       8.766  -3.562   4.107  0.00  0.00    +0.124 HD
ATOM     22  H   UNL     1       8.349   0.376   4.824  0.00  0.00    +0.155 HD
ENDROOT
BRANCH   1  23
ATOM     23  C   UNL     1       4.171  -0.963   1.399  0.00  0.00    +0.121 C 
BRANCH  23  24
ATOM     24  C   UNL     1       3.711  -0.707  -0.038  0.00  0.00    +0.054 C 
BRANCH  24  28
ATOM     25  C   UNL     1      -0.017   1.378   0.010  0.00  0.00    +0.000 A 
ATOM     26  C   UNL     1       1.171   2.086   0.002  0.00  0.00    +0.000 A 
ATOM     27  C   UNL     1       2.377   1.411  -0.013  0.00  0.00    +0.004 A 
ATOM     28  C   UNL     1       2.396   0.029  -0.020  0.00  0.00    -0.046 A 
ATOM     29  C   UNL     1       1.208  -0.679  -0.012  0.00  0.00    +0.004 A 
ATOM     30  C   UNL     1       0.002  -0.004   0.002  0.00  0.00    +0.000 A 
ENDBRANCH  24  28
ENDBRANCH  23  24
ENDBRANCH   1  23
BRANCH   5  31
ATOM     31  C   UNL     1       7.497  -5.606   2.524  0.00  0.00    +0.054 C 
BRANCH  31  32
ATOM     32  C   UNL     1       7.714  -6.250   3.869  0.00  0.00    -0.046 A 
ATOM     33  C   UNL     1       8.997  -6.399   4.364  0.00  0.00    +0.007 A 
ATOM     34  C   UNL     1       9.199  -6.990   5.596  0.00  0.00    +0.045 A 
ATOM     35  C   UNL     1       8.114  -7.435   6.337  0.00  0.00    +0.117 A 
ATOM     36  C   UNL     1       6.828  -7.284   5.838  0.00  0.00    +0.045 A 
ATOM     37  C   UNL     1       6.631  -6.688   4.608  0.00  0.00    +0.007 A 
BRANCH  35  38
ATOM     38  O   UNL     1       8.310  -8.017   7.549  0.00  0.00    -0.507 OA
ATOM     39  H   UNL     1       8.308  -7.395   8.289  0.00  0.00    +0.292 HD
ENDBRANCH  35  38
ENDBRANCH  31  32
ENDBRANCH   5  31
TORSDOF 6
