REMARK  Name = ZINC38581351
REMARK  5 active torsions:
REMARK  status: ('A' for Active; 'I' for Inactive)
REMARK    1  A    between atoms: C_7  and  C_10
REMARK    2  A    between atoms: N_11  and  N_12
REMARK    3  A    between atoms: C_23  and  S_28
REMARK    4  A    between atoms: C_25  and  N_27
REMARK    5  A    between atoms: S_28  and  C_31
REMARK                            x       y       z     vdW  Elec       q    Type
REMARK                         _______ _______ _______ _____ _____    ______ ____
ROOT
ATOM      1  N   UNL     1       0.579  -5.314   0.054  0.00  0.00    -0.186 N 
ATOM      2  C   UNL     1      -0.751  -4.941  -0.071  0.00  0.00    +0.166 A 
ATOM      3  C   UNL     1      -1.571  -6.046  -0.349  0.00  0.00    +0.111 A 
ATOM      4  N   UNL     1      -2.866  -5.906  -0.504  0.00  0.00    -0.245 NA
ATOM      5  C   UNL     1      -3.426  -4.696  -0.397  0.00  0.00    +0.090 A 
ATOM      6  C   UNL     1      -4.810  -4.518  -0.557  0.00  0.00    +0.030 A 
ATOM      7  C   UNL     1      -5.349  -3.274  -0.442  0.00  0.00    +0.002 A 
ATOM      8  C   UNL     1      -4.547  -2.168  -0.166  0.00  0.00    +0.002 A 
ATOM      9  C   UNL     1      -3.202  -2.302  -0.005  0.00  0.00    +0.030 A 
ATOM     10  C   UNL     1      -2.609  -3.572  -0.116  0.00  0.00    +0.091 A 
ATOM     11  N   UNL     1      -1.292  -3.733   0.037  0.00  0.00    -0.227 NA
ATOM     12  C   UNL     1      -0.697  -7.279  -0.417  0.00  0.00    +0.225 C 
ATOM     13  C   UNL     1       0.725  -6.757  -0.150  0.00  0.00    +0.195 C 
ENDROOT
BRANCH  13  14
ATOM     14  N   UNL     1       1.591  -7.023  -1.306  0.00  0.00    -0.309 NA
ATOM     15  H   UNL     1       2.472  -6.539  -1.216  0.00  0.00    +0.120 HD
ATOM     16  H   UNL     1       1.734  -8.014  -1.430  0.00  0.00    +0.120 HD
ENDBRANCH  13  14
BRANCH  12  17
ATOM     17  S   UNL     1      -0.793  -8.035  -2.063  0.00  0.00    +0.015 S 
ATOM     18  O   UNL     1      -0.447  -7.083  -3.059  0.00  0.00    -0.168 OA
ATOM     19  O   UNL     1      -0.187  -9.320  -2.047  0.00  0.00    -0.168 OA
BRANCH  17  20
ATOM     20  C   UNL     1      -2.508  -8.349  -2.317  0.00  0.00    +0.126 A 
ATOM     21  C   UNL     1      -3.448  -7.549  -2.877  0.00  0.00    +0.035 A 
ATOM     22  C   UNL     1      -4.748  -8.010  -2.974  0.00  0.00    +0.009 A 
ATOM     23  C   UNL     1      -5.044  -9.247  -2.507  0.00  0.00    +0.047 A 
ATOM     24  S   UNL     1      -3.456  -9.806  -1.912  0.00  0.00    -0.078 S 
ENDBRANCH  17  20
ENDBRANCH  12  17
BRANCH   1  26
ATOM     25  C   UNL     1       2.760  -4.973   0.508  0.00  0.00    +0.136 C 
ATOM     26  N   UNL     1       1.551  -4.505   0.307  0.00  0.00    -0.185 NA
BRANCH  25  33
ATOM     27  C   UNL     1       7.179  -5.683   1.232  0.00  0.00    +0.001 A 
ATOM     28  C   UNL     1       7.923  -4.506   1.340  0.00  0.00    +0.002 A 
ATOM     29  C   UNL     1       7.346  -3.283   1.234  0.00  0.00    +0.026 A 
ATOM     30  C   UNL     1       5.949  -3.179   1.007  0.00  0.00    +0.043 A 
ATOM     31  N   UNL     1       5.164  -2.130   0.869  0.00  0.00    -0.380 N 
ATOM     32  C   UNL     1       3.786  -2.580   0.650  0.00  0.00    +0.150 C 
ATOM     33  C   UNL     1       3.833  -4.092   0.673  0.00  0.00    +0.000 C 
ATOM     34  C   UNL     1       5.171  -4.423   0.893  0.00  0.00    +0.004 A 
ATOM     35  C   UNL     1       5.839  -5.660   1.014  0.00  0.00    +0.010 A 
ATOM     36  H   UNL     1       5.453  -1.204   0.906  0.00  0.00    +0.160 HD
ENDBRANCH  25  33
ENDBRANCH   1  26
TORSDOF 5
