REMARK  Name = ZINC21870270
REMARK  9 active torsions:
REMARK  status: ('A' for Active; 'I' for Inactive)
REMARK    1  A    between atoms: C_1  and  C_2
REMARK    2  A    between atoms: C_2  and  C_3
REMARK    3  A    between atoms: C_6  and  C_9
REMARK    4  A    between atoms: C_9  and  N_10
REMARK    5  A    between atoms: N_14  and  S_27
REMARK    6  A    between atoms: C_16  and  C_17
REMARK    7  A    between atoms: C_16  and  C_18
REMARK    8  A    between atoms: N_20  and  C_21
REMARK    9  A    between atoms: S_27  and  C_30
REMARK                            x       y       z     vdW  Elec       q    Type
REMARK                         _______ _______ _______ _____ _____    ______ ____
ROOT
ATOM      1  N   UNL     1      -1.910   1.925  -1.105  0.00  0.00    -0.281 N 
ATOM      2  C   UNL     1      -0.667   1.440  -1.122  0.00  0.00    +0.232 C 
ATOM      3  O   UNL     1      -0.175   1.148  -2.191  0.00  0.00    -0.274 OA
ATOM      4  C   UNL     1       0.151   1.238   0.124  0.00  0.00    +0.205 C 
ATOM      5  N   UNL     1      -0.505   1.929   1.244  0.00  0.00    -0.165 NA
ATOM      6  C   UNL     1      -1.971   1.800   1.349  0.00  0.00    +0.145 C 
ATOM      7  C   UNL     1      -2.596   2.400   0.088  0.00  0.00    +0.125 C 
ATOM      8  C   UNL     1      -2.494   3.926   0.153  0.00  0.00    +0.043 C 
ENDROOT
BRANCH   7   9
ATOM      9  C   UNL     1      -4.048   2.003   0.018  0.00  0.00    +0.238 C 
ATOM     10  O   UNL     1      -4.867   2.777  -0.430  0.00  0.00    -0.273 OA
ATOM     11  N   UNL     1      -4.435   0.787   0.452  0.00  0.00    -0.311 N 
ATOM     12  H   UNL     1      -3.683   0.052   0.774  0.00  0.00    +0.149 HD
BRANCH  11  13
ATOM     13  C   UNL     1      -5.859   0.445   0.496  0.00  0.00    +0.073 C 
ATOM     14  C   UNL     1      -6.488   1.040   1.757  0.00  0.00    +0.022 C 
ATOM     15  C   UNL     1      -7.975   0.682   1.803  0.00  0.00    +0.002 C 
ATOM     16  C   UNL     1      -8.133  -0.840   1.823  0.00  0.00    +0.000 C 
ATOM     17  C   UNL     1      -7.504  -1.434   0.561  0.00  0.00    +0.002 C 
ATOM     18  C   UNL     1      -6.017  -1.077   0.516  0.00  0.00    +0.022 C 
ENDBRANCH  11  13
ENDBRANCH   7   9
BRANCH   5  19
ATOM     19  S   UNL     1       0.366   2.816   2.339  0.00  0.00    +0.061 S 
ATOM     20  O   UNL     1      -0.407   2.864   3.530  0.00  0.00    -0.153 OA
ATOM     21  O   UNL     1       1.692   2.305   2.312  0.00  0.00    -0.153 OA
BRANCH  19  22
ATOM     22  C   UNL     1       0.449   4.465   1.726  0.00  0.00    +0.105 A 
ATOM     23  C   UNL     1       1.494   4.846   0.904  0.00  0.00    +0.028 A 
ATOM     24  C   UNL     1       1.556   6.139   0.419  0.00  0.00    +0.002 A 
ATOM     25  C   UNL     1       0.579   7.054   0.764  0.00  0.00    +0.000 A 
ATOM     26  C   UNL     1      -0.463   6.675   1.589  0.00  0.00    +0.002 A 
ATOM     27  C   UNL     1      -0.528   5.381   2.071  0.00  0.00    +0.028 A 
ENDBRANCH  19  22
ENDBRANCH   5  19
BRANCH   1  28
ATOM     28  C   UNL     1      -2.636   1.982  -2.376  0.00  0.00    +0.144 C 
BRANCH  28  32
ATOM     29  C   UNL     1      -4.420  -1.817  -3.171  0.00  0.00    -0.048 A 
ATOM     30  C   UNL     1      -5.171  -0.806  -2.601  0.00  0.00    +0.004 A 
ATOM     31  C   UNL     1      -4.594   0.423  -2.344  0.00  0.00    +0.005 A 
ATOM     32  C   UNL     1      -3.265   0.642  -2.656  0.00  0.00    -0.030 A 
ATOM     33  C   UNL     1      -2.515  -0.367  -3.231  0.00  0.00    +0.005 A 
ATOM     34  C   UNL     1      -3.091  -1.598  -3.484  0.00  0.00    +0.004 A 
BRANCH  29  36
ATOM     35  C   UNL     1      -5.646  -3.157  -4.858  0.00  0.00    +0.009 C 
ATOM     36  C   UNL     1      -5.049  -3.158  -3.450  0.00  0.00    +0.032 C 
ENDBRANCH  29  36
ENDBRANCH  28  32
ENDBRANCH   1  28
TORSDOF 7
