REMARK  Name = ZINC14466070
REMARK  6 active torsions:
REMARK  status: ('A' for Active; 'I' for Inactive)
REMARK    1  A    between atoms: C_1  and  C_2
REMARK    2  A    between atoms: C_5  and  N_9
REMARK    3  A    between atoms: C_6  and  C_8
REMARK    4  A    between atoms: N_9  and  S_10
REMARK    5  A    between atoms: S_10  and  C_13
REMARK    6  A    between atoms: C_26  and  C_29
REMARK                            x       y       z     vdW  Elec       q    Type
REMARK                         _______ _______ _______ _____ _____    ______ ____
ROOT
ATOM      1  C   UNL     1       1.524   2.285   0.122  0.00  0.00    +0.109 A 
ATOM      2  C   UNL     1       2.191   2.584  -1.052  0.00  0.00    +0.030 A 
ATOM      3  C   UNL     1       3.479   3.078  -1.011  0.00  0.00    +0.025 A 
ATOM      4  C   UNL     1       4.113   3.285   0.208  0.00  0.00    +0.031 A 
ATOM      5  C   UNL     1       3.428   2.991   1.392  0.00  0.00    -0.018 A 
ATOM      6  C   UNL     1       2.144   2.494   1.341  0.00  0.00    +0.034 A 
ATOM      7  C   UNL     1       4.128   3.250   2.668  0.00  0.00    +0.049 C 
ATOM      8  C   UNL     1       3.802   2.506   3.912  0.00  0.00    -0.023 C 
ATOM      9  C   UNL     1       4.902   2.412   4.649  0.00  0.00    -0.030 C 
ATOM     10  C   UNL     1       6.077   3.071   3.923  0.00  0.00    +0.033 C 
ATOM     11  C   UNL     1       5.642   2.948   2.457  0.00  0.00    +0.029 C 
ATOM     12  C   UNL     1       6.137   4.016   1.497  0.00  0.00    +0.106 C 
ATOM     13  N   UNL     1       5.426   3.769   0.224  0.00  0.00    -0.336 N 
ATOM     14  H   UNL     1       5.879   3.946  -0.616  0.00  0.00    +0.147 HD
ENDROOT
BRANCH  12  15
ATOM     15  C   UNL     1       5.800   5.386   2.025  0.00  0.00    -0.009 A 
ATOM     16  C   UNL     1       4.612   5.994   1.662  0.00  0.00    +0.007 A 
ATOM     17  C   UNL     1       4.300   7.249   2.149  0.00  0.00    +0.000 A 
ATOM     18  C   UNL     1       5.181   7.902   2.992  0.00  0.00    +0.001 A 
ATOM     19  C   UNL     1       6.371   7.299   3.351  0.00  0.00    +0.020 A 
ATOM     20  C   UNL     1       6.681   6.040   2.867  0.00  0.00    +0.046 A 
ATOM     21 CL   UNL     1       8.176   5.281   3.317  0.00  0.00    -0.083 Cl
ENDBRANCH  12  15
BRANCH   1  22
ATOM     22  S   UNL     1      -0.117   1.646   0.066  0.00  0.00    +0.072 S 
ATOM     23  O   UNL     1      -0.672   2.062  -1.175  0.00  0.00    -0.150 OA
ATOM     24  O   UNL     1      -0.719   1.962   1.313  0.00  0.00    -0.150 OA
BRANCH  22  25
ATOM     25  N   UNL     1       0.002  -0.004   0.002  0.00  0.00    -0.216 N 
ATOM     26  H   UNL     1      -0.362  -0.488  -0.756  0.00  0.00    +0.174 HD
BRANCH  25  31
ATOM     27  C   UNL     1       2.534  -2.830   4.216  0.00  0.00    +0.044 C 
ATOM     28  C   UNL     1       1.862  -2.079   3.096  0.00  0.00    -0.050 A 
ATOM     29  C   UNL     1       1.113  -0.950   3.375  0.00  0.00    +0.005 A 
ATOM     30  C   UNL     1       0.495  -0.259   2.351  0.00  0.00    +0.025 A 
ATOM     31  C   UNL     1       0.626  -0.700   1.040  0.00  0.00    +0.051 A 
ATOM     32  C   UNL     1       1.375  -1.837   0.764  0.00  0.00    -0.028 A 
ATOM     33  C   UNL     1       1.994  -2.520   1.793  0.00  0.00    +0.008 A 
ATOM     34  C   UNL     1       1.515  -2.322  -0.656  0.00  0.00    +0.046 C 
ENDBRANCH  25  31
ENDBRANCH  22  25
ENDBRANCH   1  22
TORSDOF 4
