REMARK  Name = ZINC13033997
REMARK  15 active torsions:
REMARK  status: ('A' for Active; 'I' for Inactive)
REMARK    1  A    between atoms: C_1  and  C_2
REMARK    2  A    between atoms: C_2  and  C_3
REMARK    3  A    between atoms: C_10  and  C_15
REMARK    4  A    between atoms: C_15  and  N_71
REMARK    5  A    between atoms: C_16  and  C_17
REMARK    6  A    between atoms: C_16  and  N_71
REMARK    7  A    between atoms: C_24  and  C_26
REMARK    8  A    between atoms: C_24  and  C_28
REMARK    9  A    between atoms: C_24  and  N_71
REMARK   10  A    between atoms: C_26  and  C_27
REMARK   11  A    between atoms: N_32  and  C_33
REMARK   12  A    between atoms: C_33  and  C_34
REMARK   13  A    between atoms: C_33  and  C_35
REMARK   14  A    between atoms: C_33  and  C_36
REMARK   15  A    between atoms: C_36  and  C_37
REMARK                            x       y       z     vdW  Elec       q    Type
REMARK                         _______ _______ _______ _____ _____    ______ ____
ROOT
ATOM      1  N   UNL     1      -0.660   2.308   0.782  0.00  0.00    +0.392 N 
ATOM      2  H   UNL     1      -0.416   1.841   1.663  0.00  0.00    -0.080 HD
ENDROOT
BRANCH   1   3
ATOM      3  C   UNL     1      -0.133   1.512  -0.346  0.00  0.00    -0.036 C 
BRANCH   3  11
ATOM      4  C   UNL     1      -3.215  -3.840  -0.715  0.00  0.00    -0.047 A 
ATOM      5  C   UNL     1      -2.351  -4.573   0.087  0.00  0.00    +0.005 A 
ATOM      6  C   UNL     1      -1.236  -3.983   0.643  0.00  0.00    +0.026 A 
ATOM      7  C   UNL     1      -0.972  -2.640   0.398  0.00  0.00    +0.049 A 
ATOM      8  C   UNL     1      -1.850  -1.900  -0.416  0.00  0.00    -0.001 A 
ATOM      9  C   UNL     1      -2.975  -2.520  -0.970  0.00  0.00    +0.013 A 
ATOM     10  C   UNL     1      -1.563  -0.487  -0.669  0.00  0.00    +0.017 A 
ATOM     11  C   UNL     1      -0.457   0.060  -0.106  0.00  0.00    +0.001 A 
ATOM     12  C   UNL     1       0.395  -0.727   0.698  0.00  0.00    +0.251 A 
ATOM     13  O   UNL     1       1.386  -0.217   1.190  0.00  0.00    -0.268 OA
ATOM     14  N   UNL     1       0.137  -2.025   0.939  0.00  0.00    -0.322 N 
ATOM     15  H   UNL     1       0.741  -2.536   1.500  0.00  0.00    +0.169 HD
BRANCH   4  17
ATOM     16  C   UNL     1      -4.067  -5.097  -2.676  0.00  0.00    +0.009 C 
ATOM     17  C   UNL     1      -4.428  -4.508  -1.311  0.00  0.00    +0.032 C 
ENDBRANCH   4  17
ENDBRANCH   3  11
ENDBRANCH   1   3
BRANCH   1  18
ATOM     18  C   UNL     1      -2.131   2.411   0.684  0.00  0.00    -0.042 C 
BRANCH  18  19
ATOM     19  C   UNL     1      -2.679   2.798   2.034  0.00  0.00    -0.064 A 
ATOM     20  C   UNL     1      -2.828   1.840   3.019  0.00  0.00    +0.004 A 
ATOM     21  C   UNL     1      -3.326   2.195   4.259  0.00  0.00    +0.038 A 
ATOM     22  C   UNL     1      -3.685   3.508   4.510  0.00  0.00    +0.123 A 
ATOM     23  C   UNL     1      -3.540   4.466   3.521  0.00  0.00    +0.038 A 
ATOM     24  C   UNL     1      -3.037   4.110   2.284  0.00  0.00    +0.004 A 
ATOM     25  F   UNL     1      -4.176   3.855   5.720  0.00  0.00    -0.205 F 
ENDBRANCH  18  19
ENDBRANCH   1  18
BRANCH   1  26
ATOM     26  C   UNL     1      -0.058   3.658   0.773  0.00  0.00    +0.003 C 
BRANCH  26  27
ATOM     27  C   UNL     1       0.089   4.128   2.197  0.00  0.00    +0.139 A 
ATOM     28  N   UNL     1      -0.830   4.091   3.132  0.00  0.00    -0.115 NA
ATOM     29  N   UNL     1      -0.321   4.581   4.209  0.00  0.00    -0.023 NA
ATOM     30  N   UNL     1       0.898   4.929   3.986  0.00  0.00    -0.043 NA
ATOM     31  N   UNL     1       1.190   4.661   2.758  0.00  0.00    -0.225 N 
BRANCH  31  32
ATOM     32  C   UNL     1       2.476   4.896   2.098  0.00  0.00    +0.061 C 
ATOM     33  C   UNL     1       3.086   3.558   1.679  0.00  0.00    +0.036 C 
ATOM     34  C   UNL     1       2.262   5.769   0.860  0.00  0.00    +0.036 C 
BRANCH  32  35
ATOM     35  C   UNL     1       3.424   5.608   3.066  0.00  0.00    +0.026 C 
ATOM     36  C   UNL     1       4.767   5.854   2.377  0.00  0.00    +0.006 C 
ENDBRANCH  32  35
ENDBRANCH  31  32
ENDBRANCH  26  27
BRANCH  26  37
ATOM     37  C   UNL     1      -0.950   4.634   0.003  0.00  0.00    -0.011 C 
ATOM     38  C   UNL     1      -0.955   4.260  -1.480  0.00  0.00    +0.002 C 
ENDBRANCH  26  37
ENDBRANCH   1  26
TORSDOF 10
