REMARK  Name = ZINC34932547
REMARK  6 active torsions:
REMARK  status: ('A' for Active; 'I' for Inactive)
REMARK    1  A    between atoms: C_4  and  C_7
REMARK    2  A    between atoms: C_7  and  N_8
REMARK    3  A    between atoms: N_11  and  C_12
REMARK    4  A    between atoms: N_11  and  C_21
REMARK    5  A    between atoms: C_12  and  C_13
REMARK    6  A    between atoms: C_14  and  C_15
REMARK                            x       y       z     vdW  Elec       q    Type
REMARK                         _______ _______ _______ _____ _____    ______ ____
ROOT
ATOM      1  N   UNL     1       6.066  -2.020   0.534  0.00  0.00    -0.295 N 
ATOM      2  C   UNL     1       5.311  -1.600   1.569  0.00  0.00    +0.303 C 
ATOM      3  O   UNL     1       4.311  -0.939   1.363  0.00  0.00    -0.253 OA
ATOM      4  N   UNL     1       5.663  -1.913   2.831  0.00  0.00    -0.275 N 
ATOM      5  H   UNL     1       6.902  -2.484   0.701  0.00  0.00    +0.151 HD
ENDROOT
BRANCH   4   6
ATOM      6  C   UNL     1       4.788  -1.549   3.948  0.00  0.00    +0.108 C 
ATOM      7  C   UNL     1       3.479  -2.329   3.837  0.00  0.00    +0.028 C 
ATOM      8  C   UNL     1       2.499  -1.778   4.879  0.00  0.00    +0.007 C 
ATOM      9  C   UNL     1       2.074  -0.377   4.447  0.00  0.00    +0.035 C 
ATOM     10  C   UNL     1       3.280   0.472   4.144  0.00  0.00    -0.042 A 
ATOM     11  C   UNL     1       4.525  -0.066   3.910  0.00  0.00    -0.024 A 
ATOM     12  C   UNL     1       5.595   0.773   3.628  0.00  0.00    +0.006 A 
ATOM     13  C   UNL     1       5.420   2.141   3.584  0.00  0.00    +0.000 A 
ATOM     14  C   UNL     1       4.170   2.681   3.821  0.00  0.00    +0.000 A 
ATOM     15  C   UNL     1       3.107   1.850   4.101  0.00  0.00    +0.004 A 
ENDBRANCH   4   6
BRANCH   1  16
ATOM     16  C   UNL     1       5.625  -1.777  -0.841  0.00  0.00    +0.141 C 
BRANCH  16  20
ATOM     17  C   UNL     1       8.500  -3.375  -3.566  0.00  0.00    +0.000 A 
ATOM     18  C   UNL     1       7.455  -4.164  -3.123  0.00  0.00    +0.000 A 
ATOM     19  C   UNL     1       6.524  -3.647  -2.241  0.00  0.00    +0.005 A 
ATOM     20  C   UNL     1       6.640  -2.341  -1.802  0.00  0.00    -0.030 A 
ATOM     21  C   UNL     1       7.686  -1.553  -2.244  0.00  0.00    +0.005 A 
ATOM     22  C   UNL     1       8.615  -2.070  -3.126  0.00  0.00    +0.000 A 
ENDBRANCH  16  20
ENDBRANCH   1  16
BRANCH   4  23
ATOM     23  C   UNL     1       6.922  -2.618   3.087  0.00  0.00    +0.137 C 
BRANCH  23  24
ATOM     24  C   UNL     1       8.027  -1.613   3.296  0.00  0.00    -0.007 C 
ATOM     25  C   UNL     1       8.759  -1.653   4.400  0.00  0.00    +0.005 C 
BRANCH  25  26
ATOM     26  C   UNL     1       9.842  -0.668   4.604  0.00  0.00    -0.025 A 
ATOM     27  C   UNL     1      10.092   0.309   3.640  0.00  0.00    +0.008 A 
ATOM     28  C   UNL     1      11.104   1.225   3.837  0.00  0.00    +0.001 A 
ATOM     29  C   UNL     1      11.871   1.177   4.987  0.00  0.00    +0.000 A 
ATOM     30  C   UNL     1      11.629   0.210   5.947  0.00  0.00    +0.001 A 
ATOM     31  C   UNL     1      10.615  -0.708   5.765  0.00  0.00    +0.008 A 
ENDBRANCH  25  26
ENDBRANCH  23  24
ENDBRANCH   4  23
TORSDOF 6
