REMARK  Name = ZINC01122052
REMARK  6 active torsions:
REMARK  status: ('A' for Active; 'I' for Inactive)
REMARK    1  A    between atoms: C_9  and  C_11
REMARK    2  A    between atoms: N_13  and  N_14
REMARK    3  A    between atoms: N_14  and  C_15
REMARK    4  A    between atoms: C_15  and  N_17
REMARK    5  A    between atoms: N_17  and  C_18
REMARK    6  A    between atoms: C_18  and  C_19
REMARK                            x       y       z     vdW  Elec       q    Type
REMARK                         _______ _______ _______ _____ _____    ______ ____
ROOT
ATOM      1  C   UNL     1       4.998   3.371  -0.027  0.00  0.00    +0.268 C 
ATOM      2  O   UNL     1       5.303   4.550  -0.025  0.00  0.00    -0.268 OA
ATOM      3  N   UNL     1       5.960   2.427  -0.041  0.00  0.00    -0.231 N 
ATOM      4  H   UNL     1       5.717   1.488  -0.043  0.00  0.00    +0.173 HD
ENDROOT
BRANCH   1  13
ATOM      5  C   UNL     1      -1.215   1.754   0.017  0.00  0.00    +0.002 A 
ATOM      6  C   UNL     1      -0.013   1.076   0.008  0.00  0.00    +0.016 A 
ATOM      7  C   UNL     1       1.169   1.786   0.001  0.00  0.00    +0.023 A 
ATOM      8  C   UNL     1       1.198   3.201   0.007  0.00  0.00    +0.022 A 
ATOM      9  C   UNL     1      -0.060   3.857   0.023  0.00  0.00    +0.028 A 
ATOM     10  C   UNL     1      -1.216   3.143   0.031  0.00  0.00    +0.016 A 
ATOM     11 BR   UNL     1      -0.127   5.747   0.033  0.00  0.00    -0.050 Br
ATOM     12  C   UNL     1       2.482   3.777  -0.002  0.00  0.00    +0.069 A 
ATOM     13  C   UNL     1       3.584   2.979  -0.016  0.00  0.00    +0.095 A 
ATOM     14  S   UNL     1       2.886   1.336  -0.018  0.00  0.00    -0.082 S 
ATOM     15 CL   UNL     1       2.660   5.504   0.006  0.00  0.00    -0.082 Cl
ENDBRANCH   1  13
BRANCH   3  16
ATOM     16  N   UNL     1       7.310   2.802  -0.051  0.00  0.00    -0.246 N 
ATOM     17  H   UNL     1       7.552   3.741  -0.049  0.00  0.00    +0.172 HD
BRANCH  16  18
ATOM     18  C   UNL     1       8.271   1.858  -0.065  0.00  0.00    +0.147 C 
ATOM     19  S   UNL     1       9.921   2.316  -0.078  0.00  0.00    -0.017 S 
BRANCH  18  20
ATOM     20  N   UNL     1       7.934   0.553  -0.067  0.00  0.00    -0.318 N 
ATOM     21  H   UNL     1       7.000   0.293  -0.060  0.00  0.00    +0.148 HD
BRANCH  20  22
ATOM     22  C   UNL     1       8.979  -0.474  -0.082  0.00  0.00    +0.177 C 
BRANCH  22  23
ATOM     23  C   UNL     1       8.342  -1.839  -0.082  0.00  0.00    +0.122 A 
ATOM     24  C   UNL     1       8.000  -2.547  -1.173  0.00  0.00    +0.046 A 
ATOM     25  C   UNL     1       7.439  -3.761  -0.715  0.00  0.00    +0.041 A 
ATOM     26  C   UNL     1       7.472  -3.723   0.629  0.00  0.00    +0.195 A 
ATOM     27  O   UNL     1       8.026  -2.559   1.007  0.00  0.00    -0.466 OA
ENDBRANCH  22  23
ENDBRANCH  20  22
ENDBRANCH  18  20
ENDBRANCH  16  18
ENDBRANCH   3  16
TORSDOF 6
