REMARK  Name = ZINC66079735
REMARK  6 active torsions:
REMARK  status: ('A' for Active; 'I' for Inactive)
REMARK    1  A    between atoms: C_1  and  C_2
REMARK    2  A    between atoms: C_7  and  C_30
REMARK    3  A    between atoms: N_12  and  C_16
REMARK    4  A    between atoms: C_16  and  N_17
REMARK    5  A    between atoms: C_20  and  N_23
REMARK    6  A    between atoms: C_24  and  C_26
REMARK                            x       y       z     vdW  Elec       q    Type
REMARK                         _______ _______ _______ _____ _____    ______ ____
ROOT
ATOM      1  C   UNL     1       0.904   1.505   4.347  0.00  0.00    +0.043 C 
ENDROOT
BRANCH   1  11
ATOM      2  C   UNL     1      -0.019   1.526   0.010  0.00  0.00    +0.010 C 
ATOM      3  C   UNL     1       0.002  -0.004   0.002  0.00  0.00    +0.019 C 
ATOM      4  C   UNL     1      -1.434  -0.533   0.012  0.00  0.00    +0.006 C 
ATOM      5  C   UNL     1      -1.413  -2.063   0.024  0.00  0.00    +0.001 C 
ATOM      6  C   UNL     1      -0.690  -2.554   1.280  0.00  0.00    +0.006 C 
ATOM      7  C   UNL     1       0.749  -2.033   1.276  0.00  0.00    +0.019 C 
ATOM      8  C   UNL     1       0.741  -0.509   1.237  0.00  0.00    +0.118 C 
ATOM      9  C   UNL     1       0.111   0.049   2.493  0.00  0.00    +0.245 C 
ATOM     10  O   UNL     1      -1.023  -0.123   2.884  0.00  0.00    -0.273 OA
ATOM     11  N   UNL     1       1.078   0.778   3.087  0.00  0.00    -0.241 N 
ATOM     12  C   UNL     1       2.217   0.755   2.383  0.00  0.00    +0.308 C 
ATOM     13  O   UNL     1       3.230   1.337   2.717  0.00  0.00    -0.252 OA
ATOM     14  N   UNL     1       2.113   0.013   1.264  0.00  0.00    -0.284 N 
ATOM     15  C   UNL     1       1.466  -2.505   2.542  0.00  0.00    +0.010 C 
ATOM     16  H   UNL     1       2.808  -0.145   0.606  0.00  0.00    +0.151 HD
ENDBRANCH   1  11
BRANCH   1  17
ATOM     17  N   UNL     1       1.257   0.629   5.472  0.00  0.00    +0.391 N 
ATOM     18  C   UNL     1       0.315  -0.495   5.529  0.00  0.00    -0.075 C 
ATOM     19  C   UNL     1       0.727  -1.454   6.648  0.00  0.00    +0.004 C 
ATOM     20  C   UNL     1       0.714  -0.706   7.984  0.00  0.00    +0.069 C 
ATOM     21  C   UNL     1       1.643   0.507   7.888  0.00  0.00    +0.004 C 
ATOM     22  C   UNL     1       1.198   1.393   6.723  0.00  0.00    -0.075 C 
ATOM     23  H   UNL     1       2.193   0.275   5.339  0.00  0.00    -0.079 HD
BRANCH  20  24
ATOM     24  N   UNL     1       1.180  -1.597   9.049  0.00  0.00    -0.312 N 
ATOM     25  C   UNL     1       0.801  -1.380  10.324  0.00  0.00    +0.216 C 
ATOM     26  O   UNL     1       0.075  -0.446  10.590  0.00  0.00    -0.276 OA
ATOM     27  H   UNL     1       1.761  -2.345   8.837  0.00  0.00    +0.149 HD
BRANCH  25  28
ATOM     28  C   UNL     1       1.281  -2.297  11.420  0.00  0.00    +0.075 C 
ATOM     29  C   UNL     1       0.452  -3.585  11.552  0.00  0.00    +0.013 C 
ATOM     30  C   UNL     1       0.579  -3.418  13.075  0.00  0.00    +0.001 C 
ATOM     31  C   UNL     1       0.761  -1.913  12.816  0.00  0.00    +0.013 C 
ENDBRANCH  25  28
ENDBRANCH  20  24
ENDBRANCH   1  17
TORSDOF 4
