REMARK  Name = ZINC60167267
REMARK  7 active torsions:
REMARK  status: ('A' for Active; 'I' for Inactive)
REMARK    1  A    between atoms: C_3  and  C_8
REMARK    2  A    between atoms: C_8  and  N_9
REMARK    3  A    between atoms: C_13  and  C_16
REMARK    4  A    between atoms: N_18  and  C_19
REMARK    5  A    between atoms: C_19  and  C_20
REMARK    6  A    between atoms: C_20  and  C_22
REMARK    7  A    between atoms: C_20  and  N_29
REMARK                            x       y       z     vdW  Elec       q    Type
REMARK                         _______ _______ _______ _____ _____    ______ ____
ROOT
ATOM      1  C   UNL     1       7.706   2.809   3.145  0.00  0.00    +0.214 C 
ATOM      2  O   UNL     1       8.394   2.669   2.156  0.00  0.00    -0.276 OA
ATOM      3  N   UNL     1       8.142   3.570   4.168  0.00  0.00    -0.313 N 
ATOM      4  H   UNL     1       7.591   3.682   4.958  0.00  0.00    +0.149 HD
ENDROOT
BRANCH   1   9
ATOM      5  N   UNL     1       4.799   0.677   2.027  0.00  0.00    +0.383 N 
ATOM      6  C   UNL     1       3.736   1.687   2.116  0.00  0.00    -0.078 C 
ATOM      7  C   UNL     1       3.901   2.493   3.406  0.00  0.00    -0.018 C 
ATOM      8  C   UNL     1       5.266   3.186   3.398  0.00  0.00    +0.009 C 
ATOM      9  C   UNL     1       6.363   2.130   3.230  0.00  0.00    +0.058 C 
ATOM     10  C   UNL     1       6.107   1.337   1.946  0.00  0.00    -0.066 C 
ATOM     11  H   UNL     1       4.770   0.088   2.845  0.00  0.00    -0.081 HD
BRANCH   5  12
ATOM     12  C   UNL     1       4.592  -0.144   0.827  0.00  0.00    -0.043 C 
BRANCH  12  15
ATOM     13  C   UNL     1       0.939  -1.079   0.636  0.00  0.00    +0.003 A 
ATOM     14  C   UNL     1       2.119  -0.371   0.511  0.00  0.00    +0.002 A 
ATOM     15  C   UNL     1       3.306  -0.918   0.963  0.00  0.00    -0.061 A 
ATOM     16  C   UNL     1       3.313  -2.174   1.540  0.00  0.00    +0.040 A 
ATOM     17  C   UNL     1       2.131  -2.884   1.665  0.00  0.00    +0.124 A 
ATOM     18  C   UNL     1       0.943  -2.335   1.212  0.00  0.00    +0.038 A 
ATOM     19  F   UNL     1       2.137  -4.112   2.228  0.00  0.00    -0.205 F 
ENDBRANCH  12  15
ENDBRANCH   5  12
ENDBRANCH   1   9
BRANCH   3  20
ATOM     20  C   UNL     1       9.447   4.230   4.085  0.00  0.00    +0.127 C 
BRANCH  20  21
ATOM     21  C   UNL     1       9.699   5.026   5.367  0.00  0.00    +0.104 C 
BRANCH  21  22
ATOM     22  C   UNL     1      10.984   5.802   5.232  0.00  0.00    -0.029 A 
ATOM     23  C   UNL     1      11.215   6.564   4.103  0.00  0.00    +0.006 A 
ATOM     24  C   UNL     1      12.393   7.277   3.979  0.00  0.00    +0.020 A 
ATOM     25  C   UNL     1      13.341   7.226   4.986  0.00  0.00    +0.041 A 
ATOM     26  C   UNL     1      13.108   6.463   6.116  0.00  0.00    +0.020 A 
ATOM     27  C   UNL     1      11.927   5.756   6.241  0.00  0.00    +0.006 A 
ATOM     28 CL   UNL     1      14.821   8.120   4.830  0.00  0.00    -0.084 Cl
ENDBRANCH  21  22
BRANCH  21  29
ATOM     29  N   UNL     1       8.585   5.957   5.591  0.00  0.00    -0.290 NA
ATOM     30  C   UNL     1       8.475   6.922   4.488  0.00  0.00    +0.113 C 
ATOM     31  C   UNL     1       7.269   7.833   4.732  0.00  0.00    +0.175 C 
ATOM     32  O   UNL     1       7.413   8.476   6.002  0.00  0.00    -0.377 OA
ATOM     33  C   UNL     1       7.522   7.566   7.099  0.00  0.00    +0.175 C 
ATOM     34  C   UNL     1       8.731   6.652   6.879  0.00  0.00    +0.113 C 
ENDBRANCH  21  29
ENDBRANCH  20  21
ENDBRANCH   3  20
TORSDOF 7
