REMARK  Name = ZINC05424071
REMARK  6 active torsions:
REMARK  status: ('A' for Active; 'I' for Inactive)
REMARK    1  A    between atoms: C_1  and  C_2
REMARK    2  A    between atoms: C_2  and  N_3
REMARK    3  A    between atoms: N_3  and  C_4
REMARK    4  A    between atoms: C_4  and  C_5
REMARK    5  A    between atoms: C_6  and  C_8
REMARK    6  A    between atoms: C_14  and  N_19
REMARK                            x       y       z     vdW  Elec       q    Type
REMARK                         _______ _______ _______ _____ _____    ______ ____
ROOT
ATOM      1  C   UNL     1       0.426  -2.927   0.549  0.00  0.00    +0.080 C 
ATOM      2  C   UNL     1       1.438  -3.880   1.197  0.00  0.00    +0.019 C 
ATOM      3  C   UNL     1       0.794  -5.260   1.317  0.00  0.00    +0.056 C 
ATOM      4  C   UNL     1       0.216  -5.689  -0.004  0.00  0.00    +0.051 A 
ATOM      5  C   UNL     1      -0.039  -4.803  -1.022  0.00  0.00    +0.014 A 
ATOM      6  C   UNL     1      -0.592  -5.292  -2.212  0.00  0.00    +0.125 A 
ATOM      7  N   UNL     1      -0.849  -6.590  -2.323  0.00  0.00    -0.200 NA
ATOM      8  C   UNL     1      -0.584  -7.414  -1.320  0.00  0.00    +0.214 A 
ATOM      9  N   UNL     1      -0.064  -6.977  -0.184  0.00  0.00    -0.219 NA
ATOM     10  N   UNL     1      -0.858  -8.763  -1.462  0.00  0.00    -0.327 N 
ATOM     11  C   UNL     1       0.250  -3.331  -0.914  0.00  0.00    +0.053 C 
ATOM     12  H   UNL     1      -1.240  -9.095  -2.290  0.00  0.00    +0.145 HD
ATOM     13  H   UNL     1      -0.669  -9.376  -0.735  0.00  0.00    +0.145 HD
ENDROOT
BRANCH   1  15
ATOM     14  N   UNL     1       0.125  -0.481   0.333  0.00  0.00    -0.302 N 
ATOM     15  C   UNL     1       0.942  -1.513   0.625  0.00  0.00    +0.219 C 
ATOM     16  O   UNL     1       2.091  -1.303   0.949  0.00  0.00    -0.275 OA
BRANCH  14  18
ATOM     17  C   UNL     1       0.434   1.464   1.782  0.00  0.00    +0.024 C 
ATOM     18  C   UNL     1       0.634   0.892   0.378  0.00  0.00    +0.104 C 
ENDBRANCH  14  18
BRANCH  14  19
ATOM     19  C   UNL     1      -1.272  -0.733  -0.030  0.00  0.00    +0.104 C 
ATOM     20  C   UNL     1      -1.417  -0.697  -1.553  0.00  0.00    +0.024 C 
ENDBRANCH  14  19
ENDBRANCH   1  15
BRANCH   6  21
ATOM     21  N   UNL     1      -0.869  -4.432  -3.262  0.00  0.00    -0.343 N 
ATOM     22  H   UNL     1      -0.680  -3.484  -3.175  0.00  0.00    +0.144 HD
ATOM     23  H   UNL     1      -1.252  -4.777  -4.084  0.00  0.00    +0.144 HD
ENDBRANCH   6  21
TORSDOF 4
