REMARK  Name = ZINC02559778
REMARK  4 active torsions:
REMARK  status: ('A' for Active; 'I' for Inactive)
REMARK    1  A    between atoms: C_2  and  C_17
REMARK    2  A    between atoms: C_5  and  N_8
REMARK    3  A    between atoms: C_9  and  N_15
REMARK    4  A    between atoms: C_11  and  C_13
REMARK                            x       y       z     vdW  Elec       q    Type
REMARK                         _______ _______ _______ _____ _____    ______ ____
ROOT
ATOM      1  C   UNL     1       0.851   7.276  -0.487  0.00  0.00    +0.034 A 
ATOM      2  C   UNL     1       2.228   7.373  -0.557  0.00  0.00    +0.058 A 
ATOM      3  C   UNL     1       3.009   6.234  -0.480  0.00  0.00    +0.034 A 
ATOM      4  C   UNL     1       2.415   4.995  -0.330  0.00  0.00    +0.068 A 
ATOM      5  C   UNL     1       1.031   4.895  -0.258  0.00  0.00    +0.104 A 
ATOM      6  C   UNL     1       0.249   6.040  -0.342  0.00  0.00    +0.068 A 
ATOM      7 CL   UNL     1      -1.481   5.920  -0.260  0.00  0.00    -0.081 Cl
ATOM      8 CL   UNL     1       3.396   3.566  -0.233  0.00  0.00    -0.081 Cl
ENDROOT
BRANCH   5   9
ATOM      9  N   UNL     1       0.424   3.640  -0.107  0.00  0.00    -0.215 N 
ATOM     10  C   UNL     1      -0.438   3.283   0.884  0.00  0.00    +0.121 A 
ATOM     11  C   UNL     1      -0.802   1.992   0.671  0.00  0.00    +0.084 A 
ATOM     12  C   UNL     1      -0.133   1.540  -0.486  0.00  0.00    +0.164 A 
ATOM     13  N   UNL     1       0.599   2.535  -0.950  0.00  0.00    -0.154 NA
BRANCH  10  14
ATOM     14  N   UNL     1      -0.874   4.097   1.927  0.00  0.00    -0.343 N 
ATOM     15  H   UNL     1      -0.481   4.975   2.053  0.00  0.00    +0.144 HD
ATOM     16  H   UNL     1      -1.570   3.786   2.526  0.00  0.00    +0.144 HD
ENDBRANCH  10  14
BRANCH  12  17
ATOM     17  C   UNL     1      -0.234   0.232  -1.059  0.00  0.00    +0.121 C 
ATOM     18  N   UNL     1      -0.314  -0.805  -1.514  0.00  0.00    -0.189 NA
ENDBRANCH  12  17
ENDBRANCH   5   9
BRANCH   2  19
ATOM     19  C   UNL     1       2.880   8.722  -0.720  0.00  0.00    +0.418 C 
ATOM     20  F   UNL     1       3.023   9.009  -2.082  0.00  0.00    -0.166 F 
ATOM     21  F   UNL     1       2.083   9.701  -0.118  0.00  0.00    -0.166 F 
ATOM     22  F   UNL     1       4.140   8.707  -0.112  0.00  0.00    -0.166 F 
ENDBRANCH   2  19
TORSDOF 4
