REMARK  Name = ZINC14019165
REMARK  8 active torsions:
REMARK  status: ('A' for Active; 'I' for Inactive)
REMARK    1  A    between atoms: C_1  and  C_2
REMARK    2  A    between atoms: C_2  and  C_3
REMARK    3  A    between atoms: C_3  and  C_4
REMARK    4  A    between atoms: C_4  and  N_5
REMARK    5  A    between atoms: C_9  and  N_18
REMARK    6  A    between atoms: C_19  and  C_21
REMARK    7  A    between atoms: N_26  and  S_28
REMARK    8  A    between atoms: S_28  and  C_31
REMARK                            x       y       z     vdW  Elec       q    Type
REMARK                         _______ _______ _______ _____ _____    ______ ____
ROOT
ATOM      1  N   UNL     1      -1.221   6.071   0.044  0.00  0.00    -0.285 N 
ATOM      2  C   UNL     1      -1.132   7.412   0.152  0.00  0.00    +0.222 C 
ATOM      3  O   UNL     1      -0.045   7.950   0.144  0.00  0.00    -0.275 OA
ATOM      4  H   UNL     1      -2.091   5.647  -0.030  0.00  0.00    +0.155 HD
ENDROOT
BRANCH   1   9
ATOM      5  N   UNL     1       3.277   2.758  -0.110  0.00  0.00    -0.267 N 
ATOM      6  C   UNL     1       2.328   3.759   0.067  0.00  0.00    +0.045 A 
ATOM      7  C   UNL     1       2.282   5.012   0.654  0.00  0.00    +0.026 A 
ATOM      8  C   UNL     1       1.103   5.751   0.633  0.00  0.00    +0.026 A 
ATOM      9  C   UNL     1      -0.064   5.293   0.041  0.00  0.00    +0.041 A 
ATOM     10  C   UNL     1      -0.049   4.020  -0.567  0.00  0.00    +0.006 A 
ATOM     11  C   UNL     1       1.153   3.311  -0.523  0.00  0.00    +0.017 A 
ATOM     12  C   UNL     1       1.336   2.034  -1.078  0.00  0.00    +0.047 A 
ATOM     13  C   UNL     1       0.240   1.464  -1.703  0.00  0.00    +0.014 A 
ATOM     14  C   UNL     1      -0.964   2.163  -1.759  0.00  0.00    +0.001 A 
ATOM     15  C   UNL     1      -1.134   3.407  -1.210  0.00  0.00    +0.010 A 
ATOM     16  C   UNL     1       2.736   1.710  -0.786  0.00  0.00    +0.251 C 
ATOM     17  O   UNL     1       3.312   0.683  -1.094  0.00  0.00    -0.270 OA
BRANCH   5  18
ATOM     18  C   UNL     1       4.661   2.823   0.365  0.00  0.00    +0.114 C 
BRANCH  18  19
ATOM     19  C   UNL     1       5.543   3.445  -0.719  0.00  0.00    +0.019 C 
BRANCH  19  21
ATOM     20  C   UNL     1       7.872   4.135  -1.308  0.00  0.00    +0.004 C 
ATOM     21  C   UNL     1       6.989   3.513  -0.224  0.00  0.00    -0.002 C 
ENDBRANCH  19  21
ENDBRANCH  18  19
ENDBRANCH   5  18
ENDBRANCH   1   9
BRANCH   2  22
ATOM     22  C   UNL     1      -2.383   8.242   0.281  0.00  0.00    +0.091 C 
ATOM     23  C   UNL     1      -3.267   8.030  -0.950  0.00  0.00    +0.015 C 
ATOM     24  C   UNL     1      -4.553   8.847  -0.804  0.00  0.00    +0.018 C 
ATOM     25  C   UNL     1      -4.199  10.335  -0.714  0.00  0.00    +0.109 C 
ATOM     26  N   UNL     1      -3.235  10.527   0.379  0.00  0.00    -0.176 NA
ATOM     27  C   UNL     1      -2.005   9.723   0.385  0.00  0.00    +0.122 C 
BRANCH  26  28
ATOM     28  S   UNL     1      -3.530  11.627   1.580  0.00  0.00    +0.061 S 
ATOM     29  O   UNL     1      -2.265  11.985   2.122  0.00  0.00    -0.153 OA
ATOM     30  O   UNL     1      -4.427  12.588   1.041  0.00  0.00    -0.153 OA
BRANCH  28  31
ATOM     31  C   UNL     1      -4.403  10.783   2.857  0.00  0.00    +0.106 A 
ATOM     32  C   UNL     1      -5.785  10.747   2.841  0.00  0.00    +0.030 A 
ATOM     33  C   UNL     1      -6.471  10.081   3.839  0.00  0.00    +0.022 A 
ATOM     34  C   UNL     1      -5.774   9.459   4.860  0.00  0.00    +0.041 A 
ATOM     35  C   UNL     1      -4.392   9.501   4.879  0.00  0.00    +0.022 A 
ATOM     36  C   UNL     1      -3.707  10.163   3.877  0.00  0.00    +0.030 A 
ATOM     37 CL   UNL     1      -6.635   8.628   6.117  0.00  0.00    -0.084 Cl
ENDBRANCH  28  31
ENDBRANCH  26  28
ENDBRANCH   2  22
TORSDOF 7
