REMARK  Name = ZINC40986318
REMARK  8 active torsions:
REMARK  status: ('A' for Active; 'I' for Inactive)
REMARK    1  A    between atoms: C_4  and  C_7
REMARK    2  A    between atoms: C_7  and  S_8
REMARK    3  A    between atoms: S_8  and  C_11
REMARK    4  A    between atoms: C_14  and  C_18
REMARK    5  A    between atoms: N_20  and  C_21
REMARK    6  A    between atoms: C_21  and  C_22
REMARK    7  A    between atoms: C_22  and  C_24
REMARK    8  A    between atoms: C_22  and  N_29
REMARK                            x       y       z     vdW  Elec       q    Type
REMARK                         _______ _______ _______ _____ _____    ______ ____
ROOT
ATOM      1  C   UNL     1       5.798  -1.847   1.336  0.00  0.00    +0.272 A 
ATOM      2  N   UNL     1       5.792  -3.150   1.133  0.00  0.00    -0.219 NA
ATOM      3  C   UNL     1       6.917  -3.842   1.121  0.00  0.00    +0.130 A 
ATOM      4  C   UNL     1       8.127  -3.171   1.330  0.00  0.00    +0.092 A 
ATOM      5  C   UNL     1       8.086  -1.787   1.542  0.00  0.00    +0.146 A 
ATOM      6  N   UNL     1       6.914  -1.173   1.532  0.00  0.00    -0.199 NA
ATOM      7 CL   UNL     1       9.549  -0.891   1.808  0.00  0.00    -0.061 Cl
ENDROOT
BRANCH   4   8
ATOM      8  C   UNL     1       9.412  -3.902   1.327  0.00  0.00    +0.248 C 
ATOM      9  O   UNL     1      10.453  -3.302   1.510  0.00  0.00    -0.270 OA
ATOM     10  N   UNL     1       9.429  -5.234   1.121  0.00  0.00    -0.312 N 
ATOM     11  H   UNL     1       8.598  -5.713   0.975  0.00  0.00    +0.149 HD
BRANCH  10  12
ATOM     12  C   UNL     1      10.702  -5.958   1.119  0.00  0.00    +0.094 C 
BRANCH  12  13
ATOM     13  C   UNL     1      10.435  -7.460   0.998  0.00  0.00    -0.013 C 
BRANCH  13  14
ATOM     14  N   UNL     1      11.711  -8.175   0.863  0.00  0.00    +0.386 N 
ATOM     15  C   UNL     1      11.468  -9.634   0.724  0.00  0.00    -0.078 C 
ATOM     16  C   UNL     1      12.764 -10.146   0.048  0.00  0.00    -0.020 C 
ATOM     17  C   UNL     1      13.116  -9.005  -0.934  0.00  0.00    -0.020 C 
ATOM     18  C   UNL     1      12.400  -7.761  -0.378  0.00  0.00    -0.078 C 
ATOM     19  H   UNL     1      12.297  -7.994   1.664  0.00  0.00    -0.081 HD
ENDBRANCH  13  14
BRANCH  13  20
ATOM     20  C   UNL     1       9.715  -7.942   2.231  0.00  0.00    -0.022 A 
ATOM     21  C   UNL     1       8.395  -8.192   2.406  0.00  0.00    +0.009 A 
ATOM     22  C   UNL     1       7.954  -8.634   3.639  0.00  0.00    +0.008 A 
ATOM     23  C   UNL     1       8.855  -8.806   4.637  0.00  0.00    +0.045 A 
ATOM     24  S   UNL     1      10.383  -8.342   3.838  0.00  0.00    -0.103 S 
ENDBRANCH  13  20
ENDBRANCH  12  13
ENDBRANCH  10  12
ENDBRANCH   4   8
BRANCH   1  25
ATOM     25  S   UNL     1       4.266  -0.977   1.339  0.00  0.00    +0.036 S 
ATOM     26  O   UNL     1       4.501   0.170   2.145  0.00  0.00    -0.166 OA
ATOM     27  O   UNL     1       3.300  -1.946   1.723  0.00  0.00    -0.166 OA
BRANCH  25  28
ATOM     28  C   UNL     1       4.005  -0.485  -0.387  0.00  0.00    +0.210 C 
BRANCH  28  32
ATOM     29  C   UNL     1       0.331   1.668  -0.718  0.00  0.00    +0.000 A 
ATOM     30  C   UNL     1       1.507   2.345  -0.459  0.00  0.00    +0.000 A 
ATOM     31  C   UNL     1       2.696   1.648  -0.351  0.00  0.00    +0.005 A 
ATOM     32  C   UNL     1       2.709   0.274  -0.503  0.00  0.00    -0.026 A 
ATOM     33  C   UNL     1       1.532  -0.403  -0.761  0.00  0.00    +0.005 A 
ATOM     34  C   UNL     1       0.343   0.294  -0.870  0.00  0.00    +0.000 A 
ENDBRANCH  28  32
ENDBRANCH  25  28
ENDBRANCH   1  25
TORSDOF 8
