REMARK  Name = ZINC39448777
REMARK  7 active torsions:
REMARK  status: ('A' for Active; 'I' for Inactive)
REMARK    1  A    between atoms: C_4  and  C_7
REMARK    2  A    between atoms: C_7  and  C_10
REMARK    3  A    between atoms: N_8  and  O_9
REMARK    4  A    between atoms: N_11  and  O_12
REMARK    5  A    between atoms: N_13  and  CA_14
REMARK    6  A    between atoms: CA_14  and  C_16
REMARK    7  A    between atoms: CA_14  and  C_23
REMARK                            x       y       z     vdW  Elec       q    Type
REMARK                         _______ _______ _______ _____ _____    ______ ____
ROOT
ATOM      1  C   UNL     1       3.708  -2.169   0.068  0.00  0.00    +0.188 C 
ATOM      2  N   UNL     1       2.586  -2.825   0.075  0.00  0.00    -0.070 NA
ATOM      3  N   UNL     1       4.910  -2.851   0.162  0.00  0.00    -0.308 N 
ATOM      4  H   UNL     1       5.747  -2.361   0.157  0.00  0.00    +0.149 HD
ENDROOT
BRANCH   1   5
ATOM      5  C   UNL     1       3.701  -0.693  -0.041  0.00  0.00    +0.152 C 
ATOM      6  N   UNL     1       4.824  -0.043  -0.156  0.00  0.00    -0.083 NA
BRANCH   5  10
ATOM      7  C   UNL     1       0.017   1.426   0.023  0.00  0.00    +0.000 A 
ATOM      8  C   UNL     1       0.636   1.085   1.212  0.00  0.00    +0.001 A 
ATOM      9  C   UNL     1       1.832   0.397   1.198  0.00  0.00    +0.010 A 
ATOM     10  C   UNL     1       2.416   0.046  -0.019  0.00  0.00    +0.007 A 
ATOM     11  C   UNL     1       1.788   0.393  -1.214  0.00  0.00    +0.010 A 
ATOM     12  C   UNL     1       0.592   1.081  -1.187  0.00  0.00    +0.001 A 
ENDBRANCH   5  10
BRANCH   6  13
ATOM     13  O   UNL     1       4.826   1.373  -0.152  0.00  0.00    -0.409 OA
ATOM     14  H   UNL     1       5.705   1.765  -0.242  0.00  0.00    +0.328 HD
ENDBRANCH   6  13
ENDBRANCH   1   5
BRANCH   2  15
ATOM     15  O   UNL     1       1.355  -2.125   0.088  0.00  0.00    -0.408 OA
ATOM     16  H   UNL     1       0.579  -2.695   0.170  0.00  0.00    +0.328 HD
ENDBRANCH   2  15
BRANCH   3  17
ATOM     17  CA  UNL     1       4.917  -4.312   0.270  0.00  0.00    +0.216 C 
BRANCH  17  18
ATOM     18  C   UNL     1       6.184  -4.759   0.952  0.00  0.00    -0.016 A 
ATOM     19  C   UNL     1       7.383  -4.135   0.661  0.00  0.00    +0.007 A 
ATOM     20  C   UNL     1       8.546  -4.545   1.286  0.00  0.00    +0.015 A 
ATOM     21  C   UNL     1       8.509  -5.580   2.204  0.00  0.00    +0.018 A 
ATOM     22  C   UNL     1       7.309  -6.204   2.495  0.00  0.00    +0.015 A 
ATOM     23  C   UNL     1       6.147  -5.790   1.872  0.00  0.00    +0.007 A 
ATOM     24 BR   UNL     1      10.099  -6.141   3.060  0.00  0.00    -0.050 Br
ENDBRANCH  17  18
BRANCH  17  25
ATOM     25  C   UNL     1       4.848  -4.917  -1.109  0.00  0.00    +0.380 C 
ATOM     26  O   UNL     1       5.328  -4.324  -2.060  0.00  0.00    -0.244 OA
ATOM     27  OXT UNL     1       4.312  -6.000  -1.273  0.00  0.00    -0.244 OA
ENDBRANCH  17  25
ENDBRANCH   3  17
TORSDOF 7
