REMARK  Name = ZINC13567772
REMARK  4 active torsions:
REMARK  status: ('A' for Active; 'I' for Inactive)
REMARK    1  A    between atoms: C_1  and  C_2
REMARK    2  A    between atoms: C_9  and  C_28
REMARK    3  A    between atoms: C_10  and  N_27
REMARK    4  A    between atoms: N_11  and  C_19
REMARK                            x       y       z     vdW  Elec       q    Type
REMARK                         _______ _______ _______ _____ _____    ______ ____
ROOT
ATOM      1  C   UNL     1      -0.977  10.322   0.049  0.00  0.00    +0.044 C 
ATOM      2  C   UNL     1      -2.375   9.759   0.057  0.00  0.00    -0.050 A 
ATOM      3  C   UNL     1      -3.451  10.623   0.063  0.00  0.00    +0.005 A 
ATOM      4  C   UNL     1      -4.759  10.166   0.071  0.00  0.00    +0.024 A 
ATOM      5  C   UNL     1      -4.953   8.784   0.071  0.00  0.00    +0.038 A 
ATOM      6  C   UNL     1      -3.852   7.918   0.066  0.00  0.00    -0.001 A 
ATOM      7  C   UNL     1      -2.554   8.380   0.058  0.00  0.00    +0.010 A 
ATOM      8  C   UNL     1      -4.410   6.528   0.070  0.00  0.00    +0.141 C 
ATOM      9  C   UNL     1      -3.991   5.788   1.306  0.00  0.00    +0.089 C 
ATOM     10  C   UNL     1      -3.051   4.807   1.250  0.00  0.00    +0.108 C 
ATOM     11  N   UNL     1      -2.466   4.483   0.047  0.00  0.00    -0.259 N 
ATOM     12  C   UNL     1      -3.067   4.821  -1.137  0.00  0.00    +0.025 C 
ATOM     13  C   UNL     1      -4.004   5.792  -1.180  0.00  0.00    +0.037 C 
ATOM     14  C   UNL     1      -4.624   6.147  -2.390  0.00  0.00    +0.162 C 
ATOM     15  O   UNL     1      -5.476   7.013  -2.392  0.00  0.00    -0.292 OA
ATOM     16  C   UNL     1      -4.253   5.474  -3.684  0.00  0.00    +0.080 C 
ATOM     17  C   UNL     1      -2.799   5.000  -3.600  0.00  0.00    +0.014 C 
ATOM     18  C   UNL     1      -2.659   4.078  -2.386  0.00  0.00    +0.052 C 
ATOM     19  C   UNL     1      -5.912   6.731   0.075  0.00  0.00    +0.238 C 
ATOM     20  O   UNL     1      -6.756   5.860   0.077  0.00  0.00    -0.274 OA
ATOM     21  N   UNL     1      -6.132   8.061   0.077  0.00  0.00    -0.284 N 
ATOM     22  H   UNL     1      -7.015   8.464   0.082  0.00  0.00    +0.155 HD
ENDROOT
BRANCH  11  23
ATOM     23  C   UNL     1      -1.246   3.796   0.033  0.00  0.00    +0.059 A 
ATOM     24  C   UNL     1      -0.050   4.502   0.025  0.00  0.00    +0.025 A 
ATOM     25  C   UNL     1       1.153   3.822   0.011  0.00  0.00    +0.003 A 
ATOM     26  C   UNL     1       1.167   2.439   0.004  0.00  0.00    +0.021 A 
ATOM     27  C   UNL     1      -0.021   1.732   0.012  0.00  0.00    +0.061 A 
ATOM     28  C   UNL     1      -1.229   2.407   0.021  0.00  0.00    +0.081 A 
ATOM     29 CL   UNL     1      -2.721   1.519   0.024  0.00  0.00    -0.080 Cl
ATOM     30 CL   UNL     1       0.002  -0.004   0.002  0.00  0.00    -0.082 Cl
ENDBRANCH  11  23
BRANCH  10  31
ATOM     31  N   UNL     1      -2.681   4.142   2.394  0.00  0.00    -0.345 N 
ATOM     32  H   UNL     1      -2.007   3.445   2.354  0.00  0.00    +0.144 HD
ATOM     33  H   UNL     1      -3.093   4.369   3.242  0.00  0.00    +0.144 HD
ENDBRANCH  10  31
BRANCH   9  34
ATOM     34  C   UNL     1      -4.595   6.116   2.562  0.00  0.00    +0.100 C 
ATOM     35  N   UNL     1      -5.074   6.375   3.559  0.00  0.00    -0.191 NA
ENDBRANCH   9  34
TORSDOF 3
