REMARK  Name = ZINC09409966
REMARK  10 active torsions:
REMARK  status: ('A' for Active; 'I' for Inactive)
REMARK    1  A    between atoms: C_1  and  C_2
REMARK    2  A    between atoms: C_3  and  C_38
REMARK    3  A    between atoms: C_11  and  O_13
REMARK    4  A    between atoms: O_13  and  C_14
REMARK    5  A    between atoms: C_14  and  C_15
REMARK    6  A    between atoms: N_17  and  C_18
REMARK    7  A    between atoms: C_18  and  C_19
REMARK    8  A    between atoms: C_23  and  C_27
REMARK    9  A    between atoms: N_29  and  C_30
REMARK   10  A    between atoms: C_30  and  C_31
REMARK                            x       y       z     vdW  Elec       q    Type
REMARK                         _______ _______ _______ _____ _____    ______ ____
ROOT
ATOM      1  C   UNL     1       4.752   1.642  -0.034  0.00  0.00    +0.251 C 
ATOM      2  O   UNL     1       4.600   0.439  -0.038  0.00  0.00    -0.272 OA
ATOM      3  N   UNL     1       5.995   2.163  -0.043  0.00  0.00    -0.312 N 
ATOM      4  H   UNL     1       6.117   3.126  -0.039  0.00  0.00    +0.149 HD
ENDROOT
BRANCH   1   5
ATOM      5  C   UNL     1       3.553   2.553  -0.018  0.00  0.00    +0.324 C 
BRANCH   5   6
ATOM      6  O   UNL     1       2.358   1.768  -0.011  0.00  0.00    -0.481 OA
BRANCH   6  17
ATOM      7  C   UNL     1      -3.819   3.803   0.059  0.00  0.00    +0.045 C 
ATOM      8  C   UNL     1      -2.500   4.530   0.050  0.00  0.00    -0.030 A 
ATOM      9  C   UNL     1      -2.452   5.888   0.057  0.00  0.00    +0.037 A 
ATOM     10  C   UNL     1      -1.205   6.546   0.049  0.00  0.00    +0.340 A 
ATOM     11  O   UNL     1      -1.176   7.763   0.056  0.00  0.00    -0.245 OA
ATOM     12  O   UNL     1      -0.048   5.865   0.034  0.00  0.00    -0.422 OA
ATOM     13  C   UNL     1      -0.026   4.514   0.026  0.00  0.00    +0.143 A 
ATOM     14  C   UNL     1      -1.234   3.793   0.034  0.00  0.00    +0.022 A 
ATOM     15  C   UNL     1      -1.216   2.394   0.021  0.00  0.00    +0.035 A 
ATOM     16  C   UNL     1      -0.021   1.732   0.012  0.00  0.00    +0.083 A 
ATOM     17  C   UNL     1       1.179   2.441   0.004  0.00  0.00    +0.143 A 
ATOM     18  C   UNL     1       1.178   3.826   0.011  0.00  0.00    +0.094 A 
ATOM     19 CL   UNL     1       0.002  -0.004   0.002  0.00  0.00    -0.080 Cl
ATOM     20  C   UNL     1      -3.728   6.689   0.074  0.00  0.00    +0.051 C 
ENDBRANCH   6  17
ENDBRANCH   5   6
ENDBRANCH   1   5
BRANCH   3  21
ATOM     21  C   UNL     1       7.162   1.277  -0.058  0.00  0.00    +0.107 C 
BRANCH  21  22
ATOM     22  C   UNL     1       8.440   2.118  -0.066  0.00  0.00    +0.006 C 
ATOM     23  C   UNL     1       8.544   2.900   1.245  0.00  0.00    +0.006 C 
ATOM     24  C   UNL     1       9.823   3.741   1.237  0.00  0.00    +0.013 C 
ATOM     25  C   UNL     1      11.037   2.820   1.095  0.00  0.00    +0.075 C 
ATOM     26  C   UNL     1      10.933   2.037  -0.215  0.00  0.00    +0.013 C 
ATOM     27  C   UNL     1       9.654   1.197  -0.207  0.00  0.00    +0.006 C 
BRANCH  25  28
ATOM     28  C   UNL     1      12.296   3.648   1.088  0.00  0.00    +0.216 C 
ATOM     29  O   UNL     1      13.038   3.615   0.129  0.00  0.00    -0.276 OA
ATOM     30  N   UNL     1      12.598   4.425   2.147  0.00  0.00    -0.313 N 
ATOM     31  H   UNL     1      12.005   4.451   2.914  0.00  0.00    +0.149 HD
BRANCH  30  32
ATOM     32  C   UNL     1      13.823   5.229   2.139  0.00  0.00    +0.135 C 
BRANCH  32  33
ATOM     33  C   UNL     1      13.926   6.012   3.450  0.00  0.00    +0.135 C 
ATOM     34  C   UNL     1      15.212   6.862   3.452  0.00  0.00    +0.035 C 
ATOM     35  C   UNL     1      14.706   8.314   3.635  0.00  0.00    +0.031 C 
ATOM     36  C   UNL     1      13.301   8.093   4.250  0.00  0.00    +0.160 C 
ATOM     37  O   UNL     1      12.816   6.917   3.568  0.00  0.00    -0.375 OA
ENDBRANCH  32  33
ENDBRANCH  30  32
ENDBRANCH  25  28
ENDBRANCH  21  22
ENDBRANCH   3  21
TORSDOF 8
