REMARK  Name = ZINC39674387
REMARK  11 active torsions:
REMARK  status: ('A' for Active; 'I' for Inactive)
REMARK    1  A    between atoms: C_1  and  C_2
REMARK    2  A    between atoms: C_3  and  C_12
REMARK    3  A    between atoms: C_7  and  O_8
REMARK    4  A    between atoms: O_8  and  C_9
REMARK    5  A    between atoms: C_9  and  C_11
REMARK    6  A    between atoms: C_16  and  C_25
REMARK    7  A    between atoms: N_27  and  C_28
REMARK    8  A    between atoms: C_28  and  C_30
REMARK    9  A    between atoms: C_28  and  C_31
REMARK   10  A    between atoms: C_32  and  C_38
REMARK   11  A    between atoms: C_35  and  C_37
REMARK                            x       y       z     vdW  Elec       q    Type
REMARK                         _______ _______ _______ _____ _____    ______ ____
ROOT
ATOM      1  C   UNL     1       0.200  -1.335  -0.800  0.00  0.00    +0.247 C 
ATOM      2  O   UNL     1       0.392  -0.134  -0.797  0.00  0.00    -0.270 OA
ATOM      3  N   UNL     1       0.184  -2.011  -1.965  0.00  0.00    -0.296 N 
ATOM      4  C   UNL     1      -0.128  -3.444  -2.179  0.00  0.00    +0.121 C 
ATOM      5  C   UNL     1      -0.954  -3.473  -3.484  0.00  0.00    +0.100 C 
ATOM      6  C   UNL     1      -0.553  -2.190  -4.231  0.00  0.00    -0.004 C 
ATOM      7  C   UNL     1       0.468  -1.489  -3.323  0.00  0.00    +0.115 C 
ATOM      8  C   UNL     1      -1.772  -1.294  -4.434  0.00  0.00    -0.010 C 
ATOM      9  C   UNL     1      -1.359  -0.052  -5.228  0.00  0.00    -0.082 C 
ATOM     10  N   UNL     1      -0.805  -0.459  -6.525  0.00  0.00    +0.379 N 
ATOM     11  C   UNL     1       0.419  -1.243  -6.322  0.00  0.00    -0.082 C 
ATOM     12  C   UNL     1       0.082  -2.536  -5.574  0.00  0.00    -0.010 C 
ATOM     13  H   UNL     1      -1.484  -1.020  -7.018  0.00  0.00    -0.086 HD
ATOM     14  H   UNL     1      -0.591   0.362  -7.070  0.00  0.00    -0.086 HD
ENDROOT
BRANCH   1  17
ATOM     15  C   UNL     1      -1.262  -0.045   1.338  0.00  0.00    +0.048 C 
ATOM     16  C   UNL     1      -0.719  -1.440   1.513  0.00  0.00    +0.004 A 
ATOM     17  C   UNL     1      -0.015  -2.052   0.475  0.00  0.00    +0.043 A 
ATOM     18  C   UNL     1       0.485  -3.344   0.645  0.00  0.00    +0.013 A 
ATOM     19  C   UNL     1       0.282  -4.011   1.835  0.00  0.00    +0.004 A 
ATOM     20  C   UNL     1      -0.416  -3.404   2.863  0.00  0.00    +0.047 A 
ATOM     21  C   UNL     1      -0.913  -2.116   2.705  0.00  0.00    +0.135 A 
BRANCH  21  22
ATOM     22  O   UNL     1      -1.593  -1.522   3.720  0.00  0.00    -0.426 OA
BRANCH  22  23
ATOM     23  C   UNL     1      -0.953  -0.596   4.452  0.00  0.00    +0.309 C 
ATOM     24  O   UNL     1       0.221  -0.382   4.261  0.00  0.00    -0.251 OA
ATOM     25  C   UNL     1      -1.697   0.174   5.512  0.00  0.00    +0.136 C 
ENDBRANCH  22  23
ENDBRANCH  21  22
ENDBRANCH   1  17
BRANCH   5  26
ATOM     26  C   UNL     1      -2.428  -3.463  -3.172  0.00  0.00    +0.219 C 
ATOM     27  O   UNL     1      -2.841  -2.845  -2.214  0.00  0.00    -0.275 OA
ATOM     28  N   UNL     1      -3.288  -4.141  -3.959  0.00  0.00    -0.309 N 
ATOM     29  H   UNL     1      -2.958  -4.635  -4.725  0.00  0.00    +0.149 HD
BRANCH  28  30
ATOM     30  C   UNL     1      -4.721  -4.131  -3.656  0.00  0.00    +0.100 C 
ATOM     31  C   UNL     1      -5.391  -2.971  -4.395  0.00  0.00    +0.033 C 
BRANCH  30  32
ATOM     32  C   UNL     1      -5.338  -5.432  -4.099  0.00  0.00    -0.001 C 
ATOM     33  C   UNL     1      -5.960  -6.345  -3.351  0.00  0.00    +0.063 C 
ATOM     34  N   UNL     1      -6.379  -7.383  -4.108  0.00  0.00    -0.159 NA
ATOM     35  N   UNL     1      -6.110  -7.283  -5.308  0.00  0.00    -0.180 NA
ATOM     36  C   UNL     1      -5.401  -6.007  -5.504  0.00  0.00    +0.154 C 
ATOM     37  C   UNL     1      -3.993  -6.252  -6.052  0.00  0.00    +0.039 C 
ATOM     38  C   UNL     1      -6.167  -6.234  -1.862  0.00  0.00    +0.067 C 
ENDBRANCH  30  32
ENDBRANCH  28  30
ENDBRANCH   5  26
TORSDOF 6
