REMARK  Name = ZINC63854827
REMARK  8 active torsions:
REMARK  status: ('A' for Active; 'I' for Inactive)
REMARK    1  A    between atoms: C_1  and  C_2
REMARK    2  A    between atoms: C_4  and  S_20
REMARK    3  A    between atoms: C_6  and  C_7
REMARK    4  A    between atoms: N_9  and  C_10
REMARK    5  A    between atoms: N_9  and  C_11
REMARK    6  A    between atoms: C_11  and  C_12
REMARK    7  A    between atoms: C_11  and  C_13
REMARK    8  A    between atoms: S_20  and  N_23
REMARK                            x       y       z     vdW  Elec       q    Type
REMARK                         _______ _______ _______ _____ _____    ______ ____
ROOT
ATOM      1  C   UNL     1       0.481  -0.198   2.792  0.00  0.00    +0.254 C 
ATOM      2  O   UNL     1       0.641   0.930   3.220  0.00  0.00    -0.269 OA
ATOM      3  N   UNL     1      -0.022  -1.157   3.594  0.00  0.00    -0.293 N 
ATOM      4  C   UNL     1      -0.180  -2.524   3.091  0.00  0.00    +0.133 C 
ENDROOT
BRANCH   1  10
ATOM      5  C   UNL     1       1.344   1.832   0.593  0.00  0.00    +0.045 C 
ATOM      6  C   UNL     1       1.223   0.344   0.387  0.00  0.00    -0.029 A 
ATOM      7  C   UNL     1       1.497  -0.251  -0.822  0.00  0.00    +0.040 A 
ATOM      8  C   UNL     1       1.368  -1.595  -0.938  0.00  0.00    +0.143 A 
ATOM      9  S   UNL     1       0.871  -2.095   0.587  0.00  0.00    -0.064 S 
ATOM     10  C   UNL     1       0.833  -0.512   1.405  0.00  0.00    +0.079 A 
BRANCH   8  11
ATOM     11  S   UNL     1       1.655  -2.591  -2.364  0.00  0.00    +0.062 S 
ATOM     12  O   UNL     1       0.887  -3.774  -2.194  0.00  0.00    -0.153 OA
ATOM     13  O   UNL     1       1.504  -1.739  -3.491  0.00  0.00    -0.153 OA
BRANCH  11  14
ATOM     14  N   UNL     1       3.246  -3.050  -2.327  0.00  0.00    -0.203 NA
ATOM     15  H   UNL     1       3.818  -2.760  -1.600  0.00  0.00    +0.144 HD
ATOM     16  H   UNL     1       3.606  -3.609  -3.034  0.00  0.00    +0.144 HD
ENDBRANCH  11  14
ENDBRANCH   8  11
ENDBRANCH   1  10
BRANCH   3  17
ATOM     17  C   UNL     1      -0.410  -0.834   4.969  0.00  0.00    +0.103 C 
ATOM     18  C   UNL     1      -1.855  -1.278   5.209  0.00  0.00    +0.033 C 
BRANCH  17  19
ATOM     19  C   UNL     1       0.502  -1.551   5.931  0.00  0.00    -0.027 A 
ATOM     20  C   UNL     1       1.203  -0.834   6.883  0.00  0.00    +0.008 A 
ATOM     21  C   UNL     1       2.040  -1.490   7.765  0.00  0.00    +0.038 A 
ATOM     22  C   UNL     1       2.176  -2.867   7.696  0.00  0.00    +0.123 A 
ATOM     23  C   UNL     1       1.473  -3.583   6.742  0.00  0.00    +0.038 A 
ATOM     24  C   UNL     1       0.633  -2.925   5.864  0.00  0.00    +0.008 A 
ATOM     25  F   UNL     1       2.994  -3.509   8.558  0.00  0.00    -0.205 F 
ENDBRANCH  17  19
ENDBRANCH   3  17
TORSDOF 5
