REMARK  Name = ZINC58013043
REMARK  7 active torsions:
REMARK  status: ('A' for Active; 'I' for Inactive)
REMARK    1  A    between atoms: C_1  and  C_2
REMARK    2  A    between atoms: C_3  and  C_27
REMARK    3  A    between atoms: C_4  and  C_20
REMARK    4  A    between atoms: C_9  and  S_11
REMARK    5  A    between atoms: S_11  and  C_12
REMARK    6  A    between atoms: C_12  and  C_13
REMARK    7  A    between atoms: C_23  and  O_26
REMARK                            x       y       z     vdW  Elec       q    Type
REMARK                         _______ _______ _______ _____ _____    ______ ____
ROOT
ATOM      1  C   UNL     1      -0.714   0.588  -1.233  0.00  0.00    +0.062 C 
ATOM      2  C   UNL     1      -1.025   1.849  -1.996  0.00  0.00    +0.034 C 
ATOM      3  C   UNL     1      -0.645   3.169  -1.389  0.00  0.00    +0.148 C 
ATOM      4  C   UNL     1      -0.274   4.192  -2.469  0.00  0.00    +0.158 C 
ATOM      5  N   UNL     1      -1.236   4.063  -3.564  0.00  0.00    -0.220 N 
ATOM      6  C   UNL     1      -1.843   2.884  -3.868  0.00  0.00    +0.250 A 
ATOM      7  N   UNL     1      -2.626   3.092  -4.896  0.00  0.00    -0.184 NA
ATOM      8  C   UNL     1      -2.552   4.376  -5.264  0.00  0.00    +0.211 A 
ATOM      9  N   UNL     1      -1.711   5.006  -4.468  0.00  0.00    -0.141 NA
ATOM     10  N   UNL     1      -1.603   1.748  -3.149  0.00  0.00    -0.220 NA
ENDROOT
BRANCH   4  11
ATOM     11  C   UNL     1      -0.338   5.584  -1.895  0.00  0.00    -0.022 A 
ATOM     12  C   UNL     1      -0.158   5.781  -0.539  0.00  0.00    +0.009 A 
ATOM     13  C   UNL     1      -0.216   7.056  -0.011  0.00  0.00    +0.046 A 
ATOM     14  C   UNL     1      -0.455   8.140  -0.843  0.00  0.00    +0.117 A 
ATOM     15  C   UNL     1      -0.635   7.940  -2.204  0.00  0.00    +0.046 A 
ATOM     16  C   UNL     1      -0.571   6.663  -2.728  0.00  0.00    +0.009 A 
BRANCH  14  17
ATOM     17  O   UNL     1      -0.513   9.395  -0.326  0.00  0.00    -0.507 OA
ATOM     18  H   UNL     1       0.339   9.852  -0.304  0.00  0.00    +0.292 HD
ENDBRANCH  14  17
ENDBRANCH   4  11
BRANCH   3  19
ATOM     19  C   UNL     1      -1.808   3.697  -0.588  0.00  0.00    +0.221 C 
ATOM     20  O   UNL     1      -2.707   4.293  -1.144  0.00  0.00    -0.275 OA
ATOM     21  N   UNL     1      -1.849   3.507   0.746  0.00  0.00    -0.329 N 
ATOM     22  H   UNL     1      -1.131   3.031   1.190  0.00  0.00    +0.145 HD
ATOM     23  H   UNL     1      -2.598   3.847   1.261  0.00  0.00    +0.145 HD
ENDBRANCH   3  19
BRANCH   8  24
ATOM     24  S   UNL     1      -3.438   5.109  -6.599  0.00  0.00    -0.080 S 
BRANCH  24  25
ATOM     25  C   UNL     1      -4.408   3.739  -7.287  0.00  0.00    +0.112 C 
BRANCH  25  26
ATOM     26  C   UNL     1      -5.223   4.236  -8.453  0.00  0.00    -0.037 A 
ATOM     27  C   UNL     1      -6.496   4.734  -8.244  0.00  0.00    +0.004 A 
ATOM     28  C   UNL     1      -7.244   5.190  -9.313  0.00  0.00    +0.000 A 
ATOM     29  C   UNL     1      -6.719   5.149 -10.592  0.00  0.00    +0.000 A 
ATOM     30  C   UNL     1      -5.446   4.652 -10.800  0.00  0.00    +0.000 A 
ATOM     31  C   UNL     1      -4.697   4.199  -9.730  0.00  0.00    +0.004 A 
ENDBRANCH  25  26
ENDBRANCH  24  25
ENDBRANCH   8  24
TORSDOF 6
