REMARK  Name = ZINC06162437
REMARK  15 active torsions:
REMARK  status: ('A' for Active; 'I' for Inactive)
REMARK    1  A    between atoms: C_1  and  C_2
REMARK    2  A    between atoms: C_2  and  C_3
REMARK    3  A    between atoms: C_3  and  O_4
REMARK    4  A    between atoms: O_4  and  C_5
REMARK    5  A    between atoms: C_8  and  C_11
REMARK    6  A    between atoms: N_12  and  N_13
REMARK    7  A    between atoms: N_18  and  C_19
REMARK    8  A    between atoms: C_19  and  C_20
REMARK    9  A    between atoms: C_20  and  C_22
REMARK   10  A    between atoms: C_20  and  O_32
REMARK   11  A    between atoms: C_22  and  O_23
REMARK   12  A    between atoms: O_23  and  C_24
REMARK   13  A    between atoms: C_27  and  C_30
REMARK   14  A    between atoms: C_30  and  C_31
REMARK   15  A    between atoms: N_39  and  C_40
REMARK                            x       y       z     vdW  Elec       q    Type
REMARK                         _______ _______ _______ _____ _____    ______ ____
ROOT
ATOM      1  N   UNL     1       3.632  -6.916   2.038  0.00  0.00    -0.206 N 
ATOM      2  C   UNL     1       3.499  -7.214   0.701  0.00  0.00    +0.218 A 
ATOM      3  N   UNL     1       3.318  -8.421   0.204  0.00  0.00    -0.195 NA
ATOM      4  C   UNL     1       3.234  -8.358  -1.125  0.00  0.00    +0.170 A 
ATOM      5  C   UNL     1       3.364  -7.022  -1.491  0.00  0.00    +0.153 A 
ATOM      6  N   UNL     1       3.529  -6.308  -0.313  0.00  0.00    -0.302 N 
ATOM      7  C   UNL     1       3.311  -6.675  -2.853  0.00  0.00    +0.280 A 
ATOM      8  O   UNL     1       3.423  -5.511  -3.197  0.00  0.00    -0.265 OA
ATOM      9  N   UNL     1       3.134  -7.644  -3.775  0.00  0.00    -0.273 N 
ATOM     10  H   UNL     1       3.095  -7.401  -4.744  0.00  0.00    +0.173 HD
ATOM     11  C   UNL     1       3.009  -8.932  -3.410  0.00  0.00    +0.331 A 
ATOM     12  O   UNL     1       2.851  -9.779  -4.269  0.00  0.00    -0.246 OA
ATOM     13  N   UNL     1       3.054  -9.308  -2.118  0.00  0.00    -0.280 N 
ATOM     14  C   UNL     1       2.914 -10.722  -1.762  0.00  0.00    +0.155 C 
ATOM     15  H   UNL     1       3.760  -5.997   2.320  0.00  0.00    +0.177 HD
ENDROOT
BRANCH   1  17
ATOM     16  C   UNL     1       3.710  -7.660   4.253  0.00  0.00    +0.138 C 
ATOM     17  N   UNL     1       3.584  -7.941   2.992  0.00  0.00    -0.188 NA
BRANCH  16  21
ATOM     18  C   UNL     1       3.561 -10.765   7.145  0.00  0.00    +0.121 A 
ATOM     19  C   UNL     1       3.745  -9.449   7.551  0.00  0.00    +0.046 A 
ATOM     20  C   UNL     1       3.794  -8.438   6.616  0.00  0.00    +0.013 A 
ATOM     21  C   UNL     1       3.659  -8.738   5.258  0.00  0.00    -0.005 A 
ATOM     22  C   UNL     1       3.468 -10.063   4.855  0.00  0.00    +0.013 A 
ATOM     23  C   UNL     1       3.425 -11.068   5.796  0.00  0.00    +0.046 A 
BRANCH  18  24
ATOM     24  O   UNL     1       3.513 -11.758   8.070  0.00  0.00    -0.492 OA
BRANCH  24  25
ATOM     25  C   UNL     1       3.321 -13.088   7.585  0.00  0.00    +0.229 C 
BRANCH  25  27
ATOM     26  C   UNL     1       3.088 -15.487   8.244  0.00  0.00    +0.007 C 
ATOM     27  C   UNL     1       3.293 -14.063   8.764  0.00  0.00    +0.038 C 
ENDBRANCH  25  27
ENDBRANCH  24  25
ENDBRANCH  18  24
ENDBRANCH  16  21
ENDBRANCH   1  17
BRANCH   6  28
ATOM     28  C   UNL     1       3.708  -4.859  -0.186  0.00  0.00    +0.160 C 
BRANCH  28  29
ATOM     29  C   UNL     1       2.341  -4.188  -0.044  0.00  0.00    +0.172 C 
BRANCH  29  30
ATOM     30  O   UNL     1       1.732  -4.602   1.181  0.00  0.00    -0.387 OA
ATOM     31  H   UNL     1       2.243  -4.378   1.970  0.00  0.00    +0.210 HD
ENDBRANCH  29  30
BRANCH  29  32
ATOM     32  C   UNL     1       2.518  -2.668  -0.037  0.00  0.00    +0.262 C 
BRANCH  32  33
ATOM     33  O   UNL     1       1.234  -2.039  -0.021  0.00  0.00    -0.489 OA
BRANCH  33  34
ATOM     34  C   UNL     1       1.213  -0.680  -0.013  0.00  0.00    +0.121 A 
ATOM     35  C   UNL     1       0.002  -0.004   0.002  0.00  0.00    +0.046 A 
ATOM     36  C   UNL     1      -0.017   1.377   0.010  0.00  0.00    +0.007 A 
ATOM     37  C   UNL     1       1.171   2.086   0.002  0.00  0.00    -0.047 A 
ATOM     38  C   UNL     1       2.379   1.415  -0.013  0.00  0.00    +0.007 A 
ATOM     39  C   UNL     1       2.403   0.033  -0.021  0.00  0.00    +0.046 A 
BRANCH  37  40
ATOM     40  C   UNL     1       1.147   3.593   0.010  0.00  0.00    +0.032 C 
ATOM     41  C   UNL     1       1.153   4.095   1.455  0.00  0.00    +0.009 C 
ENDBRANCH  37  40
ENDBRANCH  33  34
ENDBRANCH  32  33
ENDBRANCH  29  32
ENDBRANCH  28  29
ENDBRANCH   6  28
TORSDOF 12
