REMARK  Name = ZINC36594865
REMARK  5 active torsions:
REMARK  status: ('A' for Active; 'I' for Inactive)
REMARK    1  A    between atoms: C_1  and  C_2
REMARK    2  A    between atoms: C_7  and  C_9
REMARK    3  A    between atoms: C_17  and  C_19
REMARK    4  A    between atoms: N_25  and  C_26
REMARK    5  A    between atoms: C_26  and  C_27
REMARK                            x       y       z     vdW  Elec       q    Type
REMARK                         _______ _______ _______ _____ _____    ______ ____
ROOT
ATOM      1  C   UNL     1       0.090  -5.172   3.144  0.00  0.00    +0.185 C 
ATOM      2  C   UNL     1      -1.160  -4.901   4.018  0.00  0.00    +0.199 C 
ATOM      3  S   UNL     1      -1.587  -6.631   4.510  0.00  0.00    -0.013 S 
ATOM      4  O   UNL     1      -0.806  -7.010   5.635  0.00  0.00    -0.173 OA
ATOM      5  O   UNL     1      -2.999  -6.778   4.546  0.00  0.00    -0.173 OA
ATOM      6  C   UNL     1      -0.919  -7.448   2.993  0.00  0.00    +0.275 C 
ATOM      7  N   UNL     1       0.179  -6.530   2.633  0.00  0.00    -0.267 N 
ATOM      8  C   UNL     1       1.213  -6.934   1.870  0.00  0.00    +0.238 C 
ATOM      9  O   UNL     1       2.102  -6.156   1.592  0.00  0.00    -0.273 OA
ENDROOT
BRANCH   1  16
ATOM     10  C   UNL     1      -0.018   1.503   0.010  0.00  0.00    +0.066 C 
ATOM     11  C   UNL     1       0.002  -0.004   0.002  0.00  0.00    +0.047 A 
ATOM     12  C   UNL     1       0.006  -0.706  -1.158  0.00  0.00    +0.071 A 
ATOM     13  S   UNL     1       0.032  -2.379  -0.535  0.00  0.00    -0.060 S 
ATOM     14  C   UNL     1       0.036  -2.015   1.108  0.00  0.00    +0.165 A 
ATOM     15  N   UNL     1       0.053  -2.891   2.187  0.00  0.00    -0.263 N 
ATOM     16  C   UNL     1       0.070  -4.222   1.974  0.00  0.00    +0.241 C 
ATOM     17  O   UNL     1       0.070  -4.655   0.841  0.00  0.00    -0.273 OA
ATOM     18  N   UNL     1       0.023  -0.700   1.124  0.00  0.00    -0.230 NA
ATOM     19  H   UNL     1       0.054  -2.545   3.093  0.00  0.00    +0.157 HD
ENDBRANCH   1  16
BRANCH   8  20
ATOM     20  C   UNL     1       1.266  -8.351   1.361  0.00  0.00    +0.163 C 
ATOM     21  C   UNL     1       1.808  -9.293   2.459  0.00  0.00    +0.041 C 
ATOM     22  C   UNL     1       3.318  -9.328   2.127  0.00  0.00    +0.098 C 
ATOM     23  C   UNL     1       3.381  -8.997   0.653  0.00  0.00    +0.217 C 
ATOM     24  O   UNL     1       4.342  -9.191  -0.062  0.00  0.00    -0.276 OA
ATOM     25  N   UNL     1       2.217  -8.457   0.248  0.00  0.00    -0.279 N 
BRANCH  25  26
ATOM     26  C   UNL     1       1.934  -8.029  -1.124  0.00  0.00    +0.197 C 
BRANCH  26  27
ATOM     27  C   UNL     1       2.324  -6.619  -1.289  0.00  0.00    -0.086 C 
ATOM     28  C   UNL     1       2.635  -5.495  -1.421  0.00  0.00    +0.005 C 
ENDBRANCH  26  27
ENDBRANCH  25  26
ENDBRANCH   8  20
TORSDOF 4
