REMARK  Name = ZINC58886180
REMARK  17 active torsions:
REMARK  status: ('A' for Active; 'I' for Inactive)
REMARK    1  A    between atoms: C_1  and  C_2
REMARK    2  A    between atoms: C_2  and  C_3
REMARK    3  A    between atoms: C_3  and  N_22
REMARK    4  A    between atoms: N_10  and  C_13
REMARK    5  A    between atoms: C_14  and  C_21
REMARK    6  A    between atoms: C_16  and  C_20
REMARK    7  A    between atoms: C_18  and  C_19
REMARK    8  A    between atoms: N_22  and  C_23
REMARK    9  A    between atoms: C_23  and  C_25
REMARK   10  A    between atoms: C_23  and  C_26
REMARK   11  A    between atoms: C_26  and  C_27
REMARK   12  A    between atoms: C_27  and  C_28
REMARK   13  A    between atoms: C_28  and  N_29
REMARK   14  A    between atoms: N_29  and  C_30
REMARK   15  A    between atoms: N_29  and  C_32
REMARK   16  A    between atoms: C_30  and  C_31
REMARK   17  A    between atoms: C_32  and  C_33
REMARK                            x       y       z     vdW  Elec       q    Type
REMARK                         _______ _______ _______ _____ _____    ______ ____
ROOT
ATOM      1  C   UNL     1      -0.112   0.450   2.467  0.00  0.00    +0.021 C 
ATOM      2  C   UNL     1      -0.558   0.364   3.773  0.00  0.00    +0.116 C 
ATOM      3  C   UNL     1      -1.917   0.791   4.151  0.00  0.00    +0.258 C 
ATOM      4  O   UNL     1      -2.688   1.232   3.319  0.00  0.00    -0.270 OA
ATOM      5  N   UNL     1      -2.284   0.679   5.445  0.00  0.00    -0.235 N 
ATOM      6  C   UNL     1      -1.445   0.194   6.371  0.00  0.00    +0.320 C 
ATOM      7  O   UNL     1      -1.837   0.119   7.519  0.00  0.00    -0.251 OA
ATOM      8  N   UNL     1      -0.197  -0.211   6.099  0.00  0.00    -0.189 N 
ATOM      9  C   UNL     1       0.303  -0.162   4.847  0.00  0.00    +0.265 C 
ATOM     10  O   UNL     1       1.436  -0.538   4.612  0.00  0.00    -0.269 OA
ATOM     11  H   UNL     1      -3.175   0.955   5.710  0.00  0.00    +0.159 HD
ENDROOT
BRANCH   8  12
ATOM     12  C   UNL     1       0.605  -0.703   7.138  0.00  0.00    +0.052 A 
ATOM     13  C   UNL     1       1.406   0.164   7.868  0.00  0.00    -0.028 A 
ATOM     14  C   UNL     1       2.195  -0.323   8.892  0.00  0.00    +0.008 A 
ATOM     15  C   UNL     1       2.188  -1.674   9.189  0.00  0.00    -0.050 A 
ATOM     16  C   UNL     1       1.391  -2.540   8.463  0.00  0.00    +0.008 A 
ATOM     17  C   UNL     1       0.596  -2.058   7.442  0.00  0.00    -0.028 A 
ATOM     18  C   UNL     1      -0.276  -3.002   6.655  0.00  0.00    +0.046 C 
ATOM     19  C   UNL     1       3.050  -2.202  10.306  0.00  0.00    +0.044 C 
ATOM     20  C   UNL     1       1.414   1.636   7.545  0.00  0.00    +0.046 C 
ENDBRANCH   8  12
BRANCH   1  22
ATOM     21  C   UNL     1      -0.782   2.597   1.424  0.00  0.00    +0.010 C 
ATOM     22  C   UNL     1      -0.985   1.081   1.413  0.00  0.00    +0.048 C 
ENDBRANCH   1  22
BRANCH   1  23
ATOM     23  N   UNL     1       1.103  -0.032   2.137  0.00  0.00    -0.344 N 
ATOM     24  H   UNL     1       1.632  -0.507   2.797  0.00  0.00    +0.146 HD
BRANCH  23  25
ATOM     25  C   UNL     1       1.624   0.163   0.782  0.00  0.00    +0.067 C 
ATOM     26  C   UNL     1       1.099  -0.947  -0.131  0.00  0.00    +0.028 C 
BRANCH  25  27
ATOM     27  C   UNL     1       3.153   0.117   0.812  0.00  0.00    +0.020 C 
BRANCH  27  28
ATOM     28  C   UNL     1       3.683   1.301   1.624  0.00  0.00    -0.017 C 
BRANCH  28  29
ATOM     29  C   UNL     1       5.212   1.255   1.654  0.00  0.00    -0.079 C 
BRANCH  29  30
ATOM     30  N   UNL     1       5.721   2.392   2.433  0.00  0.00    +0.379 N 
ATOM     31  H   UNL     1       5.352   3.251   2.055  0.00  0.00    -0.082 HD
BRANCH  30  32
ATOM     32  C   UNL     1       5.300   2.253   3.834  0.00  0.00    -0.082 C 
ATOM     33  C   UNL     1       5.687   3.514   4.610  0.00  0.00    -0.017 C 
ENDBRANCH  30  32
BRANCH  30  34
ATOM     34  C   UNL     1       7.188   2.416   2.363  0.00  0.00    -0.082 C 
ATOM     35  C   UNL     1       7.625   2.688   0.922  0.00  0.00    -0.017 C 
ENDBRANCH  30  34
ENDBRANCH  29  30
ENDBRANCH  28  29
ENDBRANCH  27  28
ENDBRANCH  25  27
ENDBRANCH  23  25
ENDBRANCH   1  23
TORSDOF 10
