REMARK  Name = ZINC48001006
REMARK  9 active torsions:
REMARK  status: ('A' for Active; 'I' for Inactive)
REMARK    1  A    between atoms: C_1  and  C_2
REMARK    2  A    between atoms: C_7  and  N_28
REMARK    3  A    between atoms: C_12  and  C_14
REMARK    4  A    between atoms: N_16  and  C_17
REMARK    5  A    between atoms: C_17  and  C_18
REMARK    6  A    between atoms: C_22  and  C_24
REMARK    7  A    between atoms: C_24  and  N_25
REMARK    8  A    between atoms: N_25  and  C_26
REMARK    9  A    between atoms: N_25  and  C_27
REMARK                            x       y       z     vdW  Elec       q    Type
REMARK                         _______ _______ _______ _____ _____    ______ ____
ROOT
ATOM      1  C   UNL     1       1.122  -0.762   3.463  0.00  0.00    +0.300 C 
ATOM      2  O   UNL     1       2.222  -1.236   3.269  0.00  0.00    -0.265 OA
ATOM      3  N   UNL     1       0.655  -0.635   4.721  0.00  0.00    -0.303 N 
ATOM      4  H   UNL     1      -0.225  -0.257   4.875  0.00  0.00    +0.149 HD
ENDROOT
BRANCH   1  15
ATOM      5  C   UNL     1       1.718  -2.792   1.188  0.00  0.00    +0.029 C 
ATOM      6  C   UNL     1       1.873  -1.355   0.684  0.00  0.00    +0.083 C 
ATOM      7  C   UNL     1       1.920  -1.331  -0.853  0.00  0.00    +0.059 C 
ATOM      8  C   UNL     1       0.726  -0.496  -1.256  0.00  0.00    -0.022 A 
ATOM      9  C   UNL     1       0.257  -0.128  -2.503  0.00  0.00    +0.038 A 
ATOM     10  C   UNL     1      -0.876   0.655  -2.615  0.00  0.00    +0.127 A 
ATOM     11  C   UNL     1      -1.541   1.070  -1.476  0.00  0.00    +0.034 A 
ATOM     12  C   UNL     1      -1.077   0.706  -0.230  0.00  0.00    +0.026 A 
ATOM     13  C   UNL     1       0.067  -0.085  -0.108  0.00  0.00    +0.040 A 
ATOM     14  N   UNL     1       0.697  -0.559   1.046  0.00  0.00    -0.260 N 
ATOM     15  C   UNL     1       0.285  -0.321   2.307  0.00  0.00    +0.306 C 
ATOM     16  O   UNL     1      -0.766   0.253   2.504  0.00  0.00    -0.265 OA
BRANCH  10  17
ATOM     17  N   UNL     1      -1.377   1.048  -3.952  0.00  0.00    +0.056 N 
ATOM     18  O   UNL     1      -0.794   0.684  -4.947  0.00  0.00    -0.126 OA
ATOM     19  O   UNL     1      -2.368   1.734  -4.048  0.00  0.00    -0.126 OA
ENDBRANCH  10  17
ENDBRANCH   1  15
BRANCH   3  20
ATOM     20  C   UNL     1       1.476  -1.069   5.854  0.00  0.00    +0.140 C 
BRANCH  20  21
ATOM     21  C   UNL     1       0.729  -0.820   7.139  0.00  0.00    -0.030 A 
ATOM     22  C   UNL     1       0.865   0.390   7.794  0.00  0.00    +0.005 A 
ATOM     23  C   UNL     1       0.180   0.619   8.973  0.00  0.00    +0.001 A 
ATOM     24  C   UNL     1      -0.641  -0.363   9.497  0.00  0.00    +0.002 A 
ATOM     25  C   UNL     1      -0.777  -1.572   8.841  0.00  0.00    -0.064 A 
ATOM     26  C   UNL     1      -0.096  -1.799   7.660  0.00  0.00    +0.007 A 
BRANCH  25  27
ATOM     27  C   UNL     1      -1.672  -2.642   9.412  0.00  0.00    -0.044 C 
BRANCH  27  28
ATOM     28  N   UNL     1      -3.031  -2.480   8.879  0.00  0.00    +0.379 N 
ATOM     29  C   UNL     1      -3.020  -2.716   7.429  0.00  0.00    -0.096 C 
ATOM     30  C   UNL     1      -3.929  -3.446   9.526  0.00  0.00    -0.096 C 
ATOM     31  H   UNL     1      -3.356  -1.543   9.065  0.00  0.00    -0.082 HD
ENDBRANCH  27  28
ENDBRANCH  25  27
ENDBRANCH  20  21
ENDBRANCH   3  20
TORSDOF 6
