REMARK  Name = ZINC13494590
REMARK  12 active torsions:
REMARK  status: ('A' for Active; 'I' for Inactive)
REMARK    1  A    between atoms: C_1  and  C_2
REMARK    2  A    between atoms: C_2  and  C_3
REMARK    3  A    between atoms: C_3  and  C_5
REMARK    4  A    between atoms: C_3  and  N_68
REMARK    5  A    between atoms: N_9  and  C_10
REMARK    6  A    between atoms: C_10  and  C_11
REMARK    7  A    between atoms: C_10  and  C_12
REMARK    8  A    between atoms: C_10  and  C_13
REMARK    9  A    between atoms: C_14  and  C_15
REMARK   10  A    between atoms: C_14  and  N_68
REMARK   11  A    between atoms: C_19  and  C_27
REMARK   12  A    between atoms: C_28  and  N_68
REMARK                            x       y       z     vdW  Elec       q    Type
REMARK                         _______ _______ _______ _____ _____    ______ ____
ROOT
ATOM      1  N   UNL     1       1.710   1.151   2.564  0.00  0.00    +0.391 N 
ATOM      2  H   UNL     1       2.246   0.973   3.421  0.00  0.00    -0.080 HD
ENDROOT
BRANCH   1   3
ATOM      3  C   UNL     1       1.851   2.576   2.198  0.00  0.00    -0.067 C 
ATOM      4  C   UNL     1       1.518   3.435   3.419  0.00  0.00    -0.015 C 
ATOM      5  C   UNL     1       1.680   4.914   3.062  0.00  0.00    -0.002 C 
ATOM      6  C   UNL     1       0.732   5.269   1.915  0.00  0.00    -0.000 C 
ATOM      7  C   UNL     1       1.065   4.410   0.694  0.00  0.00    -0.002 C 
ATOM      8  C   UNL     1       0.903   2.932   1.050  0.00  0.00    -0.015 C 
ENDBRANCH   1   3
BRANCH   1   9
ATOM      9  C   UNL     1       0.288   0.832   2.812  0.00  0.00    +0.003 C 
BRANCH   9  10
ATOM     10  C   UNL     1      -0.453   0.680   1.509  0.00  0.00    +0.139 A 
ATOM     11  N   UNL     1       0.006   0.140   0.406  0.00  0.00    -0.115 NA
ATOM     12  N   UNL     1      -0.926   0.195  -0.482  0.00  0.00    -0.023 NA
ATOM     13  N   UNL     1      -1.965   0.763   0.024  0.00  0.00    -0.043 NA
ATOM     14  N   UNL     1      -1.713   1.077   1.249  0.00  0.00    -0.226 N 
BRANCH  14  15
ATOM     15  C   UNL     1      -2.626   1.739   2.184  0.00  0.00    +0.059 C 
ATOM     16  C   UNL     1      -2.085   3.129   2.526  0.00  0.00    +0.036 C 
ATOM     17  C   UNL     1      -4.007   1.875   1.538  0.00  0.00    +0.036 C 
ATOM     18  C   UNL     1      -2.741   0.907   3.462  0.00  0.00    +0.036 C 
ENDBRANCH  14  15
ENDBRANCH   9  10
BRANCH   9  20
ATOM     19  C   UNL     1       0.845  -0.282   4.978  0.00  0.00    +0.002 C 
ATOM     20  C   UNL     1       0.209  -0.477   3.599  0.00  0.00    -0.011 C 
ENDBRANCH   9  20
ENDBRANCH   1   9
BRANCH   1  21
ATOM     21  C   UNL     1       2.238   0.296   1.480  0.00  0.00    -0.036 C 
BRANCH  21  22
ATOM     22  C   UNL     1       3.744   0.332   1.528  0.00  0.00    +0.001 A 
ATOM     23  C   UNL     1       4.420  -0.614   2.226  0.00  0.00    +0.017 A 
ATOM     24  C   UNL     1       5.883  -0.551   2.252  0.00  0.00    -0.001 A 
ATOM     25  C   UNL     1       6.635  -1.498   2.955  0.00  0.00    +0.013 A 
ATOM     26  C   UNL     1       7.998  -1.413   2.959  0.00  0.00    -0.050 A 
ATOM     27  C   UNL     1       8.644  -0.394   2.272  0.00  0.00    +0.005 A 
ATOM     28  C   UNL     1       7.923   0.550   1.573  0.00  0.00    +0.026 A 
ATOM     29  C   UNL     1       6.534   0.483   1.554  0.00  0.00    +0.049 A 
ATOM     30  N   UNL     1       5.788   1.413   0.862  0.00  0.00    -0.322 N 
ATOM     31  H   UNL     1       6.239   2.126   0.382  0.00  0.00    +0.169 HD
ATOM     32  C   UNL     1       4.445   1.345   0.840  0.00  0.00    +0.251 A 
ATOM     33  O   UNL     1       3.818   2.182   0.214  0.00  0.00    -0.268 OA
ATOM     34  C   UNL     1       8.808  -2.433   3.717  0.00  0.00    +0.044 C 
ENDBRANCH  21  22
ENDBRANCH   1  21
TORSDOF 7
