REMARK  Name = ZINC52595558
REMARK  9 active torsions:
REMARK  status: ('A' for Active; 'I' for Inactive)
REMARK    1  A    between atoms: C_1  and  C_2
REMARK    2  A    between atoms: C_2  and  C_3
REMARK    3  A    between atoms: C_3  and  C_4
REMARK    4  A    between atoms: C_8  and  C_33
REMARK    5  A    between atoms: C_10  and  C_32
REMARK    6  A    between atoms: N_13  and  C_14
REMARK    7  A    between atoms: C_14  and  C_15
REMARK    8  A    between atoms: C_18  and  C_21
REMARK    9  A    between atoms: C_26  and  C_27
REMARK                            x       y       z     vdW  Elec       q    Type
REMARK                         _______ _______ _______ _____ _____    ______ ____
ROOT
ATOM      1  C   UNL     1       0.841  -2.278  -3.867  0.00  0.00    +0.143 C 
ENDROOT
BRANCH   1  10
ATOM      2  C   UNL     1       0.724  -2.025  -1.266  0.00  0.00    +0.160 C 
ATOM      3  N   UNL     1       1.578  -2.520  -0.179  0.00  0.00    -0.323 N 
ATOM      4  C   UNL     1       2.617  -3.249  -0.769  0.00  0.00    +0.070 A 
ATOM      5  C   UNL     1       3.691  -3.925  -0.202  0.00  0.00    -0.025 A 
ATOM      6  C   UNL     1       4.585  -4.574  -1.042  0.00  0.00    +0.026 A 
ATOM      7  C   UNL     1       4.380  -4.529  -2.406  0.00  0.00    +0.015 A 
ATOM      8  N   UNL     1       3.353  -3.880  -2.919  0.00  0.00    -0.346 N 
ATOM      9  C   UNL     1       2.472  -3.245  -2.156  0.00  0.00    +0.122 A 
ATOM     10  N   UNL     1       1.334  -2.514  -2.508  0.00  0.00    -0.292 N 
ATOM     11  C   UNL     1       5.347  -5.231  -3.325  0.00  0.00    +0.063 C 
ATOM     12  C   UNL     1       3.882  -3.951   1.293  0.00  0.00    +0.046 C 
ATOM     13  H   UNL     1       1.447  -2.369   0.771  0.00  0.00    +0.148 HD
ATOM     14  H   UNL     1       3.237  -3.867  -3.882  0.00  0.00    +0.167 HD
BRANCH   2  15
ATOM     15  C   UNL     1       0.694  -0.496  -1.259  0.00  0.00    +0.042 C 
BRANCH  15  17
ATOM     16  C   UNL     1      -0.086   1.524  -0.012  0.00  0.00    +0.004 C 
ATOM     17  C   UNL     1      -0.056  -0.006  -0.019  0.00  0.00    +0.000 C 
ENDBRANCH  15  17
ENDBRANCH   2  15
ENDBRANCH   1  10
BRANCH   1  18
ATOM     18  C   UNL     1      -0.213  -3.302  -4.203  0.00  0.00    -0.030 A 
ATOM     19  C   UNL     1       0.161  -4.539  -4.696  0.00  0.00    +0.006 A 
ATOM     20  C   UNL     1      -0.799  -5.481  -5.006  0.00  0.00    +0.009 A 
ATOM     21  C   UNL     1      -2.149  -5.182  -4.822  0.00  0.00    -0.017 A 
ATOM     22  C   UNL     1      -2.520  -3.934  -4.325  0.00  0.00    +0.009 A 
ATOM     23  C   UNL     1      -1.550  -3.002  -4.013  0.00  0.00    +0.006 A 
BRANCH  21  24
ATOM     24  C   UNL     1      -3.185  -6.189  -5.153  0.00  0.00    -0.007 A 
ATOM     25  C   UNL     1      -3.164  -6.835  -6.386  0.00  0.00    +0.009 A 
ATOM     26  C   UNL     1      -4.131  -7.772  -6.691  0.00  0.00    +0.001 A 
ATOM     27  C   UNL     1      -5.126  -8.075  -5.776  0.00  0.00    +0.001 A 
ATOM     28  C   UNL     1      -5.162  -7.445  -4.549  0.00  0.00    +0.012 A 
ATOM     29  C   UNL     1      -4.191  -6.500  -4.223  0.00  0.00    +0.030 A 
BRANCH  29  30
ATOM     30  C   UNL     1      -4.222  -5.826  -2.907  0.00  0.00    +0.207 A 
ATOM     31  N   UNL     1      -3.370  -4.899  -2.465  0.00  0.00    -0.106 NA
ATOM     32  N   UNL     1      -3.741  -4.568  -1.275  0.00  0.00    -0.021 NA
ATOM     33  N   UNL     1      -4.787  -5.245  -0.953  0.00  0.00    -0.021 NA
ATOM     34  N   UNL     1      -5.111  -6.020  -1.931  0.00  0.00    -0.106 NA
ENDBRANCH  29  30
ENDBRANCH  21  24
ENDBRANCH   1  18
TORSDOF 6
