REMARK  Name = ZINC26696715
REMARK  5 active torsions:
REMARK  status: ('A' for Active; 'I' for Inactive)
REMARK    1  A    between atoms: C_8  and  C_12
REMARK    2  A    between atoms: C_12  and  N_13
REMARK    3  A    between atoms: C_17  and  N_24
REMARK    4  A    between atoms: C_18  and  N_20
REMARK    5  A    between atoms: N_20  and  C_21
REMARK                            x       y       z     vdW  Elec       q    Type
REMARK                         _______ _______ _______ _____ _____    ______ ____
ROOT
ATOM      1  N   UNL     1      -3.249   4.487  -4.266  0.00  0.00    -0.313 N 
ATOM      2  C   UNL     1      -3.405   3.160  -3.903  0.00  0.00    +0.217 A 
ATOM      3  N   UNL     1      -4.243   2.397  -4.588  0.00  0.00    -0.221 NA
ATOM      4  C   UNL     1      -4.419   1.123  -4.270  0.00  0.00    +0.150 A 
ATOM      5  C   UNL     1      -3.716   0.588  -3.208  0.00  0.00    +0.184 A 
ATOM      6  C   UNL     1      -2.840   1.417  -2.505  0.00  0.00    +0.155 A 
ATOM      7  N   UNL     1      -2.716   2.688  -2.875  0.00  0.00    -0.197 NA
ATOM      8  H   UNL     1      -2.556   5.133  -3.707  0.00  0.00    +0.149 HD
ENDROOT
BRANCH   5   9
ATOM      9  N   UNL     1      -3.888  -0.831  -2.825  0.00  0.00    +0.061 N 
ATOM     10  O   UNL     1      -4.576  -1.568  -3.509  0.00  0.00    -0.126 OA
ATOM     11  O   UNL     1      -3.343  -1.262  -1.825  0.00  0.00    -0.126 OA
ENDBRANCH   5   9
BRANCH   6  12
ATOM     12  N   UNL     1      -2.114   0.923  -1.433  0.00  0.00    -0.324 N 
ATOM     13  H   UNL     1      -2.291  -0.101  -1.074  0.00  0.00    +0.148 HD
BRANCH  12  14
ATOM     14  C   UNL     1      -1.110   1.766  -0.778  0.00  0.00    +0.072 C 
ATOM     15  C   UNL     1       0.032   1.062  -0.042  0.00  0.00    +0.024 C 
ATOM     16  C   UNL     1      -1.073   1.762   0.752  0.00  0.00    +0.024 C 
ENDBRANCH  12  14
ENDBRANCH   6  12
BRANCH   1  17
ATOM     17  C   UNL     1      -4.006   5.030  -5.396  0.00  0.00    +0.111 C 
BRANCH  17  25
ATOM     18  C   UNL     1      -4.422  10.605  -8.087  0.00  0.00    +0.000 A 
ATOM     19  C   UNL     1      -4.097  11.324  -6.952  0.00  0.00    +0.004 A 
ATOM     20  C   UNL     1      -3.853  10.664  -5.765  0.00  0.00    +0.046 A 
ATOM     21  C   UNL     1      -3.933   9.276  -5.706  0.00  0.00    +0.124 A 
ATOM     22  C   UNL     1      -4.263   8.559  -6.843  0.00  0.00    -0.005 A 
ATOM     23  C   UNL     1      -4.505   9.227  -8.032  0.00  0.00    +0.007 A 
ATOM     24  C   UNL     1      -4.368   7.056  -6.822  0.00  0.00    +0.047 C 
ATOM     25  C   UNL     1      -3.652   6.507  -5.585  0.00  0.00    +0.048 C 
ATOM     26  C   UNL     1      -4.117   7.310  -4.363  0.00  0.00    +0.234 C 
ATOM     27  O   UNL     1      -3.682   8.662  -4.521  0.00  0.00    -0.491 OA
ENDBRANCH  17  25
ENDBRANCH   1  17
TORSDOF 5
