REMARK  Name = ZINC44649922
REMARK  11 active torsions:
REMARK  status: ('A' for Active; 'I' for Inactive)
REMARK    1  A    between atoms: C_1  and  C_2
REMARK    2  A    between atoms: C_4  and  C_29
REMARK    3  A    between atoms: C_8  and  C_12
REMARK    4  A    between atoms: C_12  and  C_14
REMARK    5  A    between atoms: C_12  and  O_15
REMARK    6  A    between atoms: O_15  and  C_16
REMARK    7  A    between atoms: C_16  and  C_18
REMARK    8  A    between atoms: C_20  and  O_26
REMARK    9  A    between atoms: C_22  and  O_24
REMARK   10  A    between atoms: O_24  and  C_25
REMARK   11  A    between atoms: O_26  and  C_27
REMARK                            x       y       z     vdW  Elec       q    Type
REMARK                         _______ _______ _______ _____ _____    ______ ____
ROOT
ATOM      1  C   UNL     1       5.277  -3.531   0.228  0.00  0.00    +0.238 C 
ATOM      2  C   UNL     1       5.792  -4.338  -0.965  0.00  0.00    +0.060 C 
ENDROOT
BRANCH   1   9
ATOM      3  C   UNL     1      -0.019   1.526   0.010  0.00  0.00    +0.024 C 
ATOM      4  C   UNL     1       0.002  -0.004   0.002  0.00  0.00    +0.076 C 
ATOM      5  C   UNL     1       0.769  -0.528  -1.190  0.00  0.00    -0.045 C 
ATOM      6  C   UNL     1       1.868  -1.261  -0.953  0.00  0.00    +0.071 C 
ATOM      7  C   UNL     1       2.243  -1.498   0.457  0.00  0.00    +0.112 C 
ATOM      8  N   UNL     1       3.306  -2.207   0.754  0.00  0.00    -0.224 NA
ATOM      9  C   UNL     1       4.072  -2.729  -0.191  0.00  0.00    +0.164 C 
ATOM     10  N   UNL     1       3.837  -2.585  -1.473  0.00  0.00    -0.158 NA
ATOM     11  C   UNL     1       2.796  -1.891  -1.945  0.00  0.00    +0.271 C 
ATOM     12  O   UNL     1       2.607  -1.777  -3.144  0.00  0.00    -0.268 OA
ATOM     13  S   UNL     1       0.997  -0.657   1.404  0.00  0.00    -0.098 S 
ATOM     14  C   UNL     1       0.315  -0.239  -2.598  0.00  0.00    +0.041 C 
ENDBRANCH   1   9
BRANCH   1  15
ATOM     15  O   UNL     1       6.302  -2.647   0.685  0.00  0.00    -0.450 OA
BRANCH  15  16
ATOM     16  C   UNL     1       7.141  -3.119   1.627  0.00  0.00    +0.340 C 
ATOM     17  O   UNL     1       7.006  -4.249   2.050  0.00  0.00    -0.245 OA
BRANCH  16  18
ATOM     18  C   UNL     1       8.226  -2.260   2.147  0.00  0.00    +0.066 A 
ATOM     19  C   UNL     1       8.380  -0.959   1.666  0.00  0.00    +0.060 A 
ATOM     20  C   UNL     1       9.398  -0.158   2.156  0.00  0.00    +0.124 A 
ATOM     21  C   UNL     1      10.264  -0.647   3.123  0.00  0.00    +0.091 A 
ATOM     22  C   UNL     1      10.115  -1.940   3.604  0.00  0.00    +0.124 A 
ATOM     23  C   UNL     1       9.096  -2.747   3.123  0.00  0.00    +0.060 A 
BRANCH  22  24
ATOM     24  O   UNL     1      10.966  -2.415   4.551  0.00  0.00    -0.495 OA
ATOM     25  C   UNL     1      11.990  -1.528   5.005  0.00  0.00    +0.277 C 
ENDBRANCH  22  24
BRANCH  20  26
ATOM     26  O   UNL     1       9.549   1.109   1.689  0.00  0.00    -0.495 OA
ATOM     27  C   UNL     1      10.620   1.880   2.238  0.00  0.00    +0.277 C 
ENDBRANCH  20  26
ENDBRANCH  16  18
ENDBRANCH  15  16
ENDBRANCH   1  15
TORSDOF 6
