REMARK  Name = ZINC39545049
REMARK  11 active torsions:
REMARK  status: ('A' for Active; 'I' for Inactive)
REMARK    1  A    between atoms: C_1  and  C_2
REMARK    2  A    between atoms: C_2  and  C_3
REMARK    3  A    between atoms: C_2  and  C_4
REMARK    4  A    between atoms: C_4  and  N_5
REMARK    5  A    between atoms: N_5  and  S_30
REMARK    6  A    between atoms: C_6  and  C_8
REMARK    7  A    between atoms: C_11  and  C_23
REMARK    8  A    between atoms: C_23  and  C_24
REMARK    9  A    between atoms: S_30  and  C_33
REMARK   10  A    between atoms: C_33  and  C_34
REMARK   11  A    between atoms: C_33  and  C_35
REMARK                            x       y       z     vdW  Elec       q    Type
REMARK                         _______ _______ _______ _____ _____    ______ ____
ROOT
ATOM      1  C   UNL     1      -0.969  -0.981   3.674  0.00  0.00    +0.172 C 
ATOM      2  C   UNL     1      -0.024  -0.822   4.887  0.00  0.00    +0.045 C 
ATOM      3  C   UNL     1       0.428  -2.287   5.101  0.00  0.00    +0.057 C 
ATOM      4  C   UNL     1      -0.684  -3.103   4.486  0.00  0.00    +0.079 C 
ATOM      5  N   UNL     1      -0.896  -4.449   4.692  0.00  0.00    -0.304 N 
ATOM      6  C   UNL     1      -1.761  -5.115   3.813  0.00  0.00    +0.037 A 
ATOM      7  C   UNL     1      -1.781  -6.504   3.789  0.00  0.00    +0.023 A 
ATOM      8  C   UNL     1      -2.627  -7.166   2.921  0.00  0.00    +0.002 A 
ATOM      9  C   UNL     1      -3.453  -6.444   2.078  0.00  0.00    +0.000 A 
ATOM     10  C   UNL     1      -3.436  -5.062   2.103  0.00  0.00    +0.007 A 
ATOM     11  C   UNL     1      -2.593  -4.391   2.972  0.00  0.00    -0.007 A 
ATOM     12  C   UNL     1      -2.602  -2.886   2.991  0.00  0.00    +0.155 C 
ATOM     13  N   UNL     1      -1.435  -2.374   3.718  0.00  0.00    -0.346 N 
ATOM     14  H   UNL     1      -0.462  -4.919   5.421  0.00  0.00    +0.153 HD
ENDROOT
BRANCH   1  16
ATOM     15  N   UNL     1       0.092   0.542   2.039  0.00  0.00    -0.174 N 
ATOM     16  C   UNL     1      -0.221  -0.720   2.392  0.00  0.00    +0.257 C 
ATOM     17  O   UNL     1       0.100  -1.647   1.679  0.00  0.00    -0.272 OA
BRANCH  15  18
ATOM     18  S   UNL     1      -0.396   1.812   2.983  0.00  0.00    +0.050 S 
ATOM     19  O   UNL     1      -1.125   2.658   2.105  0.00  0.00    -0.155 OA
ATOM     20  O   UNL     1      -1.032   1.208   4.101  0.00  0.00    -0.155 OA
BRANCH  18  21
ATOM     21  C   UNL     1       1.140   2.625   3.502  0.00  0.00    +0.145 C 
ATOM     22  C   UNL     1       1.916   1.698   4.440  0.00  0.00    +0.033 C 
ATOM     23  C   UNL     1       1.993   2.936   2.271  0.00  0.00    +0.033 C 
ENDBRANCH  18  21
ENDBRANCH  15  18
BRANCH  15  24
ATOM     24  C   UNL     1       0.864   0.791   0.819  0.00  0.00    +0.137 C 
BRANCH  24  26
ATOM     25  C   UNL     1      -1.200   1.208  -0.525  0.00  0.00    +0.009 C 
ATOM     26  C   UNL     1       0.054   0.341  -0.398  0.00  0.00    +0.002 C 
ATOM     27  C   UNL     1       0.906   0.488  -1.661  0.00  0.00    +0.009 C 
ENDBRANCH  24  26
ENDBRANCH  15  24
ENDBRANCH   1  16
BRANCH   3  28
ATOM     28  C   UNL     1       0.562  -2.595   6.593  0.00  0.00    +0.046 C 
BRANCH  28  29
ATOM     29  C   UNL     1       1.688  -1.778   7.175  0.00  0.00    -0.047 A 
ATOM     30  C   UNL     1       2.990  -2.232   7.083  0.00  0.00    +0.003 A 
ATOM     31  C   UNL     1       4.022  -1.483   7.617  0.00  0.00    +0.000 A 
ATOM     32  C   UNL     1       3.752  -0.280   8.243  0.00  0.00    +0.000 A 
ATOM     33  C   UNL     1       2.449   0.173   8.335  0.00  0.00    +0.000 A 
ATOM     34  C   UNL     1       1.417  -0.573   7.797  0.00  0.00    +0.003 A 
ENDBRANCH  28  29
ENDBRANCH   3  28
TORSDOF 7
