REMARK  Name = ZINC36497368
REMARK  17 active torsions:
REMARK  status: ('A' for Active; 'I' for Inactive)
REMARK    1  A    between atoms: C_1  and  C_2
REMARK    2  A    between atoms: C_2  and  C_3
REMARK    3  A    between atoms: C_2  and  C_4
REMARK    4  A    between atoms: C_2  and  C_5
REMARK    5  A    between atoms: C_5  and  C_6
REMARK    6  A    between atoms: C_6  and  C_7
REMARK    7  A    between atoms: C_6  and  C_8
REMARK    8  A    between atoms: C_6  and  N_9
REMARK    9  A    between atoms: C_10  and  C_12
REMARK   10  A    between atoms: C_12  and  C_14
REMARK   11  A    between atoms: C_12  and  N_23
REMARK   12  A    between atoms: C_15  and  O_22
REMARK   13  A    between atoms: C_17  and  O_21
REMARK   14  A    between atoms: C_19  and  O_20
REMARK   15  A    between atoms: N_23  and  C_24
REMARK   16  A    between atoms: C_24  and  C_25
REMARK   17  A    between atoms: C_30  and  C_32
REMARK                            x       y       z     vdW  Elec       q    Type
REMARK                         _______ _______ _______ _____ _____    ______ ____
ROOT
ATOM      1  C   UNL     1       5.248  -0.647  -3.891  0.00  0.00    +0.200 C 
ENDROOT
BRANCH   1   2
ATOM      2  C   UNL     1       5.271  -2.150  -3.783  0.00  0.00    +0.065 A 
ATOM      3  C   UNL     1       5.986  -2.761  -2.764  0.00  0.00    +0.129 A 
ATOM      4  C   UNL     1       6.007  -4.144  -2.664  0.00  0.00    +0.091 A 
ATOM      5  C   UNL     1       5.314  -4.916  -3.584  0.00  0.00    +0.124 A 
ATOM      6  C   UNL     1       4.598  -4.305  -4.603  0.00  0.00    +0.091 A 
ATOM      7  C   UNL     1       4.574  -2.922  -4.700  0.00  0.00    +0.129 A 
BRANCH   7   8
ATOM      8  O   UNL     1       3.869  -2.323  -5.696  0.00  0.00    -0.506 OA
ATOM      9  H   UNL     1       4.379  -2.176  -6.505  0.00  0.00    +0.292 HD
ENDBRANCH   7   8
BRANCH   5  10
ATOM     10  O   UNL     1       5.335  -6.271  -3.487  0.00  0.00    -0.507 OA
ATOM     11  H   UNL     1       4.626  -6.638  -2.942  0.00  0.00    +0.292 HD
ENDBRANCH   5  10
BRANCH   3  12
ATOM     12  O   UNL     1       6.665  -2.004  -1.862  0.00  0.00    -0.506 OA
ATOM     13  H   UNL     1       6.172  -1.823  -1.050  0.00  0.00    +0.292 HD
ENDBRANCH   3  12
ENDBRANCH   1   2
BRANCH   1  15
ATOM     14  N   UNL     1       3.293  -0.392  -2.398  0.00  0.00    -0.308 N 
ATOM     15  C   UNL     1       4.570  -0.066  -2.677  0.00  0.00    +0.239 C 
ATOM     16  O   UNL     1       5.174   0.694  -1.951  0.00  0.00    -0.273 OA
ATOM     17  H   UNL     1       2.809  -1.001  -2.979  0.00  0.00    +0.149 HD
BRANCH  14  18
ATOM     18  C   UNL     1       2.634   0.172  -1.218  0.00  0.00    +0.030 C 
ATOM     19  C   UNL     1       2.816   1.691  -1.209  0.00  0.00    +0.031 C 
ATOM     20  C   UNL     1       3.256  -0.423   0.047  0.00  0.00    +0.031 C 
BRANCH  18  21
ATOM     21  C   UNL     1       1.141  -0.163  -1.258  0.00  0.00    +0.031 C 
BRANCH  21  23
ATOM     22  C   UNL     1       0.957  -1.087  -3.572  0.00  0.00    +0.010 C 
ATOM     23  C   UNL     1       0.599   0.093  -2.666  0.00  0.00    -0.036 C 
ATOM     24  C   UNL     1       1.220   1.374  -3.227  0.00  0.00    +0.010 C 
ATOM     25  C   UNL     1      -0.922   0.247  -2.606  0.00  0.00    +0.010 C 
ENDBRANCH  21  23
ENDBRANCH  18  21
ENDBRANCH  14  18
ENDBRANCH   1  15
BRANCH   1  26
ATOM     26  N   UNL     1       6.621  -0.142  -3.973  0.00  0.00    -0.274 N 
ATOM     27  C   UNL     1       6.857   1.183  -3.897  0.00  0.00    +0.248 C 
ATOM     28  O   UNL     1       7.998   1.592  -3.801  0.00  0.00    -0.270 OA
BRANCH  27  29
ATOM     29  C   UNL     1       5.730   2.138  -3.930  0.00  0.00    +0.037 A 
ATOM     30  C   UNL     1       4.429   1.679  -4.148  0.00  0.00    +0.014 A 
ATOM     31  C   UNL     1       3.381   2.575  -4.178  0.00  0.00    +0.021 A 
ATOM     32  C   UNL     1       3.617   3.927  -3.993  0.00  0.00    +0.041 A 
ATOM     33  C   UNL     1       4.905   4.388  -3.776  0.00  0.00    +0.021 A 
ATOM     34  C   UNL     1       5.960   3.501  -3.738  0.00  0.00    +0.014 A 
ATOM     35 CL   UNL     1       2.292   5.049  -4.033  0.00  0.00    -0.084 Cl
ENDBRANCH  27  29
BRANCH  26  36
ATOM     36  C   UNL     1       7.737  -1.077  -4.136  0.00  0.00    +0.183 C 
BRANCH  36  37
ATOM     37  C   UNL     1       8.524  -0.709  -5.367  0.00  0.00    +0.122 A 
ATOM     38  C   UNL     1       9.634   0.051  -5.393  0.00  0.00    +0.046 A 
ATOM     39  C   UNL     1      10.039   0.138  -6.745  0.00  0.00    +0.041 A 
ATOM     40  C   UNL     1       9.152  -0.574  -7.464  0.00  0.00    +0.195 A 
ATOM     41  O   UNL     1       8.241  -1.089  -6.623  0.00  0.00    -0.466 OA
ENDBRANCH  36  37
ENDBRANCH  26  36
ENDBRANCH   1  26
TORSDOF 12
