REMARK  Name = ZINC40067836
REMARK  7 active torsions:
REMARK  status: ('A' for Active; 'I' for Inactive)
REMARK    1  A    between atoms: C_1  and  C_2
REMARK    2  A    between atoms: C_2  and  C_4
REMARK    3  A    between atoms: C_2  and  N_11
REMARK    4  A    between atoms: N_14  and  C_15
REMARK    5  A    between atoms: N_14  and  C_16
REMARK    6  A    between atoms: C_16  and  C_18
REMARK    7  A    between atoms: C_16  and  C_19
REMARK                            x       y       z     vdW  Elec       q    Type
REMARK                         _______ _______ _______ _____ _____    ______ ____
ROOT
ATOM      1  N   UNL     1      -1.367  -0.519  -0.081  0.00  0.00    -0.293 N 
ATOM      2  C   UNL     1      -1.942  -0.715  -1.284  0.00  0.00    +0.303 C 
ATOM      3  O   UNL     1      -1.324  -0.464  -2.301  0.00  0.00    -0.253 OA
ATOM      4  N   UNL     1      -3.201  -1.189  -1.360  0.00  0.00    -0.279 N 
ATOM      5  C   UNL     1      -3.945  -1.491  -0.134  0.00  0.00    +0.134 C 
ATOM      6  H   UNL     1      -1.859  -0.719   0.731  0.00  0.00    +0.151 HD
ENDROOT
BRANCH   1   8
ATOM      7  C   UNL     1      -0.027   1.526  -0.016  0.00  0.00    +0.033 C 
ATOM      8  C   UNL     1       0.002  -0.004   0.002  0.00  0.00    +0.104 C 
BRANCH   8   9
ATOM      9  C   UNL     1       0.641  -0.479   1.281  0.00  0.00    +0.008 A 
ATOM     10  C   UNL     1      -0.144  -0.766   2.382  0.00  0.00    +0.008 A 
ATOM     11  C   UNL     1       0.442  -1.202   3.555  0.00  0.00    +0.000 A 
ATOM     12  C   UNL     1       1.814  -1.352   3.630  0.00  0.00    +0.003 A 
ATOM     13  C   UNL     1       2.602  -1.066   2.531  0.00  0.00    +0.039 A 
ATOM     14  C   UNL     1       2.015  -0.634   1.353  0.00  0.00    +0.128 A 
ATOM     15  F   UNL     1       2.784  -0.359   0.276  0.00  0.00    -0.205 F 
ENDBRANCH   8   9
ENDBRANCH   1   8
BRANCH   4  16
ATOM     16  C   UNL     1      -3.826  -1.402  -2.667  0.00  0.00    +0.140 C 
ATOM     17  C   UNL     1      -5.085  -0.539  -2.777  0.00  0.00    +0.036 C 
BRANCH  16  18
ATOM     18  C   UNL     1      -4.198  -2.854  -2.816  0.00  0.00    +0.126 A 
ATOM     19  C   UNL     1      -4.056  -3.572  -3.939  0.00  0.00    +0.055 A 
ATOM     20  C   UNL     1      -4.540  -4.921  -3.627  0.00  0.00    +0.020 A 
ATOM     21  C   UNL     1      -4.656  -6.107  -4.351  0.00  0.00    +0.011 A 
ATOM     22  C   UNL     1      -5.165  -7.223  -3.746  0.00  0.00    +0.001 A 
ATOM     23  C   UNL     1      -5.565  -7.182  -2.418  0.00  0.00    +0.004 A 
ATOM     24  C   UNL     1      -5.457  -6.019  -1.687  0.00  0.00    +0.047 A 
ATOM     25  C   UNL     1      -4.943  -4.874  -2.282  0.00  0.00    +0.135 A 
ATOM     26  O   UNL     1      -4.715  -3.621  -1.840  0.00  0.00    -0.458 OA
ENDBRANCH  16  18
ENDBRANCH   4  16
TORSDOF 4
