REMARK  Name = ZINC09469210
REMARK  13 active torsions:
REMARK  status: ('A' for Active; 'I' for Inactive)
REMARK    1  A    between atoms: C_1  and  C_2
REMARK    2  A    between atoms: C_2  and  C_3
REMARK    3  A    between atoms: C_3  and  C_5
REMARK    4  A    between atoms: C_3  and  N_6
REMARK    5  A    between atoms: C_10  and  C_12
REMARK    6  A    between atoms: C_12  and  S_13
REMARK    7  A    between atoms: S_13  and  C_14
REMARK    8  A    between atoms: C_17  and  C_27
REMARK    9  A    between atoms: N_18  and  C_19
REMARK   10  A    between atoms: C_22  and  O_25
REMARK   11  A    between atoms: O_25  and  C_26
REMARK   12  A    between atoms: C_27  and  C_29
REMARK   13  A    between atoms: C_27  and  N_67
REMARK                            x       y       z     vdW  Elec       q    Type
REMARK                         _______ _______ _______ _____ _____    ______ ____
ROOT
ATOM      1  C   UNL     1       7.695   1.438  -0.549  0.00  0.00    +0.197 A 
ATOM      2  N   UNL     1       7.487   0.143  -0.489  0.00  0.00    -0.122 NA
ATOM      3  N   UNL     1       8.604  -0.473  -0.331  0.00  0.00    -0.135 NA
ATOM      4  C   UNL     1       9.585   0.384  -0.280  0.00  0.00    +0.125 A 
ATOM      5  N   UNL     1       9.043   1.633  -0.423  0.00  0.00    -0.275 N 
ENDROOT
BRANCH   5   6
ATOM      6  C   UNL     1       9.727   2.859  -0.434  0.00  0.00    +0.050 A 
ATOM      7  C   UNL     1      10.621   3.145  -1.456  0.00  0.00    +0.030 A 
ATOM      8  C   UNL     1      11.290   4.353  -1.470  0.00  0.00    +0.047 A 
ATOM      9  C   UNL     1      11.076   5.276  -0.457  0.00  0.00    +0.120 A 
ATOM     10  C   UNL     1      10.186   4.988   0.568  0.00  0.00    +0.047 A 
ATOM     11  C   UNL     1       9.513   3.783   0.580  0.00  0.00    +0.030 A 
BRANCH   9  12
ATOM     12  O   UNL     1      11.739   6.463  -0.468  0.00  0.00    -0.495 OA
ATOM     13  C   UNL     1      12.639   6.693  -1.553  0.00  0.00    +0.277 C 
ENDBRANCH   9  12
ENDBRANCH   5   6
BRANCH   4  14
ATOM     14  C   UNL     1      11.046   0.060  -0.102  0.00  0.00    -0.002 C 
ATOM     15  C   UNL     1      11.303  -0.358   1.348  0.00  0.00    -0.005 C 
BRANCH  14  21
ATOM     16  C   UNL     1      12.843  -1.365  -0.877  0.00  0.00    -0.078 C 
ATOM     17  C   UNL     1      13.161  -2.605  -1.716  0.00  0.00    -0.019 C 
ATOM     18  C   UNL     1      12.808  -2.329  -3.180  0.00  0.00    -0.004 C 
ATOM     19  C   UNL     1      11.328  -1.946  -3.276  0.00  0.00    -0.019 C 
ATOM     20  C   UNL     1      11.063  -0.726  -2.392  0.00  0.00    -0.078 C 
ATOM     21  N   UNL     1      11.400  -1.065  -0.993  0.00  0.00    +0.386 N 
ATOM     22  H   UNL     1      10.864  -1.894  -0.712  0.00  0.00    -0.081 HD
ENDBRANCH  14  21
ENDBRANCH   4  14
BRANCH   1  23
ATOM     23  S   UNL     1       6.470   2.687  -0.759  0.00  0.00    -0.076 S 
BRANCH  23  24
ATOM     24  C   UNL     1       4.984   1.657  -0.852  0.00  0.00    +0.173 C 
BRANCH  24  29
ATOM     25  N   UNL     1       0.241   2.220  -1.395  0.00  0.00    -0.297 N 
ATOM     26  C   UNL     1       1.467   2.772  -1.299  0.00  0.00    +0.306 C 
ATOM     27  O   UNL     1       1.597   3.979  -1.362  0.00  0.00    -0.252 OA
ATOM     28  N   UNL     1       2.549   1.985  -1.133  0.00  0.00    -0.239 N 
ATOM     29  C   UNL     1       3.775   2.537  -1.038  0.00  0.00    +0.231 C 
ATOM     30  O   UNL     1       3.904   3.741  -1.100  0.00  0.00    -0.274 OA
ATOM     31  H   UNL     1       0.137   1.257  -1.345  0.00  0.00    +0.151 HD
ATOM     32  H   UNL     1       2.445   1.022  -1.083  0.00  0.00    +0.159 HD
BRANCH  25  33
ATOM     33  C   UNL     1      -0.934   3.075  -1.581  0.00  0.00    +0.071 C 
ATOM     34  C   UNL     1      -1.429   3.565  -0.219  0.00  0.00    +0.028 C 
BRANCH  33  36
ATOM     35  C   UNL     1      -1.595   1.891  -3.680  0.00  0.00    +0.005 C 
ATOM     36  C   UNL     1      -2.043   2.275  -2.268  0.00  0.00    +0.019 C 
ENDBRANCH  33  36
ENDBRANCH  25  33
ENDBRANCH  24  29
ENDBRANCH  23  24
ENDBRANCH   1  23
TORSDOF 9
