REMARK  Name = ZINC09070736
REMARK  11 active torsions:
REMARK  status: ('A' for Active; 'I' for Inactive)
REMARK    1  A    between atoms: C_1  and  N_58
REMARK    2  A    between atoms: C_2  and  N_58
REMARK    3  A    between atoms: C_3  and  C_4
REMARK    4  A    between atoms: C_3  and  N_58
REMARK    5  A    between atoms: C_4  and  C_5
REMARK    6  A    between atoms: C_5  and  N_6
REMARK    7  A    between atoms: C_7  and  C_27
REMARK    8  A    between atoms: C_10  and  C_11
REMARK    9  A    between atoms: C_10  and  O_22
REMARK   10  A    between atoms: C_17  and  O_20
REMARK   11  A    between atoms: O_20  and  C_21
REMARK                            x       y       z     vdW  Elec       q    Type
REMARK                         _______ _______ _______ _____ _____    ______ ____
ROOT
ATOM      1  N   UNL     1       1.362   1.599  -0.010  0.00  0.00    -0.284 N 
ATOM      2  C   UNL     1       0.046   0.959  -0.091  0.00  0.00    +0.145 C 
ATOM      3  C   UNL     1      -0.698   1.640  -1.216  0.00  0.00    +0.074 C 
ATOM      4  C   UNL     1      -1.982   1.362  -1.654  0.00  0.00    +0.168 C 
ATOM      5  C   UNL     1       0.174   2.611  -1.728  0.00  0.00    +0.249 C 
ATOM      6  O   UNL     1      -0.066   3.371  -2.650  0.00  0.00    -0.282 OA
ATOM      7  C   UNL     1       1.441   2.553  -0.952  0.00  0.00    +0.288 C 
ATOM      8  O   UNL     1       2.406   3.264  -1.143  0.00  0.00    -0.266 OA
ENDROOT
BRANCH   4   9
ATOM      9  C   UNL     1      -2.509   2.027  -2.845  0.00  0.00    +0.171 A 
ATOM     10  C   UNL     1      -3.732   2.621  -2.940  0.00  0.00    +0.061 A 
ATOM     11  C   UNL     1      -3.837   3.141  -4.254  0.00  0.00    +0.025 A 
ATOM     12  C   UNL     1      -4.834   3.845  -4.940  0.00  0.00    +0.012 A 
ATOM     13  C   UNL     1      -4.635   4.212  -6.240  0.00  0.00    +0.004 A 
ATOM     14  C   UNL     1      -3.451   3.893  -6.890  0.00  0.00    +0.049 A 
ATOM     15  C   UNL     1      -2.452   3.199  -6.233  0.00  0.00    +0.163 A 
ATOM     16  C   UNL     1      -2.634   2.814  -4.906  0.00  0.00    +0.177 A 
ATOM     17  O   UNL     1      -1.862   2.145  -4.025  0.00  0.00    -0.448 OA
BRANCH  15  18
ATOM     18  O   UNL     1      -1.295   2.892  -6.880  0.00  0.00    -0.491 OA
ATOM     19  C   UNL     1      -1.179   3.318  -8.239  0.00  0.00    +0.277 C 
ENDBRANCH  15  18
ENDBRANCH   4   9
BRANCH   2  20
ATOM     20  C   UNL     1      -0.699   1.142   1.206  0.00  0.00    -0.021 A 
ATOM     21  C   UNL     1      -0.616   2.343   1.887  0.00  0.00    +0.006 A 
ATOM     22  C   UNL     1      -1.303   2.514   3.074  0.00  0.00    +0.001 A 
ATOM     23  C   UNL     1      -2.064   1.480   3.587  0.00  0.00    +0.015 A 
ATOM     24  C   UNL     1      -2.144   0.277   2.909  0.00  0.00    +0.018 A 
ATOM     25  C   UNL     1      -1.460   0.109   1.718  0.00  0.00    +0.021 A 
ATOM     26 BR   UNL     1      -3.185  -1.137   3.610  0.00  0.00    -0.050 Br
ENDBRANCH   2  20
BRANCH   4  27
ATOM     27  O   UNL     1      -2.748   0.475  -0.981  0.00  0.00    -0.503 OA
ATOM     28  H   UNL     1      -3.638   0.395  -1.430  0.00  0.00    +0.292 HD
ENDBRANCH   4  27
BRANCH   1  29
ATOM     29  C   UNL     1       2.419   1.254   0.944  0.00  0.00    +0.107 C 
BRANCH  29  30
ATOM     30  C   UNL     1       3.314   0.169   0.342  0.00  0.00    +0.000 C 
BRANCH  30  31
ATOM     31  C   UNL     1       4.419  -0.191   1.338  0.00  0.00    -0.078 C 
BRANCH  31  34
ATOM     32  C   UNL     1       6.012  -0.723  -0.406  0.00  0.00    -0.097 C 
ATOM     33  C   UNL     1       6.201  -1.773   1.767  0.00  0.00    -0.097 C 
ATOM     34  N   UNL     1       5.261  -1.254   0.751  0.00  0.00    +0.376 N 
ATOM     35  H   UNL     1       4.657  -2.022   0.433  0.00  0.00    -0.083 HD
ENDBRANCH  31  34
ENDBRANCH  30  31
ENDBRANCH  29  30
ENDBRANCH   1  29
TORSDOF 8
