REMARK  Name = ZINC20885308
REMARK  6 active torsions:
REMARK  status: ('A' for Active; 'I' for Inactive)
REMARK    1  A    between atoms: C_4  and  C_7
REMARK    2  A    between atoms: C_8  and  C_18
REMARK    3  A    between atoms: N_10  and  C_12
REMARK    4  A    between atoms: N_19  and  N_20
REMARK    5  A    between atoms: C_21  and  C_23
REMARK    6  A    between atoms: C_25  and  N_31
REMARK                            x       y       z     vdW  Elec       q    Type
REMARK                         _______ _______ _______ _____ _____    ______ ____
ROOT
ATOM      1  C   UNL     1       2.561   2.093  -0.434  0.00  0.00    +0.142 C 
ATOM      2  N   UNL     1       2.921   0.853  -0.568  0.00  0.00    -0.187 NA
ENDROOT
BRANCH   1   4
ATOM      3  C   UNL     1       0.050   1.481   0.035  0.00  0.00    +0.102 A 
ATOM      4  C   UNL     1       1.147   2.427  -0.189  0.00  0.00    +0.040 A 
ATOM      5  C   UNL     1       0.602   3.680  -0.125  0.00  0.00    +0.124 A 
ATOM      6  N   UNL     1      -0.719   3.549   0.117  0.00  0.00    -0.239 N 
ATOM      7  N   UNL     1      -1.044   2.192   0.207  0.00  0.00    -0.166 NA
BRANCH   3  11
ATOM      8  C   UNL     1       0.343  -2.759   0.097  0.00  0.00    +0.000 A 
ATOM      9  C   UNL     1       1.282  -1.994   0.764  0.00  0.00    +0.001 A 
ATOM     10  C   UNL     1       1.192  -0.617   0.748  0.00  0.00    +0.010 A 
ATOM     11  C   UNL     1       0.152   0.002   0.056  0.00  0.00    +0.003 A 
ATOM     12  C   UNL     1      -0.795  -0.774  -0.610  0.00  0.00    +0.010 A 
ATOM     13  C   UNL     1      -0.691  -2.150  -0.591  0.00  0.00    +0.001 A 
ENDBRANCH   3  11
BRANCH   6  14
ATOM     14  C   UNL     1      -1.625   4.608   0.251  0.00  0.00    +0.065 A 
ATOM     15  C   UNL     1      -1.184   5.920   0.140  0.00  0.00    +0.028 A 
ATOM     16  C   UNL     1      -2.081   6.963   0.267  0.00  0.00    +0.002 A 
ATOM     17  C   UNL     1      -3.416   6.701   0.515  0.00  0.00    +0.000 A 
ATOM     18  C   UNL     1      -3.858   5.396   0.631  0.00  0.00    +0.002 A 
ATOM     19  C   UNL     1      -2.967   4.349   0.499  0.00  0.00    +0.028 A 
ENDBRANCH   6  14
ENDBRANCH   1   4
BRANCH   2  20
ATOM     20  N   UNL     1       4.266   0.535  -0.801  0.00  0.00    -0.202 N 
ATOM     21  C   UNL     1       4.640  -0.752  -0.941  0.00  0.00    +0.283 C 
ATOM     22  O   UNL     1       3.811  -1.638  -0.865  0.00  0.00    -0.267 OA
ATOM     23  H   UNL     1       5.016   1.337  -0.870  0.00  0.00    +0.178 HD
BRANCH  21  24
ATOM     24  C   UNL     1       6.060  -1.087  -1.187  0.00  0.00    +0.149 A 
ATOM     25  C   UNL     1       6.440  -2.419  -1.325  0.00  0.00    +0.094 A 
ATOM     26  C   UNL     1       7.782  -2.718  -1.561  0.00  0.00    +0.067 A 
ATOM     27  C   UNL     1       8.691  -1.664  -1.639  0.00  0.00    +0.100 A 
ATOM     28  C   UNL     1       8.236  -0.364  -1.487  0.00  0.00    +0.150 A 
ATOM     29  N   UNL     1       6.962  -0.114  -1.269  0.00  0.00    -0.228 NA
ATOM     30 CL   UNL     1       9.362   0.953  -1.584  0.00  0.00    -0.060 Cl
ATOM     31 CL   UNL     1      10.375  -1.977  -1.925  0.00  0.00    -0.078 Cl
ATOM     32 CL   UNL     1       5.261  -3.688  -1.210  0.00  0.00    -0.079 Cl
BRANCH  26  33
ATOM     33  N   UNL     1       8.204  -4.038  -1.710  0.00  0.00    -0.356 N 
ATOM     34  H   UNL     1       9.266  -4.258  -1.895  0.00  0.00    +0.142 HD
ATOM     35  H   UNL     1       7.476  -4.859  -1.641  0.00  0.00    +0.142 HD
ENDBRANCH  26  33
ENDBRANCH  21  24
ENDBRANCH   2  20
TORSDOF 6
