REMARK  Name = ZINC45738924
REMARK  5 active torsions:
REMARK  status: ('A' for Active; 'I' for Inactive)
REMARK    1  A    between atoms: C_1  and  O_2
REMARK    2  A    between atoms: O_2  and  C_3
REMARK    3  A    between atoms: N_5  and  N_6
REMARK    4  A    between atoms: N_9  and  C_10
REMARK    5  A    between atoms: C_16  and  C_18
REMARK                            x       y       z     vdW  Elec       q    Type
REMARK                         _______ _______ _______ _____ _____    ______ ____
ROOT
ATOM      1  C   UNL     1       0.383  -5.500   2.685  0.00  0.00    +0.077 C 
ATOM      2  C   UNL     1      -0.822  -6.432   2.833  0.00  0.00    +0.041 C 
ATOM      3  C   UNL     1      -0.457  -7.819   2.295  0.00  0.00    +0.109 C 
ATOM      4  N   UNL     1       0.756  -8.288   2.978  0.00  0.00    -0.301 N 
ATOM      5  C   UNL     1       1.946  -7.426   2.975  0.00  0.00    +0.109 C 
ATOM      6  C   UNL     1       1.555  -6.043   3.505  0.00  0.00    +0.041 C 
ATOM      7  C   UNL     1       0.777  -9.485   3.596  0.00  0.00    +0.219 C 
ATOM      8  O   UNL     1      -0.234 -10.152   3.661  0.00  0.00    -0.275 OA
ENDROOT
BRANCH   1  12
ATOM      9  N   UNL     1      -0.915  -2.061   2.790  0.00  0.00    -0.216 N 
ATOM     10  C   UNL     1      -0.588  -3.291   2.345  0.00  0.00    +0.316 C 
ATOM     11  O   UNL     1      -0.847  -3.613   1.202  0.00  0.00    -0.251 OA
ATOM     12  N   UNL     1       0.027  -4.163   3.168  0.00  0.00    -0.295 N 
ATOM     13  H   UNL     1      -1.357  -1.433   2.197  0.00  0.00    +0.174 HD
ATOM     14  H   UNL     1       0.235  -3.906   4.080  0.00  0.00    +0.151 HD
BRANCH   9  17
ATOM     15  C   UNL     1      -0.942  -0.460   4.551  0.00  0.00    +0.417 C 
ATOM     16  O   UNL     1      -0.683  -0.138   5.694  0.00  0.00    -0.225 OA
ATOM     17  N   UNL     1      -0.615  -1.690   4.107  0.00  0.00    -0.198 N 
ATOM     18  H   UNL     1      -0.173  -2.318   4.699  0.00  0.00    +0.176 HD
BRANCH  15  20
ATOM     19  C   UNL     1      -1.874   1.697   4.267  0.00  0.00    +0.282 C 
ATOM     20  O   UNL     1      -1.557   0.412   3.729  0.00  0.00    -0.453 OA
ENDBRANCH  15  20
ENDBRANCH   9  17
ENDBRANCH   1  12
BRANCH   7  21
ATOM     21  C   UNL     1       2.057  -9.995   4.207  0.00  0.00    +0.075 C 
ATOM     22  C   UNL     1       2.921 -10.636   3.119  0.00  0.00    +0.013 C 
ATOM     23  C   UNL     1       4.221 -11.154   3.740  0.00  0.00    +0.001 C 
ATOM     24  C   UNL     1       3.894 -12.196   4.811  0.00  0.00    +0.000 C 
ATOM     25  C   UNL     1       3.030 -11.556   5.899  0.00  0.00    +0.001 C 
ATOM     26  C   UNL     1       1.730 -11.038   5.279  0.00  0.00    +0.013 C 
ENDBRANCH   7  21
TORSDOF 4
