REMARK  Name = ZINC12558481
REMARK  5 active torsions:
REMARK  status: ('A' for Active; 'I' for Inactive)
REMARK    1  A    between atoms: C_4  and  C_7
REMARK    2  A    between atoms: C_7  and  C_9
REMARK    3  A    between atoms: C_11  and  C_23
REMARK    4  A    between atoms: C_17  and  C_18
REMARK    5  A    between atoms: C_17  and  O_22
REMARK                            x       y       z     vdW  Elec       q    Type
REMARK                         _______ _______ _______ _____ _____    ______ ____
ROOT
ATOM      1  C   UNL     1       4.950   0.221  -0.081  0.00  0.00    +0.144 C 
ATOM      2  C   UNL     1       6.136  -0.607   0.426  0.00  0.00    +0.121 C 
ATOM      3  N   UNL     1       7.369   0.162   0.247  0.00  0.00    -0.292 N 
ATOM      4  C   UNL     1       7.492   1.064  -0.737  0.00  0.00    +0.302 C 
ATOM      5  O   UNL     1       8.542   1.669  -0.848  0.00  0.00    -0.253 OA
ATOM      6  N   UNL     1       6.504   1.326  -1.606  0.00  0.00    -0.264 N 
ATOM      7  C   UNL     1       5.222   0.624  -1.534  0.00  0.00    +0.243 C 
ATOM      8  H   UNL     1       8.112   0.016   0.854  0.00  0.00    +0.151 HD
ATOM      9  H   UNL     1       6.642   1.994  -2.296  0.00  0.00    +0.153 HD
ENDROOT
BRANCH   2  10
ATOM     10  C   UNL     1       5.944  -0.921   1.887  0.00  0.00    -0.008 A 
ATOM     11  C   UNL     1       6.403  -0.041   2.849  0.00  0.00    +0.008 A 
ATOM     12  C   UNL     1       6.227  -0.328   4.190  0.00  0.00    +0.020 A 
ATOM     13  C   UNL     1       5.590  -1.496   4.569  0.00  0.00    +0.042 A 
ATOM     14  C   UNL     1       5.130  -2.377   3.607  0.00  0.00    +0.040 A 
ATOM     15  C   UNL     1       5.302  -2.087   2.265  0.00  0.00    +0.047 A 
ATOM     16 CL   UNL     1       4.719  -3.188   1.057  0.00  0.00    -0.083 Cl
ATOM     17 CL   UNL     1       5.368  -1.857   6.253  0.00  0.00    -0.083 Cl
ENDBRANCH   2  10
BRANCH   7  18
ATOM     18  C   UNL     1       4.105   1.547  -2.026  0.00  0.00    +0.436 C 
ATOM     19  F   UNL     1       3.982   2.635  -1.155  0.00  0.00    -0.166 F 
ATOM     20  F   UNL     1       4.414   2.010  -3.309  0.00  0.00    -0.166 F 
ATOM     21  F   UNL     1       2.898   0.841  -2.063  0.00  0.00    -0.166 F 
ENDBRANCH   7  18
BRANCH   1  22
ATOM     22  C   UNL     1       3.691  -0.604  -0.011  0.00  0.00    +0.173 C 
ATOM     23  O   UNL     1       3.438  -1.399  -0.892  0.00  0.00    -0.292 OA
BRANCH  22  27
ATOM     24  C   UNL     1       1.033  -0.147   3.262  0.00  0.00    +0.000 A 
ATOM     25  C   UNL     1       2.219   0.566   3.233  0.00  0.00    +0.001 A 
ATOM     26  C   UNL     1       3.088   0.423   2.173  0.00  0.00    +0.011 A 
ATOM     27  C   UNL     1       2.769  -0.446   1.125  0.00  0.00    +0.018 A 
ATOM     28  C   UNL     1       1.569  -1.163   1.161  0.00  0.00    +0.011 A 
ATOM     29  C   UNL     1       0.710  -1.009   2.229  0.00  0.00    +0.001 A 
ENDBRANCH  22  27
ENDBRANCH   1  22
BRANCH   7  30
ATOM     30  O   UNL     1       5.271  -0.546  -2.353  0.00  0.00    -0.364 OA
ATOM     31  H   UNL     1       5.440  -0.365  -3.288  0.00  0.00    +0.212 HD
ENDBRANCH   7  30
TORSDOF 5
