REMARK  Name = ZINC02618593
REMARK  11 active torsions:
REMARK  status: ('A' for Active; 'I' for Inactive)
REMARK    1  A    between atoms: C_1  and  O_2
REMARK    2  A    between atoms: O_2  and  C_3
REMARK    3  A    between atoms: C_6  and  C_11
REMARK    4  A    between atoms: C_8  and  O_9
REMARK    5  A    between atoms: O_9  and  C_10
REMARK    6  A    between atoms: C_14  and  C_31
REMARK    7  A    between atoms: C_17  and  C_19
REMARK    8  A    between atoms: C_19  and  O_20
REMARK    9  A    between atoms: O_20  and  C_21
REMARK   10  A    between atoms: C_21  and  C_23
REMARK   11  A    between atoms: C_27  and  N_29
REMARK                            x       y       z     vdW  Elec       q    Type
REMARK                         _______ _______ _______ _____ _____    ______ ____
ROOT
ATOM      1  C   UNL     1      -4.987  -2.627   0.035  0.00  0.00    +0.152 C 
ATOM      2  C   UNL     1      -5.611  -2.588  -1.342  0.00  0.00    +0.027 C 
ATOM      3  C   UNL     1      -6.764  -1.924  -1.238  0.00  0.00    +0.057 C 
ATOM      4  N   UNL     1      -6.992  -1.506   0.067  0.00  0.00    -0.260 N 
ATOM      5  N   UNL     1      -5.936  -1.908   0.900  0.00  0.00    -0.208 N 
ATOM      6  C   UNL     1      -5.814  -1.682   2.224  0.00  0.00    +0.270 C 
ATOM      7  O   UNL     1      -4.841  -2.090   2.821  0.00  0.00    -0.270 OA
ATOM      8  H   UNL     1      -7.770  -1.008   0.361  0.00  0.00    +0.170 HD
ENDROOT
BRANCH   1  12
ATOM      9  C   UNL     1      -1.201  -0.638   0.010  0.00  0.00    +0.162 A 
ATOM     10  C   UNL     1      -2.374   0.099   0.019  0.00  0.00    +0.050 A 
ATOM     11  C   UNL     1      -3.596  -0.546   0.027  0.00  0.00    +0.009 A 
ATOM     12  C   UNL     1      -3.652  -1.928   0.026  0.00  0.00    -0.018 A 
ATOM     13  C   UNL     1      -2.485  -2.669   0.017  0.00  0.00    +0.055 A 
ATOM     14  C   UNL     1      -1.257  -2.028   0.003  0.00  0.00    +0.162 A 
BRANCH   9  16
ATOM     15  C   UNL     1      -0.017   1.425   0.010  0.00  0.00    +0.277 C 
ATOM     16  O   UNL     1       0.002  -0.004   0.002  0.00  0.00    -0.491 OA
ENDBRANCH   9  16
BRANCH  14  17
ATOM     17  O   UNL     1      -0.108  -2.756  -0.012  0.00  0.00    -0.491 OA
ATOM     18  C   UNL     1      -0.242  -4.179  -0.018  0.00  0.00    +0.277 C 
ENDBRANCH  14  17
ENDBRANCH   1  12
BRANCH   3  19
ATOM     19  C   UNL     1      -7.679  -1.667  -2.365  0.00  0.00    +0.034 A 
ATOM     20  C   UNL     1      -8.875  -0.997  -2.370  0.00  0.00    +0.017 A 
ATOM     21  C   UNL     1      -9.563  -0.881  -3.558  0.00  0.00    +0.008 A 
ATOM     22  C   UNL     1      -9.038  -1.431  -4.683  0.00  0.00    +0.046 A 
ATOM     23  S   UNL     1      -7.514  -2.139  -4.079  0.00  0.00    -0.095 S 
ENDBRANCH   3  19
BRANCH   6  24
ATOM     24  C   UNL     1      -6.888  -0.923   2.960  0.00  0.00    +0.329 C 
BRANCH  24  25
ATOM     25  O   UNL     1      -6.533  -0.814   4.340  0.00  0.00    -0.452 OA
BRANCH  25  26
ATOM     26  C   UNL     1      -7.393  -0.158   5.143  0.00  0.00    +0.340 C 
ATOM     27  O   UNL     1      -8.416   0.308   4.685  0.00  0.00    -0.245 OA
BRANCH  26  28
ATOM     28  C   UNL     1      -7.091  -0.007   6.581  0.00  0.00    +0.061 A 
ATOM     29  C   UNL     1      -5.912  -0.537   7.109  0.00  0.00    +0.016 A 
ATOM     30  C   UNL     1      -5.633  -0.394   8.452  0.00  0.00    +0.022 A 
ATOM     31  C   UNL     1      -6.517   0.274   9.281  0.00  0.00    +0.062 A 
ATOM     32  C   UNL     1      -7.694   0.806   8.764  0.00  0.00    +0.044 A 
ATOM     33  C   UNL     1      -7.981   0.672   7.415  0.00  0.00    +0.039 A 
ATOM     34 CL   UNL     1      -6.157   0.449  10.970  0.00  0.00    -0.082 Cl
BRANCH  32  35
ATOM     35  N   UNL     1      -8.585   1.480   9.604  0.00  0.00    -0.357 N 
ATOM     36  H   UNL     1      -8.382   1.577  10.548  0.00  0.00    +0.142 HD
ATOM     37  H   UNL     1      -9.405   1.851   9.244  0.00  0.00    +0.142 HD
ENDBRANCH  32  35
ENDBRANCH  26  28
ENDBRANCH  25  26
ENDBRANCH  24  25
ENDBRANCH   6  24
TORSDOF 9
