REMARK  Name = ZINC63279955
REMARK  13 active torsions:
REMARK  status: ('A' for Active; 'I' for Inactive)
REMARK    1  A    between atoms: C_1  and  O_2
REMARK    2  A    between atoms: O_2  and  C_3
REMARK    3  A    between atoms: C_9  and  C_12
REMARK    4  A    between atoms: C_12  and  C_13
REMARK    5  A    between atoms: C_13  and  N_14
REMARK    6  A    between atoms: C_15  and  C_17
REMARK    7  A    between atoms: C_20  and  C_24
REMARK    8  A    between atoms: C_26  and  O_34
REMARK    9  A    between atoms: C_27  and  O_32
REMARK   10  A    between atoms: C_28  and  O_30
REMARK   11  A    between atoms: O_30  and  C_31
REMARK   12  A    between atoms: O_32  and  C_33
REMARK   13  A    between atoms: O_34  and  C_35
REMARK                            x       y       z     vdW  Elec       q    Type
REMARK                         _______ _______ _______ _____ _____    ______ ____
ROOT
ATOM      1  C   UNL     1       0.477  -8.492   2.585  0.00  0.00    +0.086 C 
ATOM      2  C   UNL     1       0.908  -9.020   3.749  0.00  0.00    +0.020 C 
ATOM      3  N   UNL     1       0.445  -8.601   4.945  0.00  0.00    -0.331 N 
ATOM      4  C   UNL     1       0.545  -9.515   6.098  0.00  0.00    +0.160 C 
ATOM      5  S   UNL     1       1.450 -10.950   5.379  0.00  0.00    -0.128 S 
ATOM      6  C   UNL     1       1.946 -10.135   3.802  0.00  0.00    +0.121 C 
ATOM      7  H   UNL     1       0.055  -7.719   5.044  0.00  0.00    +0.147 HD
ENDROOT
BRANCH   4   8
ATOM      8  C   UNL     1      -0.823  -9.925   6.580  0.00  0.00    -0.010 A 
ATOM      9  C   UNL     1      -1.873 -10.006   5.684  0.00  0.00    +0.056 A 
ATOM     10  C   UNL     1      -3.133 -10.381   6.123  0.00  0.00    +0.166 A 
ATOM     11  C   UNL     1      -3.340 -10.677   7.465  0.00  0.00    +0.204 A 
ATOM     12  C   UNL     1      -2.282 -10.595   8.362  0.00  0.00    +0.166 A 
ATOM     13  C   UNL     1      -1.023 -10.223   7.914  0.00  0.00    +0.056 A 
BRANCH  12  14
ATOM     14  O   UNL     1      -2.479 -10.883   9.677  0.00  0.00    -0.491 OA
ATOM     15  C   UNL     1      -1.346 -10.778  10.541  0.00  0.00    +0.277 C 
ENDBRANCH  12  14
BRANCH  11  16
ATOM     16  O   UNL     1      -4.576 -11.046   7.900  0.00  0.00    -0.488 OA
ATOM     17  C   UNL     1      -4.880 -12.442   7.883  0.00  0.00    +0.277 C 
ENDBRANCH  11  16
BRANCH  10  18
ATOM     18  O   UNL     1      -4.166 -10.460   5.242  0.00  0.00    -0.491 OA
ATOM     19  C   UNL     1      -3.881 -10.141   3.878  0.00  0.00    +0.277 C 
ENDBRANCH  10  18
ENDBRANCH   4   8
BRANCH   1  21
ATOM     20  N   UNL     1      -0.941  -6.945   1.436  0.00  0.00    -0.311 N 
ATOM     21  C   UNL     1      -0.588  -7.561   2.582  0.00  0.00    +0.238 C 
ATOM     22  O   UNL     1      -1.185  -7.315   3.614  0.00  0.00    -0.271 OA
ATOM     23  H   UNL     1      -0.465  -7.140   0.614  0.00  0.00    +0.149 HD
BRANCH  20  24
ATOM     24  C   UNL     1      -2.043  -5.980   1.433  0.00  0.00    +0.109 C 
BRANCH  24  25
ATOM     25  C   UNL     1      -2.237  -5.431   0.018  0.00  0.00    +0.052 C 
BRANCH  25  32
ATOM     26  C   UNL     1      -2.349  -0.855   0.389  0.00  0.00    +0.121 A 
ATOM     27  C   UNL     1      -3.639  -0.297   0.337  0.00  0.00    +0.047 A 
ATOM     28  C   UNL     1      -4.751  -1.049   0.191  0.00  0.00    +0.029 A 
ATOM     29  C   UNL     1      -4.634  -2.507   0.079  0.00  0.00    +0.043 A 
ATOM     30  N   UNL     1      -5.532  -3.449  -0.067  0.00  0.00    -0.380 N 
ATOM     31  C   UNL     1      -4.846  -4.745  -0.122  0.00  0.00    +0.144 C 
ATOM     32  C   UNL     1      -3.371  -4.439   0.015  0.00  0.00    -0.040 C 
ATOM     33  C   UNL     1      -3.276  -3.095   0.133  0.00  0.00    +0.002 A 
ATOM     34  C   UNL     1      -2.134  -2.188   0.290  0.00  0.00    +0.055 A 
ATOM     35  H   UNL     1      -6.491  -3.313  -0.127  0.00  0.00    +0.160 HD
BRANCH  26  37
ATOM     36  C   UNL     1      -1.556   1.372   0.640  0.00  0.00    +0.277 C 
ATOM     37  O   UNL     1      -1.282  -0.027   0.539  0.00  0.00    -0.495 OA
ENDBRANCH  26  37
ENDBRANCH  25  32
ENDBRANCH  24  25
ENDBRANCH  20  24
ENDBRANCH   1  21
TORSDOF 9
