REMARK  Name = ZINC14241628
REMARK  8 active torsions:
REMARK  status: ('A' for Active; 'I' for Inactive)
REMARK    1  A    between atoms: C_1  and  C_2
REMARK    2  A    between atoms: C_2  and  C_4
REMARK    3  A    between atoms: C_2  and  N_14
REMARK    4  A    between atoms: C_8  and  S_10
REMARK    5  A    between atoms: S_10  and  N_13
REMARK    6  A    between atoms: C_22  and  C_24
REMARK    7  A    between atoms: C_24  and  S_25
REMARK    8  A    between atoms: S_25  and  C_26
REMARK                            x       y       z     vdW  Elec       q    Type
REMARK                         _______ _______ _______ _____ _____    ______ ____
ROOT
ATOM      1  N   UNL     1       4.337  -0.521  -0.040  0.00  0.00    -0.322 N 
ATOM      2  C   UNL     1       3.692   0.704  -0.027  0.00  0.00    +0.131 A 
ATOM      3  C   UNL     1       2.272   0.772  -0.015  0.00  0.00    +0.051 A 
ATOM      4  C   UNL     1       1.303  -0.336  -0.014  0.00  0.00    -0.025 A 
ATOM      5  C   UNL     1       0.002  -0.004   0.002  0.00  0.00    -0.004 A 
ATOM      6  S   UNL     1      -0.022   1.774   0.012  0.00  0.00    -0.073 S 
ATOM      7  C   UNL     1       1.726   2.068  -0.003  0.00  0.00    +0.114 A 
ATOM      8  N   UNL     1       2.494   3.140  -0.004  0.00  0.00    -0.224 NA
ATOM      9  C   UNL     1       3.807   3.016  -0.016  0.00  0.00    +0.142 A 
ATOM     10  N   UNL     1       4.389   1.829  -0.027  0.00  0.00    -0.216 NA
ATOM     11  C   UNL     1      -0.893  -1.214   0.007  0.00  0.00    +0.043 C 
ATOM     12  C   UNL     1       0.030  -2.378   0.430  0.00  0.00    +0.010 C 
ATOM     13  C   UNL     1       1.410  -1.864  -0.026  0.00  0.00    +0.037 C 
ATOM     14  H   UNL     1       3.819  -1.341  -0.041  0.00  0.00    +0.148 HD
ENDROOT
BRANCH   1  16
ATOM     15  C   UNL     1       6.303  -0.464  -1.493  0.00  0.00    +0.033 C 
ATOM     16  C   UNL     1       5.800  -0.578  -0.053  0.00  0.00    +0.099 C 
BRANCH  16  17
ATOM     17  C   UNL     1       6.257  -1.888   0.536  0.00  0.00    -0.026 A 
ATOM     18  C   UNL     1       5.574  -3.053   0.242  0.00  0.00    +0.005 A 
ATOM     19  C   UNL     1       5.992  -4.255   0.782  0.00  0.00    +0.002 A 
ATOM     20  C   UNL     1       7.095  -4.291   1.616  0.00  0.00    +0.028 A 
ATOM     21  C   UNL     1       7.778  -3.126   1.909  0.00  0.00    +0.105 A 
ATOM     22  C   UNL     1       7.362  -1.925   1.366  0.00  0.00    +0.034 A 
BRANCH  21  23
ATOM     23  S   UNL     1       9.183  -3.173   2.971  0.00  0.00    +0.056 S 
ATOM     24  O   UNL     1       9.318  -1.871   3.524  0.00  0.00    -0.153 OA
ATOM     25  O   UNL     1       9.043  -4.333   3.780  0.00  0.00    -0.153 OA
BRANCH  23  26
ATOM     26  N   UNL     1      10.512  -3.421   2.014  0.00  0.00    -0.204 NA
ATOM     27  H   UNL     1      11.374  -3.065   2.280  0.00  0.00    +0.144 HD
ATOM     28  H   UNL     1      10.428  -3.923   1.188  0.00  0.00    +0.144 HD
ENDBRANCH  23  26
ENDBRANCH  21  23
ENDBRANCH  16  17
ENDBRANCH   1  16
BRANCH   9  29
ATOM     29  C   UNL     1       4.664   4.255  -0.016  0.00  0.00    +0.150 C 
BRANCH  29  30
ATOM     30  S   UNL     1       4.993   4.762  -1.727  0.00  0.00    -0.117 S 
BRANCH  30  31
ATOM     31  C   UNL     1       5.992   6.204  -1.560  0.00  0.00    +0.008 A 
ATOM     32  C   UNL     1       6.327   6.676  -0.296  0.00  0.00    +0.015 A 
ATOM     33  C   UNL     1       7.116   7.803  -0.169  0.00  0.00    +0.001 A 
ATOM     34  C   UNL     1       7.561   8.468  -1.297  0.00  0.00    +0.000 A 
ATOM     35  C   UNL     1       7.224   8.004  -2.556  0.00  0.00    +0.001 A 
ATOM     36  C   UNL     1       6.442   6.875  -2.691  0.00  0.00    +0.015 A 
ENDBRANCH  30  31
ENDBRANCH  29  30
ENDBRANCH   9  29
TORSDOF 7
