REMARK  Name = ZINC36805927
REMARK  12 active torsions:
REMARK  status: ('A' for Active; 'I' for Inactive)
REMARK    1  A    between atoms: C_1  and  C_2
REMARK    2  A    between atoms: C_2  and  C_3
REMARK    3  A    between atoms: C_10  and  C_12
REMARK    4  A    between atoms: C_12  and  C_14
REMARK    5  A    between atoms: C_12  and  S_15
REMARK    6  A    between atoms: S_15  and  C_16
REMARK    7  A    between atoms: N_29  and  C_30
REMARK    8  A    between atoms: C_30  and  C_31
REMARK    9  A    between atoms: C_31  and  C_32
REMARK   10  A    between atoms: C_32  and  N_33
REMARK   11  A    between atoms: N_33  and  C_34
REMARK   12  A    between atoms: N_33  and  C_35
REMARK                            x       y       z     vdW  Elec       q    Type
REMARK                         _______ _______ _______ _____ _____    ______ ____
ROOT
ATOM      1  C   UNL     1      -2.422   3.203   5.369  0.00  0.00    +0.173 A 
ATOM      2  N   UNL     1      -3.383   2.384   5.747  0.00  0.00    -0.216 NA
ATOM      3  C   UNL     1      -4.123   2.651   6.816  0.00  0.00    +0.117 A 
ATOM      4  C   UNL     1      -3.926   3.806   7.592  0.00  0.00    +0.076 A 
ATOM      5  C   UNL     1      -4.821   3.966   8.740  0.00  0.00    -0.023 A 
ATOM      6  C   UNL     1      -5.738   2.998   8.940  0.00  0.00    -0.004 A 
ATOM      7  S   UNL     1      -5.470   1.832   7.631  0.00  0.00    -0.073 S 
ATOM      8  C   UNL     1      -6.759   2.927  10.034  0.00  0.00    +0.043 C 
ATOM      9  C   UNL     1      -6.374   3.939  11.123  0.00  0.00    +0.005 C 
ATOM     10  C   UNL     1      -6.048   5.278  10.456  0.00  0.00    +0.005 C 
ATOM     11  C   UNL     1      -4.736   5.166   9.679  0.00  0.00    +0.037 C 
ATOM     12  C   UNL     1      -2.877   4.677   7.158  0.00  0.00    +0.263 A 
ATOM     13  O   UNL     1      -2.632   5.703   7.770  0.00  0.00    -0.267 OA
ATOM     14  N   UNL     1      -2.159   4.345   6.069  0.00  0.00    -0.287 N 
ENDROOT
BRANCH   1  15
ATOM     15  S   UNL     1      -1.460   2.816   3.945  0.00  0.00    -0.075 S 
BRANCH  15  16
ATOM     16  C   UNL     1      -2.155   1.246   3.360  0.00  0.00    +0.137 C 
ATOM     17  C   UNL     1      -1.905   0.156   4.404  0.00  0.00    +0.029 C 
BRANCH  16  24
ATOM     18  C   UNL     1      -1.469  -0.423  -0.025  0.00  0.00    +0.076 C 
ATOM     19  C   UNL     1      -1.573  -1.951  -0.080  0.00  0.00    +0.022 C 
ATOM     20  C   UNL     1      -3.043  -2.362   0.030  0.00  0.00    +0.003 C 
ATOM     21  C   UNL     1      -3.609  -1.887   1.370  0.00  0.00    +0.019 C 
ATOM     22  C   UNL     1      -3.528  -0.359   1.441  0.00  0.00    +0.108 C 
ATOM     23  N   UNL     1      -2.140   0.056   1.191  0.00  0.00    -0.298 N 
ATOM     24  C   UNL     1      -1.495   0.857   2.061  0.00  0.00    +0.229 C 
ATOM     25  O   UNL     1      -0.384   1.266   1.800  0.00  0.00    -0.274 OA
BRANCH  18  27
ATOM     26  C   UNL     1       0.711  -0.546  -1.241  0.00  0.00    +0.006 C 
ATOM     27  C   UNL     1       0.004  -0.011   0.006  0.00  0.00    +0.019 C 
ENDBRANCH  18  27
ENDBRANCH  16  24
ENDBRANCH  15  16
ENDBRANCH   1  15
BRANCH  14  28
ATOM     28  C   UNL     1      -1.080   5.229   5.623  0.00  0.00    +0.125 C 
BRANCH  28  29
ATOM     29  C   UNL     1      -1.638   6.259   4.639  0.00  0.00    +0.003 C 
BRANCH  29  30
ATOM     30  C   UNL     1      -0.510   7.182   4.173  0.00  0.00    -0.078 C 
BRANCH  30  31
ATOM     31  N   UNL     1      -1.046   8.172   3.228  0.00  0.00    +0.376 N 
ATOM     32  C   UNL     1      -2.001   9.045   3.923  0.00  0.00    -0.097 C 
ATOM     33  C   UNL     1       0.055   8.981   2.689  0.00  0.00    -0.097 C 
ATOM     34  H   UNL     1      -1.515   7.695   2.472  0.00  0.00    -0.083 HD
ENDBRANCH  30  31
ENDBRANCH  29  30
ENDBRANCH  28  29
ENDBRANCH  14  28
TORSDOF 8
