REMARK  Name = ZINC08924717
REMARK  13 active torsions:
REMARK  status: ('A' for Active; 'I' for Inactive)
REMARK    1  A    between atoms: C_1  and  C_2
REMARK    2  A    between atoms: C_9  and  N_15
REMARK    3  A    between atoms: C_10  and  C_11
REMARK    4  A    between atoms: C_11  and  O_13
REMARK    5  A    between atoms: O_13  and  C_14
REMARK    6  A    between atoms: C_16  and  C_18
REMARK    7  A    between atoms: C_18  and  S_19
REMARK    8  A    between atoms: S_19  and  C_20
REMARK    9  A    between atoms: C_23  and  C_25
REMARK   10  A    between atoms: C_28  and  O_33
REMARK   11  A    between atoms: C_29  and  O_31
REMARK   12  A    between atoms: O_31  and  C_32
REMARK   13  A    between atoms: O_33  and  C_34
REMARK                            x       y       z     vdW  Elec       q    Type
REMARK                         _______ _______ _______ _____ _____    ______ ____
ROOT
ATOM      1  N   UNL     1      -1.119   2.575   0.022  0.00  0.00    -0.279 N 
ATOM      2  C   UNL     1      -2.365   2.062   0.026  0.00  0.00    +0.228 C 
ATOM      3  O   UNL     1      -2.527   0.860   0.020  0.00  0.00    -0.275 OA
ATOM      4  H   UNL     1      -0.990   3.536   0.026  0.00  0.00    +0.155 HD
ENDROOT
BRANCH   1  12
ATOM      5  C   UNL     1       4.798  -2.538  -0.153  0.00  0.00    +0.008 C 
ATOM      6  C   UNL     1       3.950  -1.293  -0.424  0.00  0.00    -0.009 C 
ATOM      7  C   UNL     1       4.473  -0.123   0.415  0.00  0.00    +0.008 C 
ATOM      8  C   UNL     1       3.798   1.176  -0.027  0.00  0.00    +0.037 C 
ATOM      9  C   UNL     1       2.288   0.973  -0.015  0.00  0.00    -0.021 A 
ATOM     10  C   UNL     1       1.753  -0.266  -0.017  0.00  0.00    -0.004 A 
ATOM     11  S   UNL     1       0.002  -0.004   0.002  0.00  0.00    -0.077 S 
ATOM     12  C   UNL     1      -0.021   1.728   0.011  0.00  0.00    +0.086 A 
ATOM     13  C   UNL     1       1.326   2.063   0.001  0.00  0.00    +0.091 A 
ATOM     14  C   UNL     1       2.491  -1.569  -0.032  0.00  0.00    +0.046 C 
BRANCH  13  15
ATOM     15  C   UNL     1       1.762   3.461   0.003  0.00  0.00    +0.342 C 
ATOM     16  O   UNL     1       1.954   4.036   1.058  0.00  0.00    -0.245 OA
BRANCH  15  17
ATOM     17  O   UNL     1       1.951   4.111  -1.163  0.00  0.00    -0.464 OA
ATOM     18  C   UNL     1       2.384   5.495  -1.085  0.00  0.00    +0.280 C 
ENDBRANCH  15  17
ENDBRANCH  13  15
ENDBRANCH   1  12
BRANCH   2  19
ATOM     19  C   UNL     1      -3.559   2.982   0.037  0.00  0.00    +0.175 C 
BRANCH  19  20
ATOM     20  S   UNL     1      -5.079   2.000   0.040  0.00  0.00    -0.056 S 
BRANCH  20  21
ATOM     21  C   UNL     1      -6.278   3.291   0.052  0.00  0.00    +0.278 A 
ATOM     22  N   UNL     1      -6.031   4.580   0.057  0.00  0.00    -0.101 NA
ATOM     23  N   UNL     1      -7.142   5.228   0.066  0.00  0.00    -0.106 NA
ATOM     24  C   UNL     1      -8.142   4.380   0.067  0.00  0.00    +0.249 A 
ATOM     25  O   UNL     1      -7.616   3.136   0.053  0.00  0.00    -0.411 OA
BRANCH  24  26
ATOM     26  C   UNL     1      -9.579   4.723   0.076  0.00  0.00    +0.042 A 
ATOM     27  C   UNL     1     -10.539   3.709   0.071  0.00  0.00    +0.017 A 
ATOM     28  C   UNL     1     -11.881   4.031   0.086  0.00  0.00    +0.050 A 
ATOM     29  C   UNL     1     -12.279   5.359   0.094  0.00  0.00    +0.162 A 
ATOM     30  C   UNL     1     -11.326   6.375   0.093  0.00  0.00    +0.162 A 
ATOM     31  C   UNL     1      -9.980   6.060   0.084  0.00  0.00    +0.062 A 
BRANCH  30  32
ATOM     32  O   UNL     1     -11.720   7.677   0.101  0.00  0.00    -0.491 OA
ATOM     33  C   UNL     1     -10.689   8.666   0.099  0.00  0.00    +0.277 C 
ENDBRANCH  30  32
BRANCH  29  34
ATOM     34  O   UNL     1     -13.602   5.671   0.103  0.00  0.00    -0.491 OA
ATOM     35  C   UNL     1     -14.525   4.580   0.103  0.00  0.00    +0.277 C 
ENDBRANCH  29  34
ENDBRANCH  24  26
ENDBRANCH  20  21
ENDBRANCH  19  20
ENDBRANCH   2  19
TORSDOF 9
