REMARK  Name = ZINC35955479
REMARK  6 active torsions:
REMARK  status: ('A' for Active; 'I' for Inactive)
REMARK    1  A    between atoms: C_1  and  O_2
REMARK    2  A    between atoms: O_2  and  C_3
REMARK    3  A    between atoms: C_6  and  C_9
REMARK    4  A    between atoms: C_13  and  N_24
REMARK    5  A    between atoms: N_18  and  C_21
REMARK    6  A    between atoms: C_19  and  N_20
REMARK                            x       y       z     vdW  Elec       q    Type
REMARK                         _______ _______ _______ _____ _____    ______ ____
ROOT
ATOM      1  C   UNL     1       2.564  -2.466   4.349  0.00  0.00    +0.028 A 
ATOM      2  C   UNL     1       4.021  -2.373   4.500  0.00  0.00    -0.002 A 
ATOM      3  C   UNL     1       4.799  -1.587   3.647  0.00  0.00    +0.011 A 
ATOM      4  C   UNL     1       6.152  -1.530   3.825  0.00  0.00    +0.023 A 
ATOM      5  C   UNL     1       6.769  -2.248   4.850  0.00  0.00    +0.025 A 
ATOM      6  C   UNL     1       6.022  -3.034   5.708  0.00  0.00    +0.036 A 
ATOM      7  C   UNL     1       4.637  -3.104   5.541  0.00  0.00    +0.049 A 
ATOM      8  C   UNL     1       3.795  -3.919   6.420  0.00  0.00    +0.261 A 
ATOM      9  O   UNL     1       4.298  -4.559   7.327  0.00  0.00    -0.267 OA
ATOM     10  N   UNL     1       2.464  -3.958   6.224  0.00  0.00    -0.293 N 
ATOM     11  C   UNL     1       1.850  -3.254   5.227  0.00  0.00    +0.108 A 
ENDROOT
BRANCH   1  15
ATOM     12  C   UNL     1       0.573  -0.326   1.263  0.00  0.00    +0.120 A 
ATOM     13  C   UNL     1       1.223   0.365   2.276  0.00  0.00    +0.046 A 
ATOM     14  C   UNL     1       1.870  -0.326   3.279  0.00  0.00    +0.012 A 
ATOM     15  C   UNL     1       1.870  -1.721   3.275  0.00  0.00    -0.014 A 
ATOM     16  C   UNL     1       1.215  -2.412   2.255  0.00  0.00    +0.012 A 
ATOM     17  C   UNL     1       0.566  -1.714   1.258  0.00  0.00    +0.046 A 
BRANCH  12  19
ATOM     18  C   UNL     1      -0.018   1.786   0.342  0.00  0.00    +0.277 C 
ATOM     19  O   UNL     1      -0.064   0.359   0.276  0.00  0.00    -0.495 OA
ENDBRANCH  12  19
ENDBRANCH   1  15
BRANCH  11  20
ATOM     20  N   UNL     1       0.480  -3.339   5.090  0.00  0.00    -0.344 N 
ATOM     21  H   UNL     1       0.032  -2.848   4.384  0.00  0.00    +0.144 HD
ATOM     22  H   UNL     1      -0.035  -3.890   5.701  0.00  0.00    +0.144 HD
ENDBRANCH  11  20
BRANCH  10  23
ATOM     23  C   UNL     1       1.642  -4.781   7.116  0.00  0.00    +0.092 C 
ATOM     24  C   UNL     1       2.116  -6.208   7.397  0.00  0.00    +0.027 C 
ATOM     25  C   UNL     1       0.901  -5.968   6.499  0.00  0.00    +0.027 C 
ENDBRANCH  10  23
BRANCH   5  26
ATOM     26  N   UNL     1       8.157  -2.173   5.011  0.00  0.00    -0.358 N 
ATOM     27  H   UNL     1       8.685  -1.623   4.411  0.00  0.00    +0.142 HD
ATOM     28  H   UNL     1       8.591  -2.670   5.722  0.00  0.00    +0.142 HD
ENDBRANCH   5  26
TORSDOF 5
