REMARK  Name = ZINC21781192
REMARK  8 active torsions:
REMARK  status: ('A' for Active; 'I' for Inactive)
REMARK    1  A    between atoms: C_1  and  C_2
REMARK    2  A    between atoms: C_2  and  C_3
REMARK    3  A    between atoms: C_2  and  N_4
REMARK    4  A    between atoms: C_5  and  C_7
REMARK    5  A    between atoms: C_13  and  C_18
REMARK    6  A    between atoms: C_13  and  C_19
REMARK    7  A    between atoms: N_14  and  C_17
REMARK    8  A    between atoms: N_21  and  C_22
REMARK                            x       y       z     vdW  Elec       q    Type
REMARK                         _______ _______ _______ _____ _____    ______ ____
ROOT
ATOM      1  C   UNL     1       3.156   3.518  -0.352  0.00  0.00    +0.148 A 
ATOM      2  C   UNL     1       2.633   2.237  -0.060  0.00  0.00    +0.067 A 
ATOM      3  C   UNL     1       1.306   2.429   0.116  0.00  0.00    +0.124 A 
ATOM      4  N   UNL     1       1.054   3.774  -0.066  0.00  0.00    -0.256 N 
ATOM      5  N   UNL     1       2.147   4.374  -0.335  0.00  0.00    -0.166 NA
ATOM      6  C   UNL     1      -0.306   4.311   0.057  0.00  0.00    +0.179 C 
ATOM      7  C   UNL     1      -1.311   3.237  -0.354  0.00  0.00    +0.130 C 
ATOM      8  N   UNL     1      -1.043   1.945   0.265  0.00  0.00    -0.284 N 
ATOM      9  C   UNL     1       0.221   1.488   0.442  0.00  0.00    +0.265 C 
ATOM     10  O   UNL     1       0.446   0.362   0.844  0.00  0.00    -0.268 OA
ATOM     11  C   UNL     1      -2.169   1.120   0.710  0.00  0.00    +0.133 C 
ATOM     12  C   UNL     1      -1.262   3.072  -1.874  0.00  0.00    +0.044 C 
ENDROOT
BRANCH   1  14
ATOM     13  N   UNL     1       4.933   5.112  -0.892  0.00  0.00    -0.308 N 
ATOM     14  C   UNL     1       4.571   3.841  -0.627  0.00  0.00    +0.264 C 
ATOM     15  O   UNL     1       5.410   2.961  -0.613  0.00  0.00    -0.268 OA
ATOM     16  H   UNL     1       4.174   5.909  -0.904  0.00  0.00    +0.149 HD
BRANCH  13  18
ATOM     17  C   UNL     1       6.414   6.706  -2.010  0.00  0.00    +0.027 C 
ATOM     18  C   UNL     1       6.336   5.433  -1.164  0.00  0.00    +0.067 C 
ATOM     19  C   UNL     1       7.074   5.654   0.158  0.00  0.00    +0.027 C 
ENDBRANCH  13  18
ENDBRANCH   1  14
BRANCH   7  20
ATOM     20  C   UNL     1      -2.693   3.688   0.041  0.00  0.00    +0.238 C 
ATOM     21  O   UNL     1      -3.451   4.127  -0.797  0.00  0.00    -0.273 OA
ATOM     22  N   UNL     1      -3.088   3.604   1.327  0.00  0.00    -0.311 N 
ATOM     23  H   UNL     1      -2.373   3.288   2.102  0.00  0.00    +0.149 HD
BRANCH  22  24
ATOM     24  C   UNL     1      -4.467   3.933   1.694  0.00  0.00    +0.073 C 
ATOM     25  C   UNL     1      -4.595   5.463   1.835  0.00  0.00    +0.022 C 
ATOM     26  C   UNL     1      -6.047   5.836   1.701  0.00  0.00    +0.002 C 
ATOM     27  C   UNL     1      -6.758   5.938   3.064  0.00  0.00    +0.000 C 
ATOM     28  C   UNL     1      -6.360   4.807   4.032  0.00  0.00    +0.000 C 
ATOM     29  C   UNL     1      -6.272   3.469   3.348  0.00  0.00    +0.002 C 
ATOM     30  C   UNL     1      -4.809   3.232   2.923  0.00  0.00    +0.022 C 
ENDBRANCH  22  24
ENDBRANCH   7  20
TORSDOF 4
