REMARK  Name = ZINC66345334
REMARK  7 active torsions:
REMARK  status: ('A' for Active; 'I' for Inactive)
REMARK    1  A    between atoms: C_1  and  C_2
REMARK    2  A    between atoms: C_4  and  C_26
REMARK    3  A    between atoms: C_7  and  N_8
REMARK    4  A    between atoms: N_11  and  C_12
REMARK    5  A    between atoms: C_12  and  C_13
REMARK    6  A    between atoms: N_17  and  C_19
REMARK    7  A    between atoms: N_28  and  C_29
REMARK                            x       y       z     vdW  Elec       q    Type
REMARK                         _______ _______ _______ _____ _____    ______ ____
ROOT
ATOM      1  N   UNL     1       0.025  -0.012   2.413  0.00  0.00    -0.269 N 
ATOM      2  C   UNL     1      -0.057  -0.688   3.577  0.00  0.00    +0.304 C 
ATOM      3  O   UNL     1      -0.040  -1.903   3.576  0.00  0.00    -0.253 OA
ATOM      4  N   UNL     1      -0.156  -0.015   4.741  0.00  0.00    -0.299 N 
ATOM      5  H   UNL     1       0.078   0.956   2.417  0.00  0.00    +0.156 HD
ATOM      6  H   UNL     1      -0.169   0.955   4.741  0.00  0.00    +0.150 HD
ENDROOT
BRANCH   1  13
ATOM      7  C   UNL     1      -1.270   1.182   0.184  0.00  0.00    +0.045 C 
ATOM      8  C   UNL     1      -0.589  -0.159   0.086  0.00  0.00    -0.028 A 
ATOM      9  C   UNL     1      -0.579  -0.838  -1.111  0.00  0.00    +0.018 A 
ATOM     10  C   UNL     1       0.053  -2.082  -1.202  0.00  0.00    +0.037 A 
ATOM     11  C   UNL     1       0.672  -2.631  -0.075  0.00  0.00    +0.015 A 
ATOM     12  C   UNL     1       0.657  -1.946   1.119  0.00  0.00    +0.024 A 
ATOM     13  C   UNL     1       0.033  -0.706   1.204  0.00  0.00    +0.038 A 
BRANCH  10  14
ATOM     14  C   UNL     1       0.066  -2.813  -2.483  0.00  0.00    +0.244 C 
ATOM     15  O   UNL     1      -0.474  -2.334  -3.462  0.00  0.00    -0.270 OA
ATOM     16  N   UNL     1       0.675  -4.012  -2.569  0.00  0.00    -0.314 N 
ATOM     17  C   UNL     1       0.688  -4.738  -3.841  0.00  0.00    +0.128 C 
ATOM     18  H   UNL     1       1.105  -4.394  -1.788  0.00  0.00    +0.149 HD
ENDBRANCH  10  14
ENDBRANCH   1  13
BRANCH   4  19
ATOM     19  C   UNL     1      -0.245  -0.749   6.005  0.00  0.00    +0.110 C 
BRANCH  19  20
ATOM     20  C   UNL     1      -0.348   0.243   7.165  0.00  0.00    +0.025 C 
ATOM     21  C   UNL     1       0.987   1.007   7.365  0.00  0.00    +0.025 C 
ATOM     22  C   UNL     1       0.950   1.384   8.861  0.00  0.00    +0.105 C 
ATOM     23  N   UNL     1       0.026   0.452   9.523  0.00  0.00    -0.330 N 
ATOM     24  C   UNL     1      -0.490  -0.497   8.518  0.00  0.00    +0.110 C 
BRANCH  23  25
ATOM     25  C   UNL     1      -0.309   0.463  10.880  0.00  0.00    +0.030 A 
ATOM     26  C   UNL     1      -1.194  -0.481  11.386  0.00  0.00    +0.026 A 
ATOM     27  C   UNL     1      -1.522  -0.468  12.727  0.00  0.00    +0.040 A 
ATOM     28  C   UNL     1      -0.970   0.483  13.568  0.00  0.00    +0.124 A 
ATOM     29  C   UNL     1      -0.088   1.425  13.066  0.00  0.00    +0.040 A 
ATOM     30  C   UNL     1       0.248   1.413  11.726  0.00  0.00    +0.026 A 
ATOM     31  F   UNL     1      -1.293   0.494  14.880  0.00  0.00    -0.205 F 
ENDBRANCH  23  25
ENDBRANCH  19  20
ENDBRANCH   4  19
TORSDOF 5
