REMARK  Name = ZINC66403134
REMARK  5 active torsions:
REMARK  status: ('A' for Active; 'I' for Inactive)
REMARK    1  A    between atoms: N_9  and  C_23
REMARK    2  A    between atoms: C_10  and  C_13
REMARK    3  A    between atoms: C_15  and  N_20
REMARK    4  A    between atoms: C_18  and  O_19
REMARK    5  A    between atoms: C_23  and  C_24
REMARK                            x       y       z     vdW  Elec       q    Type
REMARK                         _______ _______ _______ _____ _____    ______ ____
ROOT
ATOM      1  C   UNL     1      -0.522   1.248   0.560  0.00  0.00    +0.001 A 
ATOM      2  C   UNL     1       0.607   2.052   0.519  0.00  0.00    +0.002 A 
ATOM      3  C   UNL     1       1.862   1.493   0.371  0.00  0.00    +0.024 A 
ATOM      4  C   UNL     1       1.992   0.119   0.266  0.00  0.00    +0.041 A 
ATOM      5  C   UNL     1       0.850  -0.700   0.312  0.00  0.00    +0.058 A 
ATOM      6  C   UNL     1      -0.409  -0.123   0.458  0.00  0.00    +0.015 A 
ATOM      7  C   UNL     1       1.028  -2.159   0.206  0.00  0.00    +0.250 C 
ATOM      8  O   UNL     1       0.115  -2.912   0.487  0.00  0.00    -0.270 OA
ATOM      9  N   UNL     1       2.215  -2.650  -0.206  0.00  0.00    -0.267 N 
ATOM     10  C   UNL     1       3.298  -1.761  -0.625  0.00  0.00    +0.197 C 
ATOM     11  N   UNL     1       3.230  -0.493   0.112  0.00  0.00    -0.321 N 
ATOM     12  H   UNL     1       4.032  -0.092   0.483  0.00  0.00    +0.148 HD
ENDROOT
BRANCH  10  13
ATOM     13  C   UNL     1       3.173  -1.484  -2.101  0.00  0.00    +0.034 A 
ATOM     14  C   UNL     1       1.941  -1.574  -2.720  0.00  0.00    +0.043 A 
ATOM     15  C   UNL     1       1.825  -1.320  -4.074  0.00  0.00    +0.127 A 
ATOM     16  C   UNL     1       2.942  -0.974  -4.812  0.00  0.00    +0.036 A 
ATOM     17  C   UNL     1       4.176  -0.881  -4.199  0.00  0.00    +0.048 A 
ATOM     18  C   UNL     1       4.294  -1.131  -2.839  0.00  0.00    +0.123 A 
BRANCH  15  19
ATOM     19  N   UNL     1       0.504  -1.418  -4.734  0.00  0.00    +0.056 N 
ATOM     20  O   UNL     1      -0.472  -1.721  -4.089  0.00  0.00    -0.126 OA
ATOM     21  O   UNL     1       0.402  -1.196  -5.918  0.00  0.00    -0.126 OA
ENDBRANCH  15  19
BRANCH  18  22
ATOM     22  O   UNL     1       5.506  -1.036  -2.232  0.00  0.00    -0.506 OA
ATOM     23  H   UNL     1       6.041  -1.839  -2.295  0.00  0.00    +0.292 HD
ENDBRANCH  18  22
ENDBRANCH  10  13
BRANCH   9  24
ATOM     24  C   UNL     1       2.423  -4.100  -0.234  0.00  0.00    +0.184 C 
BRANCH  24  25
ATOM     25  C   UNL     1       1.891  -4.659  -1.529  0.00  0.00    +0.122 A 
ATOM     26  C   UNL     1       2.613  -4.895  -2.639  0.00  0.00    +0.046 A 
ATOM     27  C   UNL     1       1.721  -5.414  -3.605  0.00  0.00    +0.041 A 
ATOM     28  C   UNL     1       0.507  -5.464  -3.027  0.00  0.00    +0.195 A 
ATOM     29  O   UNL     1       0.617  -5.011  -1.768  0.00  0.00    -0.466 OA
ENDBRANCH  24  25
ENDBRANCH   9  24
TORSDOF 5
