REMARK  Name = ZINC01437071
REMARK  10 active torsions:
REMARK  status: ('A' for Active; 'I' for Inactive)
REMARK    1  A    between atoms: C_1  and  C_2
REMARK    2  A    between atoms: C_2  and  C_32
REMARK    3  A    between atoms: C_6  and  C_24
REMARK    4  A    between atoms: C_8  and  C_22
REMARK    5  A    between atoms: C_9  and  N_21
REMARK    6  A    between atoms: N_10  and  C_11
REMARK    7  A    between atoms: C_14  and  O_19
REMARK    8  A    between atoms: C_16  and  O_17
REMARK    9  A    between atoms: O_17  and  C_18
REMARK   10  A    between atoms: O_19  and  C_20
REMARK                            x       y       z     vdW  Elec       q    Type
REMARK                         _______ _______ _______ _____ _____    ______ ____
ROOT
ATOM      1  C   UNL     1      -0.020   1.031   2.509  0.00  0.00    +0.011 C 
ATOM      2  C   UNL     1      -0.728   1.579   1.268  0.00  0.00    -0.023 C 
ATOM      3  C   UNL     1      -0.013   1.086   0.008  0.00  0.00    +0.058 C 
ATOM      4  C   UNL     1      -0.742   1.585  -1.215  0.00  0.00    +0.025 C 
ATOM      5  C   UNL     1      -2.077   1.783  -1.197  0.00  0.00    +0.025 C 
ATOM      6  C   UNL     1      -2.807   2.263  -2.426  0.00  0.00    +0.098 C 
ATOM      7  C   UNL     1      -1.858   2.877  -3.413  0.00  0.00    +0.077 C 
ATOM      8  C   UNL     1      -0.522   2.642  -3.341  0.00  0.00    +0.107 C 
ATOM      9  N   UNL     1      -0.014   1.837  -2.348  0.00  0.00    -0.257 N 
ATOM     10  C   UNL     1      -2.829   1.544  -0.033  0.00  0.00    +0.162 C 
ATOM     11  O   UNL     1      -4.031   1.721  -0.053  0.00  0.00    -0.292 OA
ATOM     12  C   UNL     1      -2.173   1.072   1.236  0.00  0.00    +0.086 C 
ATOM     13  C   UNL     1      -0.719   3.108   1.299  0.00  0.00    +0.011 C 
ENDROOT
BRANCH   9  14
ATOM     14  C   UNL     1       1.259   1.268  -2.498  0.00  0.00    +0.081 A 
ATOM     15  C   UNL     1       1.398   0.023  -3.095  0.00  0.00    +0.031 A 
ATOM     16  C   UNL     1       2.652  -0.535  -3.247  0.00  0.00    +0.048 A 
ATOM     17  C   UNL     1       3.775   0.142  -2.792  0.00  0.00    +0.124 A 
ATOM     18  C   UNL     1       3.641   1.384  -2.190  0.00  0.00    +0.093 A 
ATOM     19  C   UNL     1       2.385   1.949  -2.041  0.00  0.00    +0.145 A 
BRANCH  19  20
ATOM     20  O   UNL     1       2.252   3.166  -1.451  0.00  0.00    -0.493 OA
ATOM     21  C   UNL     1       3.450   3.807  -1.007  0.00  0.00    +0.277 C 
ENDBRANCH  19  20
BRANCH  17  22
ATOM     22  O   UNL     1       5.007  -0.413  -2.938  0.00  0.00    -0.495 OA
ATOM     23  C   UNL     1       5.072  -1.694  -3.567  0.00  0.00    +0.277 C 
ENDBRANCH  17  22
ENDBRANCH   9  14
BRANCH   6  24
ATOM     24  C   UNL     1      -3.506   1.096  -3.073  0.00  0.00    -0.028 A 
ATOM     25  C   UNL     1      -4.880   1.100  -3.229  0.00  0.00    +0.012 A 
ATOM     26  C   UNL     1      -5.478   0.034  -3.815  0.00  0.00    +0.045 A 
ATOM     27  S   UNL     1      -4.084  -1.024  -4.168  0.00  0.00    -0.105 S 
ATOM     28  C   UNL     1      -2.797   0.029  -3.516  0.00  0.00    +0.049 A 
ENDBRANCH   6  24
BRANCH   8  29
ATOM     29  N   UNL     1       0.325   3.212  -4.262  0.00  0.00    -0.345 N 
ATOM     30  H   UNL     1      -0.032   3.780  -4.963  0.00  0.00    +0.144 HD
ATOM     31  H   UNL     1       1.279   3.045  -4.212  0.00  0.00    +0.144 HD
ENDBRANCH   8  29
BRANCH   7  32
ATOM     32  C   UNL     1      -2.370   3.724  -4.448  0.00  0.00    +0.099 C 
ATOM     33  N   UNL     1      -2.776   4.396  -5.269  0.00  0.00    -0.191 NA
ENDBRANCH   7  32
TORSDOF 6
