REMARK  Name = ZINC19520773
REMARK  10 active torsions:
REMARK  status: ('A' for Active; 'I' for Inactive)
REMARK    1  A    between atoms: C_1  and  C_2
REMARK    2  A    between atoms: C_2  and  C_3
REMARK    3  A    between atoms: C_6  and  C_31
REMARK    4  A    between atoms: C_11  and  C_13
REMARK    5  A    between atoms: N_18  and  C_19
REMARK    6  A    between atoms: C_19  and  C_20
REMARK    7  A    between atoms: C_25  and  C_26
REMARK    8  A    between atoms: C_26  and  C_27
REMARK    9  A    between atoms: C_26  and  C_28
REMARK   10  A    between atoms: C_26  and  C_29
REMARK                            x       y       z     vdW  Elec       q    Type
REMARK                         _______ _______ _______ _____ _____    ______ ____
ROOT
ATOM      1  C   UNL     1      -3.550  -5.713  -1.247  0.00  0.00    -0.016 C 
ATOM      2  C   UNL     1      -3.615  -6.782  -0.137  0.00  0.00    -0.011 C 
ATOM      3  C   UNL     1      -3.611  -8.114  -0.933  0.00  0.00    -0.020 C 
ATOM      4  C   UNL     1      -2.672  -7.768  -2.116  0.00  0.00    -0.077 C 
ATOM      5  N   UNL     1      -2.982  -6.360  -2.444  0.00  0.00    +0.388 N 
ATOM      6  H   UNL     1      -3.711  -6.319  -3.267  0.00  0.00    -0.080 HD
ENDROOT
BRANCH   1  13
ATOM      7  C   UNL     1      -0.627  -0.711   0.598  0.00  0.00    +0.074 C 
ATOM      8  C   UNL     1       0.589  -1.545   0.179  0.00  0.00    +0.058 C 
ATOM      9  C   UNL     1       0.338  -3.025   0.489  0.00  0.00    +0.214 C 
ATOM     10  N   UNL     1      -0.968  -3.409  -0.052  0.00  0.00    -0.239 N 
ATOM     11  C   UNL     1      -1.944  -2.520  -0.371  0.00  0.00    +0.118 A 
ATOM     12  C   UNL     1      -3.003  -3.215  -0.843  0.00  0.00    +0.066 A 
ATOM     13  C   UNL     1      -2.665  -4.574  -0.811  0.00  0.00    +0.052 A 
ATOM     14  N   UNL     1      -1.448  -4.687  -0.337  0.00  0.00    -0.176 NA
ATOM     15  N   UNL     1      -1.789  -1.141  -0.204  0.00  0.00    -0.326 N 
ATOM     16  H   UNL     1      -2.472  -0.391  -0.630  0.00  0.00    +0.148 HD
BRANCH   9  17
ATOM     17  C   UNL     1       1.432  -3.877  -0.159  0.00  0.00    +0.412 C 
ATOM     18  F   UNL     1       1.424  -3.672  -1.542  0.00  0.00    -0.168 F 
ATOM     19  F   UNL     1       2.678  -3.509   0.360  0.00  0.00    -0.168 F 
ATOM     20  F   UNL     1       1.194  -5.228   0.115  0.00  0.00    -0.168 F 
ENDBRANCH   9  17
BRANCH   7  22
ATOM     21  C   UNL     1      -1.522   1.607   0.855  0.00  0.00    +0.006 C 
ATOM     22  C   UNL     1      -0.347   0.771   0.343  0.00  0.00    +0.019 C 
ENDBRANCH   7  22
ENDBRANCH   1  13
BRANCH   5  23
ATOM     23  C   UNL     1      -1.781  -5.651  -2.905  0.00  0.00    -0.039 C 
BRANCH  23  24
ATOM     24  C   UNL     1      -1.422  -6.120  -4.292  0.00  0.00    -0.023 A 
ATOM     25  C   UNL     1      -0.498  -7.059  -4.600  0.00  0.00    +0.136 A 
ATOM     26  N   UNL     1      -0.473  -7.186  -5.943  0.00  0.00    -0.182 NA
ATOM     27  H   UNL     1      -1.708  -6.077  -7.515  0.00  0.00    +0.189 HD
ATOM     28  N   UNL     1      -1.413  -6.296  -6.478  0.00  0.00    -0.281 N 
ATOM     29  C   UNL     1      -1.985  -5.662  -5.487  0.00  0.00    +0.043 A 
BRANCH  29  30
ATOM     30  C   UNL     1      -3.059  -4.611  -5.613  0.00  0.00    +0.004 C 
ATOM     31  C   UNL     1      -2.512  -3.264  -5.137  0.00  0.00    +0.017 C 
ATOM     32  C   UNL     1      -3.493  -4.498  -7.075  0.00  0.00    +0.017 C 
ATOM     33  C   UNL     1      -4.261  -5.006  -4.753  0.00  0.00    +0.017 C 
ENDBRANCH  29  30
ENDBRANCH  23  24
ENDBRANCH   5  23
TORSDOF 6
