REMARK  Name = ZINC21218295
REMARK  6 active torsions:
REMARK  status: ('A' for Active; 'I' for Inactive)
REMARK    1  A    between atoms: C_1  and  O_2
REMARK    2  A    between atoms: O_2  and  C_3
REMARK    3  A    between atoms: C_6  and  O_35
REMARK    4  A    between atoms: C_7  and  C_9
REMARK    5  A    between atoms: C_14  and  C_24
REMARK    6  A    between atoms: O_35  and  C_36
REMARK                            x       y       z     vdW  Elec       q    Type
REMARK                         _______ _______ _______ _____ _____    ______ ____
ROOT
ATOM      1  C   UNL     1      -0.015   0.955  -0.324  0.00  0.00    +0.036 C 
ATOM      2  C   UNL     1      -0.847   1.490  -1.488  0.00  0.00    +0.060 C 
ATOM      3  C   UNL     1      -2.284   1.014  -1.359  0.00  0.00    +0.017 C 
ATOM      4  C   UNL     1      -2.834   0.829  -0.146  0.00  0.00    +0.036 C 
ATOM      5  C   UNL     1      -4.245   0.366   0.125  0.00  0.00    +0.136 C 
ATOM      6  N   UNL     1      -5.112   0.365  -1.035  0.00  0.00    -0.331 N 
ATOM      7  C   UNL     1      -4.865  -0.481  -2.115  0.00  0.00    +0.049 A 
ATOM      8  C   UNL     1      -5.716  -1.531  -2.419  0.00  0.00    +0.025 A 
ATOM      9  C   UNL     1      -5.373  -2.413  -3.430  0.00  0.00    +0.002 A 
ATOM     10  C   UNL     1      -4.193  -2.248  -4.132  0.00  0.00    +0.002 A 
ATOM     11  C   UNL     1      -3.351  -1.187  -3.845  0.00  0.00    +0.025 A 
ATOM     12  C   UNL     1      -3.701  -0.295  -2.846  0.00  0.00    +0.052 A 
ATOM     13  N   UNL     1      -2.928   0.818  -2.538  0.00  0.00    -0.316 N 
ATOM     14  C   UNL     1      -2.073   1.059   1.024  0.00  0.00    +0.163 C 
ATOM     15  O   UNL     1      -2.603   0.908   2.107  0.00  0.00    -0.292 OA
ATOM     16  C   UNL     1      -0.634   1.483   0.975  0.00  0.00    +0.088 C 
ATOM     17  H   UNL     1      -5.980   1.039  -1.073  0.00  0.00    +0.147 HD
ATOM     18  H   UNL     1      -2.857   1.573  -3.335  0.00  0.00    +0.152 HD
ENDROOT
BRANCH   5  19
ATOM     19  C   UNL     1      -4.187  -1.035   0.677  0.00  0.00    -0.021 A 
ATOM     20  C   UNL     1      -3.719  -2.070  -0.111  0.00  0.00    +0.007 A 
ATOM     21  C   UNL     1      -3.664  -3.355   0.394  0.00  0.00    +0.022 A 
ATOM     22  C   UNL     1      -4.077  -3.607   1.690  0.00  0.00    +0.059 A 
ATOM     23  C   UNL     1      -4.546  -2.570   2.480  0.00  0.00    +0.060 A 
ATOM     24  C   UNL     1      -4.595  -1.284   1.974  0.00  0.00    +0.027 A 
ATOM     25 CL   UNL     1      -5.065  -2.884   4.107  0.00  0.00    -0.082 Cl
ATOM     26 CL   UNL     1      -4.008  -5.220   2.326  0.00  0.00    -0.082 Cl
ENDBRANCH   5  19
BRANCH   1  31
ATOM     27  C   UNL     1       2.982   3.243  -0.580  0.00  0.00    +0.121 A 
ATOM     28  C   UNL     1       4.021   2.330  -0.674  0.00  0.00    +0.049 A 
ATOM     29  C   UNL     1       3.754   0.975  -0.654  0.00  0.00    +0.049 A 
ATOM     30  C   UNL     1       2.446   0.528  -0.541  0.00  0.00    +0.124 A 
ATOM     31  C   UNL     1       1.407   1.441  -0.447  0.00  0.00    +0.002 A 
ATOM     32  C   UNL     1       1.673   2.796  -0.471  0.00  0.00    +0.053 A 
BRANCH  27  34
ATOM     33  C   UNL     1       4.614   4.967  -0.717  0.00  0.00    +0.277 C 
ATOM     34  O   UNL     1       3.245   4.577  -0.598  0.00  0.00    -0.495 OA
ENDBRANCH  27  34
BRANCH  30  35
ATOM     35  O   UNL     1       2.183  -0.806  -0.523  0.00  0.00    -0.495 OA
ATOM     36  C   UNL     1       3.301  -1.690  -0.624  0.00  0.00    +0.277 C 
ENDBRANCH  30  35
ENDBRANCH   1  31
TORSDOF 4
