REMARK  Name = ZINC24808747
REMARK  10 active torsions:
REMARK  status: ('A' for Active; 'I' for Inactive)
REMARK    1  A    between atoms: C_1  and  C_2
REMARK    2  A    between atoms: C_2  and  C_4
REMARK    3  A    between atoms: C_2  and  N_12
REMARK    4  A    between atoms: N_12  and  C_13
REMARK    5  A    between atoms: C_13  and  C_14
REMARK    6  A    between atoms: N_16  and  N_17
REMARK    7  A    between atoms: C_20  and  C_24
REMARK    8  A    between atoms: C_20  and  C_25
REMARK    9  A    between atoms: C_25  and  C_26
REMARK   10  A    between atoms: C_26  and  C_27
REMARK                            x       y       z     vdW  Elec       q    Type
REMARK                         _______ _______ _______ _____ _____    ______ ____
ROOT
ATOM      1  C   UNL     1      -1.577   2.732   1.152  0.00  0.00    +0.213 C 
ATOM      2  O   UNL     1      -0.916   2.619   2.163  0.00  0.00    -0.276 OA
ATOM      3  N   UNL     1      -1.186   2.115   0.019  0.00  0.00    -0.225 N 
ATOM      4  H   UNL     1      -1.785   2.217  -0.897  0.00  0.00    +0.173 HD
ENDROOT
BRANCH   3   5
ATOM      5  N   UNL     1      -0.016   1.343   0.009  0.00  0.00    -0.137 N 
ATOM      6  C   UNL     1       0.002  -0.004   0.002  0.00  0.00    +0.263 C 
ATOM      7  O   UNL     1      -0.954  -0.749   0.006  0.00  0.00    -0.271 OA
ATOM      8  C   UNL     1       1.467  -0.394  -0.014  0.00  0.00    +0.112 C 
ATOM      9  N   UNL     1       2.170   0.901  -0.014  0.00  0.00    -0.284 N 
ATOM     10  C   UNL     1       1.220   1.854   0.000  0.00  0.00    +0.326 C 
ATOM     11  O   UNL     1       1.460   3.045   0.005  0.00  0.00    -0.251 OA
ATOM     12  C   UNL     1       1.823  -1.200   1.237  0.00  0.00    +0.041 C 
ATOM     13  H   UNL     1       3.269   0.929  -0.024  0.00  0.00    +0.151 HD
BRANCH   8  14
ATOM     14  C   UNL     1       1.799  -1.187  -1.280  0.00  0.00    +0.040 C 
BRANCH  14  15
ATOM     15  C   UNL     1       3.281  -1.566  -1.270  0.00  0.00    +0.038 C 
BRANCH  15  16
ATOM     16  C   UNL     1       3.608  -2.347  -2.516  0.00  0.00    -0.047 A 
ATOM     17  C   UNL     1       3.499  -3.725  -2.518  0.00  0.00    +0.003 A 
ATOM     18  C   UNL     1       3.795  -4.441  -3.663  0.00  0.00    +0.000 A 
ATOM     19  C   UNL     1       4.209  -3.779  -4.803  0.00  0.00    +0.000 A 
ATOM     20  C   UNL     1       4.324  -2.402  -4.801  0.00  0.00    +0.000 A 
ATOM     21  C   UNL     1       4.024  -1.686  -3.657  0.00  0.00    +0.003 A 
ENDBRANCH  15  16
ENDBRANCH  14  15
ENDBRANCH   8  14
ENDBRANCH   3   5
BRANCH   1  22
ATOM     22  C   UNL     1      -2.835   3.561   1.163  0.00  0.00    +0.017 C 
BRANCH  22  23
ATOM     23  N   UNL     1      -3.040   4.123   2.505  0.00  0.00    +0.389 N 
ATOM     24  H   UNL     1      -2.171   4.746   2.763  0.00  0.00    -0.084 HD
ATOM     25  H   UNL     1      -3.124   3.295   3.224  0.00  0.00    -0.084 HD
BRANCH  23  27
ATOM     26  C   UNL     1      -3.942   6.359   2.079  0.00  0.00    -0.009 C 
ATOM     27  C   UNL     1      -4.260   4.939   2.553  0.00  0.00    -0.042 C 
BRANCH  27  28
ATOM     28  C   UNL     1      -4.777   4.986   3.967  0.00  0.00    -0.043 A 
ATOM     29  C   UNL     1      -3.912   4.786   5.027  0.00  0.00    +0.005 A 
ATOM     30  C   UNL     1      -4.385   4.835   6.324  0.00  0.00    +0.020 A 
ATOM     31  C   UNL     1      -5.727   5.072   6.564  0.00  0.00    +0.042 A 
ATOM     32  C   UNL     1      -6.595   5.266   5.504  0.00  0.00    +0.040 A 
ATOM     33  C   UNL     1      -6.120   5.223   4.205  0.00  0.00    +0.044 A 
ATOM     34 CL   UNL     1      -7.207   5.467   2.874  0.00  0.00    -0.083 Cl
ATOM     35 CL   UNL     1      -6.322   5.126   8.194  0.00  0.00    -0.083 Cl
ENDBRANCH  27  28
ENDBRANCH  23  27
ENDBRANCH  22  23
ENDBRANCH   1  22
TORSDOF 8
