REMARK  Name = ZINC36156012
REMARK  14 active torsions:
REMARK  status: ('A' for Active; 'I' for Inactive)
REMARK    1  A    between atoms: C_1  and  C_2
REMARK    2  A    between atoms: C_2  and  C_3
REMARK    3  A    between atoms: C_3  and  C_4
REMARK    4  A    between atoms: C_4  and  O_6
REMARK    5  A    between atoms: O_6  and  C_7
REMARK    6  A    between atoms: C_7  and  C_8
REMARK    7  A    between atoms: C_8  and  C_10
REMARK    8  A    between atoms: C_8  and  O_36
REMARK    9  A    between atoms: C_10  and  N_11
REMARK   10  A    between atoms: N_11  and  C_12
REMARK   11  A    between atoms: N_11  and  C_20
REMARK   12  A    between atoms: C_12  and  C_13
REMARK   13  A    between atoms: C_13  and  N_14
REMARK   14  A    between atoms: C_20  and  C_21
REMARK                            x       y       z     vdW  Elec       q    Type
REMARK                         _______ _______ _______ _____ _____    ______ ____
ROOT
ATOM      1  N   UNL     1       2.677  -6.386  -4.375  0.00  0.00    +0.387 N 
ATOM      2  H   UNL     1       2.338  -5.902  -5.192  0.00  0.00    -0.081 HD
ENDROOT
BRANCH   1   3
ATOM      3  C   UNL     1       1.807  -6.084  -3.231  0.00  0.00    -0.043 C 
BRANCH   3   4
ATOM      4  C   UNL     1       1.715  -4.568  -3.047  0.00  0.00    +0.136 C 
BRANCH   4   5
ATOM      5  O   UNL     1       1.065  -3.989  -4.180  0.00  0.00    -0.390 OA
ATOM      6  H   UNL     1       0.165  -4.314  -4.326  0.00  0.00    +0.210 HD
ENDBRANCH   4   5
BRANCH   4   7
ATOM      7  C   UNL     1       0.911  -4.255  -1.783  0.00  0.00    +0.261 C 
BRANCH   7   8
ATOM      8  O   UNL     1       0.924  -2.846  -1.547  0.00  0.00    -0.462 OA
BRANCH   8   9
ATOM      9  C   UNL     1       0.259  -2.403  -0.468  0.00  0.00    +0.307 C 
ATOM     10  O   UNL     1      -0.314  -3.185   0.252  0.00  0.00    -0.251 OA
BRANCH   9  11
ATOM     11  C   UNL     1       0.228  -0.929  -0.155  0.00  0.00    +0.120 C 
BRANCH  11  13
ATOM     12  C   UNL     1      -0.622   0.802   1.434  0.00  0.00    +0.004 C 
ATOM     13  C   UNL     1      -0.590  -0.695   1.116  0.00  0.00    +0.008 C 
ENDBRANCH  11  13
ENDBRANCH   9  11
ENDBRANCH   8   9
ENDBRANCH   7   8
ENDBRANCH   4   7
ENDBRANCH   3   4
ENDBRANCH   1   3
BRANCH   1  14
ATOM     14  C   UNL     1       4.047  -5.947  -4.078  0.00  0.00    -0.063 C 
BRANCH  14  15
ATOM     15  C   UNL     1       4.926  -6.145  -5.314  0.00  0.00    +0.066 C 
BRANCH  15  16
ATOM     16  N   UNL     1       6.263  -5.595  -5.058  0.00  0.00    -0.300 NA
ATOM     17  C   UNL     1       6.212  -4.134  -4.903  0.00  0.00    +0.112 C 
ATOM     18  C   UNL     1       7.614  -3.611  -4.578  0.00  0.00    +0.175 C 
ATOM     19  O   UNL     1       8.519  -4.015  -5.609  0.00  0.00    -0.377 OA
ATOM     20  C   UNL     1       8.594  -5.432  -5.787  0.00  0.00    +0.175 C 
ATOM     21  C   UNL     1       7.202  -5.973  -6.124  0.00  0.00    +0.112 C 
ENDBRANCH  15  16
ENDBRANCH  14  15
ENDBRANCH   1  14
BRANCH   1  22
ATOM     22  C   UNL     1       2.671  -7.834  -4.626  0.00  0.00    -0.003 C 
BRANCH  22  23
ATOM     23  C   UNL     1       1.302  -8.256  -5.095  0.00  0.00    +0.094 A 
ATOM     24  N   UNL     1       1.034  -9.576  -5.269  0.00  0.00    -0.312 N 
ATOM     25  H   UNL     1       1.728 -10.229  -5.088  0.00  0.00    +0.170 HD
ATOM     26  C   UNL     1      -0.174  -9.996  -5.686  0.00  0.00    +0.260 A 
ATOM     27  O   UNL     1      -0.399 -11.185  -5.837  0.00  0.00    -0.267 OA
ATOM     28  C   UNL     1      -1.193  -9.023  -5.951  0.00  0.00    +0.075 A 
ATOM     29  C   UNL     1      -2.564  -9.245  -6.409  0.00  0.00    -0.023 A 
ATOM     30  C   UNL     1      -3.334  -8.150  -6.585  0.00  0.00    -0.004 A 
ATOM     31  S   UNL     1      -2.293  -6.781  -6.157  0.00  0.00    -0.073 S 
ATOM     32  C   UNL     1      -0.823  -7.685  -5.743  0.00  0.00    +0.116 A 
ATOM     33  N   UNL     1       0.393  -7.346  -5.323  0.00  0.00    -0.229 NA
ATOM     34  C   UNL     1      -4.760  -8.109  -7.044  0.00  0.00    +0.043 C 
ATOM     35  C   UNL     1      -5.115  -9.476  -7.647  0.00  0.00    +0.005 C 
ATOM     36  C   UNL     1      -4.646 -10.572  -6.687  0.00  0.00    +0.005 C 
ATOM     37  C   UNL     1      -3.118 -10.640  -6.682  0.00  0.00    +0.037 C 
ENDBRANCH  22  23
ENDBRANCH   1  22
TORSDOF 13
