REMARK  Name = ZINC06444009
REMARK  12 active torsions:
REMARK  status: ('A' for Active; 'I' for Inactive)
REMARK    1  A    between atoms: C_1  and  C_2
REMARK    2  A    between atoms: C_12  and  C_14
REMARK    3  A    between atoms: C_14  and  C_16
REMARK    4  A    between atoms: C_14  and  N_67
REMARK    5  A    between atoms: N_20  and  C_21
REMARK    6  A    between atoms: C_21  and  C_22
REMARK    7  A    between atoms: C_22  and  O_23
REMARK    8  A    between atoms: O_23  and  C_24
REMARK    9  A    between atoms: C_25  and  C_26
REMARK   10  A    between atoms: C_25  and  N_67
REMARK   11  A    between atoms: C_32  and  C_33
REMARK   12  A    between atoms: C_32  and  N_67
REMARK                            x       y       z     vdW  Elec       q    Type
REMARK                         _______ _______ _______ _____ _____    ______ ____
ROOT
ATOM      1  C   UNL     1       1.048  -3.601   5.336  0.00  0.00    +0.039 C 
ENDROOT
BRANCH   1  13
ATOM      2  C   UNL     1      -0.522  -0.922  -0.457  0.00  0.00    +0.046 C 
ATOM      3  C   UNL     1      -1.380  -1.372   0.697  0.00  0.00    -0.026 A 
ATOM      4  C   UNL     1      -2.751  -1.240   0.632  0.00  0.00    +0.005 A 
ATOM      5  C   UNL     1      -3.553  -1.655   1.686  0.00  0.00    +0.001 A 
ATOM      6  C   UNL     1      -2.998  -2.194   2.812  0.00  0.00    +0.010 A 
ATOM      7  C   UNL     1      -1.609  -2.333   2.902  0.00  0.00    -0.001 A 
ATOM      8  C   UNL     1      -0.793  -1.918   1.833  0.00  0.00    +0.052 A 
ATOM      9  N   UNL     1       0.576  -2.058   1.926  0.00  0.00    -0.322 N 
ATOM     10  H   UNL     1       1.137  -1.772   1.189  0.00  0.00    +0.169 HD
ATOM     11  C   UNL     1       1.143  -2.585   3.025  0.00  0.00    +0.251 A 
ATOM     12  O   UNL     1       2.357  -2.694   3.073  0.00  0.00    -0.268 OA
ATOM     13  C   UNL     1       0.370  -3.016   4.124  0.00  0.00    +0.011 A 
ATOM     14  C   UNL     1      -0.981  -2.906   4.094  0.00  0.00    +0.017 A 
ENDBRANCH   1  13
BRANCH   1  15
ATOM     15  C   UNL     1       0.029  -3.827   6.423  0.00  0.00    +0.143 A 
ATOM     16  N   UNL     1      -0.739  -2.920   6.976  0.00  0.00    -0.115 NA
ATOM     17  N   UNL     1      -1.473  -3.505   7.859  0.00  0.00    -0.023 NA
ATOM     18  N   UNL     1      -1.188  -4.760   7.888  0.00  0.00    -0.044 NA
ATOM     19  N   UNL     1      -0.266  -4.998   7.018  0.00  0.00    -0.228 N 
BRANCH  19  20
ATOM     20  C   UNL     1       0.345  -6.298   6.730  0.00  0.00    +0.175 C 
BRANCH  20  21
ATOM     21  C   UNL     1       1.567  -6.497   7.628  0.00  0.00    +0.183 C 
BRANCH  21  22
ATOM     22  O   UNL     1       2.163  -7.766   7.348  0.00  0.00    -0.381 OA
ATOM     23  C   UNL     1       3.319  -8.052   8.137  0.00  0.00    +0.194 C 
ENDBRANCH  21  22
ENDBRANCH  20  21
ENDBRANCH  19  20
ENDBRANCH   1  15
BRANCH   1  24
ATOM     24  N   UNL     1       2.096  -2.665   5.795  0.00  0.00    +0.395 N 
ATOM     25  H   UNL     1       2.719  -2.450   5.008  0.00  0.00    -0.079 HD
BRANCH  24  26
ATOM     26  C   UNL     1       2.888  -3.285   6.879  0.00  0.00    -0.041 C 
BRANCH  26  27
ATOM     27  C   UNL     1       4.150  -2.485   7.074  0.00  0.00    -0.064 A 
ATOM     28  C   UNL     1       5.253  -2.729   6.278  0.00  0.00    +0.002 A 
ATOM     29  C   UNL     1       6.409  -1.992   6.454  0.00  0.00    +0.000 A 
ATOM     30  C   UNL     1       6.466  -1.018   7.433  0.00  0.00    +0.000 A 
ATOM     31  C   UNL     1       5.364  -0.778   8.234  0.00  0.00    +0.000 A 
ATOM     32  C   UNL     1       4.207  -1.512   8.054  0.00  0.00    +0.002 A 
ENDBRANCH  26  27
ENDBRANCH  24  26
BRANCH  24  33
ATOM     33  C   UNL     1       1.478  -1.411   6.275  0.00  0.00    -0.040 C 
BRANCH  33  34
ATOM     34  C   UNL     1       1.804  -0.314   5.294  0.00  0.00    -0.046 A 
ATOM     35  C   UNL     1       3.106   0.130   5.161  0.00  0.00    +0.003 A 
ATOM     36  C   UNL     1       3.405   1.133   4.258  0.00  0.00    +0.000 A 
ATOM     37  C   UNL     1       2.401   1.700   3.495  0.00  0.00    +0.001 A 
ATOM     38  C   UNL     1       1.097   1.260   3.632  0.00  0.00    +0.020 A 
ATOM     39  C   UNL     1       0.798   0.253   4.532  0.00  0.00    +0.042 A 
ATOM     40 CL   UNL     1      -0.839  -0.300   4.704  0.00  0.00    -0.083 Cl
ENDBRANCH  33  34
ENDBRANCH  24  33
ENDBRANCH   1  24
TORSDOF 10
