REMARK  Name = ZINC45890786
REMARK  8 active torsions:
REMARK  status: ('A' for Active; 'I' for Inactive)
REMARK    1  A    between atoms: C_1  and  C_2
REMARK    2  A    between atoms: C_3  and  N_12
REMARK    3  A    between atoms: C_4  and  C_11
REMARK    4  A    between atoms: C_6  and  N_9
REMARK    5  A    between atoms: C_13  and  C_15
REMARK    6  A    between atoms: C_15  and  C_16
REMARK    7  A    between atoms: C_16  and  C_17
REMARK    8  A    between atoms: C_16  and  C_18
REMARK                            x       y       z     vdW  Elec       q    Type
REMARK                         _______ _______ _______ _____ _____    ______ ____
ROOT
ATOM      1  C   UNL     1      -1.521   1.037  -0.093  0.00  0.00    +0.047 C 
ATOM      2  C   UNL     1      -0.707  -0.231  -0.051  0.00  0.00    -0.013 A 
ATOM      3  C   UNL     1      -0.095  -0.701  -1.205  0.00  0.00    +0.041 A 
ATOM      4  C   UNL     1       0.655  -1.869  -1.167  0.00  0.00    -0.013 A 
ATOM      5  C   UNL     1       0.792  -2.564   0.020  0.00  0.00    +0.044 A 
ATOM      6  C   UNL     1       0.180  -2.094   1.175  0.00  0.00    +0.053 A 
ATOM      7  C   UNL     1      -0.566  -0.922   1.137  0.00  0.00    +0.044 A 
ATOM      8 BR   UNL     1      -1.393  -0.277   2.711  0.00  0.00    -0.048 Br
ATOM      9 BR   UNL     1       1.812  -4.155   0.071  0.00  0.00    -0.048 Br
ATOM     10  C   UNL     1       1.318  -2.380  -2.420  0.00  0.00    +0.047 C 
ENDROOT
BRANCH   3  11
ATOM     11  N   UNL     1      -0.234   0.003  -2.408  0.00  0.00    -0.285 N 
ATOM     12  C   UNL     1       0.135   1.297  -2.478  0.00  0.00    +0.217 C 
ATOM     13  O   UNL     1       0.492   1.881  -1.477  0.00  0.00    -0.275 OA
ATOM     14  H   UNL     1      -0.596  -0.441  -3.191  0.00  0.00    +0.155 HD
BRANCH  12  15
ATOM     15  C   UNL     1       0.104   2.019  -3.800  0.00  0.00    +0.099 C 
BRANCH  15  16
ATOM     16  C   UNL     1       0.567   3.465  -3.603  0.00  0.00    -0.008 C 
ATOM     17  C   UNL     1       2.034   3.476  -3.171  0.00  0.00    +0.008 C 
ATOM     18  C   UNL     1       0.417   4.232  -4.919  0.00  0.00    +0.008 C 
ENDBRANCH  15  16
ENDBRANCH  12  15
ENDBRANCH   3  11
BRANCH   6  19
ATOM     19  N   UNL     1       0.318  -2.797   2.377  0.00  0.00    -0.356 N 
ATOM     20  H   UNL     1       0.842  -3.614   2.404  0.00  0.00    +0.142 HD
ATOM     21  H   UNL     1      -0.109  -2.469   3.183  0.00  0.00    +0.142 HD
ENDBRANCH   6  19
TORSDOF 4
