REMARK  Name = ZINC04115162
REMARK  4 active torsions:
REMARK  status: ('A' for Active; 'I' for Inactive)
REMARK    1  A    between atoms: C_6  and  C_7
REMARK    2  A    between atoms: C_9  and  C_19
REMARK    3  A    between atoms: C_14  and  N_18
REMARK    4  A    between atoms: C_15  and  C_16
REMARK                            x       y       z     vdW  Elec       q    Type
REMARK                         _______ _______ _______ _____ _____    ______ ____
ROOT
ATOM      1  C   UNL     1      -1.293  -0.775   0.010  0.00  0.00    +0.085 C 
ATOM      2  C   UNL     1      -1.353  -1.608   1.284  0.00  0.00    +0.159 C 
ATOM      3  C   UNL     1      -2.585  -2.495   1.230  0.00  0.00    +0.089 C 
ATOM      4  N   UNL     1      -3.553  -2.380   2.080  0.00  0.00    -0.296 NA
ATOM      5  S   UNL     1      -2.613  -3.699  -0.072  0.00  0.00    -0.058 S 
ATOM      6  C   UNL     1      -1.923  -2.788  -1.419  0.00  0.00    +0.079 C 
ATOM      7  C   UNL     1      -1.376  -1.575  -1.240  0.00  0.00    +0.066 C 
ATOM      8  H   UNL     1      -3.506  -1.710   2.780  0.00  0.00    +0.187 HD
ENDROOT
BRANCH   1  14
ATOM      9  C   UNL     1      -0.017   1.378   0.010  0.00  0.00    +0.007 A 
ATOM     10  C   UNL     1       1.170   2.086   0.002  0.00  0.00    +0.040 A 
ATOM     11  C   UNL     1       2.379   1.411  -0.013  0.00  0.00    +0.137 A 
ATOM     12  C   UNL     1       2.397   0.026  -0.021  0.00  0.00    +0.053 A 
ATOM     13  C   UNL     1       1.208  -0.680  -0.013  0.00  0.00    +0.022 A 
ATOM     14  C   UNL     1       0.002  -0.004   0.002  0.00  0.00    -0.036 A 
ATOM     15 BR   UNL     1       4.046  -0.899  -0.042  0.00  0.00    -0.047 Br
ATOM     16  F   UNL     1       3.539   2.103  -0.021  0.00  0.00    -0.204 F 
ENDBRANCH   1  14
BRANCH   6  17
ATOM     17  N   UNL     1      -1.945  -3.337  -2.679  0.00  0.00    -0.352 N 
ATOM     18  H   UNL     1      -2.336  -4.213  -2.821  0.00  0.00    +0.143 HD
ATOM     19  H   UNL     1      -1.570  -2.847  -3.428  0.00  0.00    +0.143 HD
ENDBRANCH   6  17
BRANCH   7  20
ATOM     20  C   UNL     1      -0.801  -0.974  -2.406  0.00  0.00    +0.098 C 
ATOM     21  N   UNL     1      -0.345  -0.497  -3.330  0.00  0.00    -0.191 NA
ENDBRANCH   7  20
BRANCH   2  22
ATOM     22  C   UNL     1      -0.145  -2.443   1.385  0.00  0.00    +0.074 C 
ATOM     23  N   UNL     1       0.788  -3.087   1.462  0.00  0.00    -0.196 NA
ENDBRANCH   2  22
TORSDOF 4
