REMARK  Name = ZINC35838421
REMARK  6 active torsions:
REMARK  status: ('A' for Active; 'I' for Inactive)
REMARK    1  A    between atoms: C_1  and  C_2
REMARK    2  A    between atoms: C_5  and  C_8
REMARK    3  A    between atoms: N_13  and  C_16
REMARK    4  A    between atoms: N_19  and  C_22
REMARK    5  A    between atoms: C_22  and  C_23
REMARK    6  A    between atoms: N_29  and  C_33
REMARK                            x       y       z     vdW  Elec       q    Type
REMARK                         _______ _______ _______ _____ _____    ______ ____
ROOT
ATOM      1  C   UNL     1       0.059  -4.275  -0.021  0.00  0.00    +0.142 C 
ATOM      2  C   UNL     1      -1.366  -4.762   0.144  0.00  0.00    +0.058 C 
ATOM      3  C   UNL     1      -1.637  -5.564   1.194  0.00  0.00    +0.042 C 
ATOM      4  C   UNL     1      -3.111  -5.890   1.111  0.00  0.00    +0.159 C 
ATOM      5  N   UNL     1      -3.589  -5.180  -0.084  0.00  0.00    -0.289 N 
ATOM      6  C   UNL     1      -2.533  -4.536  -0.614  0.00  0.00    +0.247 C 
ATOM      7  O   UNL     1      -2.579  -3.848  -1.617  0.00  0.00    -0.270 OA
ATOM      8  N   UNL     1      -0.660  -5.927   2.077  0.00  0.00    -0.260 N 
ATOM      9  C   UNL     1       0.614  -5.528   1.979  0.00  0.00    +0.307 C 
ATOM     10  O   UNL     1       1.414  -5.903   2.813  0.00  0.00    -0.252 OA
ATOM     11  N   UNL     1       1.037  -4.722   0.985  0.00  0.00    -0.288 N 
ATOM     12  C   UNL     1      -1.028  -6.802   3.194  0.00  0.00    +0.139 C 
ATOM     13  H   UNL     1       1.965  -4.445   0.933  0.00  0.00    +0.151 HD
ENDROOT
BRANCH   1  18
ATOM     14  C   UNL     1      -0.018   1.503   0.010  0.00  0.00    +0.044 C 
ATOM     15  C   UNL     1       0.002  -0.004   0.002  0.00  0.00    -0.050 A 
ATOM     16  C   UNL     1       0.006  -0.689  -1.199  0.00  0.00    +0.004 A 
ATOM     17  C   UNL     1       0.025  -2.071  -1.206  0.00  0.00    +0.006 A 
ATOM     18  C   UNL     1       0.040  -2.768  -0.013  0.00  0.00    -0.023 A 
ATOM     19  C   UNL     1       0.037  -2.084   1.188  0.00  0.00    +0.006 A 
ATOM     20  C   UNL     1       0.023  -0.702   1.195  0.00  0.00    +0.004 A 
ENDBRANCH   1  18
BRANCH   5  21
ATOM     21  C   UNL     1      -4.959  -5.175  -0.602  0.00  0.00    +0.073 C 
ATOM     22  C   UNL     1      -4.970  -5.735  -2.027  0.00  0.00    +0.004 C 
ATOM     23  C   UNL     1      -6.390  -5.653  -2.591  0.00  0.00    -0.077 C 
ATOM     24  N   UNL     1      -6.833  -4.254  -2.611  0.00  0.00    +0.382 N 
ATOM     25  C   UNL     1      -6.894  -3.731  -1.240  0.00  0.00    -0.077 C 
ATOM     26  C   UNL     1      -5.493  -3.740  -0.625  0.00  0.00    +0.004 C 
ATOM     27  H   UNL     1      -6.182  -3.704  -3.151  0.00  0.00    -0.081 HD
BRANCH  24  28
ATOM     28  C   UNL     1      -8.165  -4.172  -3.224  0.00  0.00    -0.043 C 
BRANCH  28  29
ATOM     29  C   UNL     1      -8.568  -2.726  -3.357  0.00  0.00    -0.064 A 
ATOM     30  C   UNL     1      -9.251  -2.101  -2.330  0.00  0.00    +0.002 A 
ATOM     31  C   UNL     1      -9.621  -0.775  -2.452  0.00  0.00    +0.000 A 
ATOM     32  C   UNL     1      -9.308  -0.073  -3.601  0.00  0.00    +0.000 A 
ATOM     33  C   UNL     1      -8.625  -0.697  -4.628  0.00  0.00    +0.000 A 
ATOM     34  C   UNL     1      -8.251  -2.022  -4.504  0.00  0.00    +0.002 A 
ENDBRANCH  28  29
ENDBRANCH  24  28
ENDBRANCH   5  21
TORSDOF 4
