REMARK  Name = ZINC67286168
REMARK  11 active torsions:
REMARK  status: ('A' for Active; 'I' for Inactive)
REMARK    1  A    between atoms: C_1  and  C_2
REMARK    2  A    between atoms: C_2  and  O_3
REMARK    3  A    between atoms: O_3  and  C_4
REMARK    4  A    between atoms: C_4  and  C_6
REMARK    5  A    between atoms: N_11  and  C_13
REMARK    6  A    between atoms: C_13  and  C_14
REMARK    7  A    between atoms: C_15  and  C_29
REMARK    8  A    between atoms: C_16  and  C_22
REMARK    9  A    between atoms: C_29  and  O_31
REMARK   10  A    between atoms: O_31  and  C_32
REMARK   11  A    between atoms: C_32  and  C_33
REMARK                            x       y       z     vdW  Elec       q    Type
REMARK                         _______ _______ _______ _____ _____    ______ ____
ROOT
ATOM      1  C   UNL     1       2.936  -6.560  -4.794  0.00  0.00    +0.038 C 
ATOM      2  C   UNL     1       4.194  -7.005  -4.587  0.00  0.00    +0.079 C 
ATOM      3  C   UNL     1       5.077  -7.213  -5.800  0.00  0.00    +0.144 C 
ATOM      4  N   UNL     1       4.487  -6.910  -7.115  0.00  0.00    -0.288 N 
ATOM      5  C   UNL     1       3.213  -6.472  -7.160  0.00  0.00    +0.304 C 
ATOM      6  O   UNL     1       2.717  -6.219  -8.241  0.00  0.00    -0.252 OA
ATOM      7  N   UNL     1       2.475  -6.311  -6.055  0.00  0.00    -0.271 N 
ATOM      8  H   UNL     1       5.003  -7.023  -7.928  0.00  0.00    +0.151 HD
ATOM      9  H   UNL     1       1.563  -5.997  -6.155  0.00  0.00    +0.156 HD
ENDROOT
BRANCH   3  10
ATOM     10  C   UNL     1       6.304  -6.354  -5.634  0.00  0.00    -0.021 A 
ATOM     11  C   UNL     1       6.246  -5.002  -5.920  0.00  0.00    +0.006 A 
ATOM     12  C   UNL     1       7.371  -4.214  -5.767  0.00  0.00    +0.001 A 
ATOM     13  C   UNL     1       8.556  -4.777  -5.329  0.00  0.00    +0.015 A 
ATOM     14  C   UNL     1       8.614  -6.129  -5.043  0.00  0.00    +0.018 A 
ATOM     15  C   UNL     1       7.486  -6.916  -5.190  0.00  0.00    +0.021 A 
ATOM     16 BR   UNL     1      10.234  -6.899  -4.443  0.00  0.00    -0.050 Br
ENDBRANCH   3  10
BRANCH   2  17
ATOM     17  C   UNL     1       4.671  -7.268  -3.281  0.00  0.00    +0.339 C 
ATOM     18  O   UNL     1       3.988  -6.984  -2.315  0.00  0.00    -0.245 OA
BRANCH  17  19
ATOM     19  O   UNL     1       5.883  -7.834  -3.107  0.00  0.00    -0.462 OA
BRANCH  19  20
ATOM     20  C   UNL     1       6.301  -8.071  -1.762  0.00  0.00    +0.229 C 
ATOM     21  C   UNL     1       7.690  -8.713  -1.765  0.00  0.00    +0.048 C 
ENDBRANCH  19  20
ENDBRANCH  17  19
ENDBRANCH   2  17
BRANCH   1  22
ATOM     22  C   UNL     1       2.024  -6.340  -3.614  0.00  0.00    +0.135 C 
BRANCH  22  27
ATOM     23  C   UNL     1       2.122  -3.540  -1.099  0.00  0.00    +0.112 C 
ATOM     24  C   UNL     1       1.529  -2.426  -1.965  0.00  0.00    +0.017 C 
ATOM     25  C   UNL     1       2.039  -2.580  -3.401  0.00  0.00    +0.016 C 
ATOM     26  C   UNL     1       1.659  -3.967  -3.926  0.00  0.00    +0.085 C 
ATOM     27  N   UNL     1       2.251  -4.997  -3.063  0.00  0.00    -0.296 NA
ATOM     28  C   UNL     1       1.741  -4.899  -1.690  0.00  0.00    +0.099 C 
BRANCH  23  29
ATOM     29  C   UNL     1       1.579  -3.430   0.303  0.00  0.00    +0.311 C 
ATOM     30  O   UNL     1       0.952  -4.346   0.781  0.00  0.00    -0.250 OA
BRANCH  29  31
ATOM     31  O   UNL     1       1.791  -2.316   1.020  0.00  0.00    -0.465 OA
BRANCH  31  33
ATOM     32  C   UNL     1       1.589  -0.942   2.998  0.00  0.00    +0.048 C 
ATOM     33  C   UNL     1       1.248  -2.281   2.341  0.00  0.00    +0.229 C 
ENDBRANCH  31  33
ENDBRANCH  29  31
ENDBRANCH  23  29
ENDBRANCH  22  27
ENDBRANCH   1  22
TORSDOF 9
