REMARK  Name = ZINC16902134
REMARK  8 active torsions:
REMARK  status: ('A' for Active; 'I' for Inactive)
REMARK    1  A    between atoms: C_1  and  C_2
REMARK    2  A    between atoms: C_4  and  C_30
REMARK    3  A    between atoms: C_5  and  N_9
REMARK    4  A    between atoms: C_6  and  C_8
REMARK    5  A    between atoms: N_9  and  C_10
REMARK    6  A    between atoms: N_15  and  C_18
REMARK    7  A    between atoms: C_20  and  C_27
REMARK    8  A    between atoms: C_22  and  C_24
REMARK                            x       y       z     vdW  Elec       q    Type
REMARK                         _______ _______ _______ _____ _____    ______ ____
ROOT
ATOM      1  C   UNL     1       2.272  -4.423   0.479  0.00  0.00    +0.166 C 
ATOM      2  C   UNL     1       3.627  -5.080   0.144  0.00  0.00    +0.128 C 
ATOM      3  C   UNL     1       3.273  -6.536  -0.068  0.00  0.00    +0.228 C 
ATOM      4  O   UNL     1       4.057  -7.415  -0.353  0.00  0.00    -0.275 OA
ATOM      5  N   UNL     1       1.956  -6.699   0.111  0.00  0.00    -0.209 N 
ATOM      6  C   UNL     1       1.292  -5.575   0.425  0.00  0.00    +0.247 C 
ATOM      7  O   UNL     1       0.101  -5.494   0.631  0.00  0.00    -0.273 OA
ENDROOT
BRANCH   5   8
ATOM      8  C   UNL     1       1.321  -7.944  -0.017  0.00  0.00    +0.045 A 
ATOM      9  C   UNL     1       0.440  -8.166  -1.064  0.00  0.00    +0.039 A 
ATOM     10  C   UNL     1      -0.195  -9.404  -1.195  0.00  0.00    +0.066 A 
ATOM     11  C   UNL     1       0.059 -10.417  -0.270  0.00  0.00    +0.030 A 
ATOM     12  C   UNL     1       0.946 -10.189   0.781  0.00  0.00    +0.066 A 
ATOM     13  C   UNL     1       1.581  -8.950   0.901  0.00  0.00    +0.039 A 
BRANCH  12  14
ATOM     14  C   UNL     1       1.219 -11.257   1.762  0.00  0.00    +0.387 C 
ATOM     15  O   UNL     1       0.667 -12.343   1.654  0.00  0.00    -0.241 OA
ATOM     16  O   UNL     1       1.997 -11.056   2.684  0.00  0.00    -0.241 OA
ENDBRANCH  12  14
BRANCH  10  17
ATOM     17  C   UNL     1      -1.133  -9.639  -2.309  0.00  0.00    +0.387 C 
ATOM     18  O   UNL     1      -1.355  -8.751  -3.119  0.00  0.00    -0.241 OA
ATOM     19  O   UNL     1      -1.688 -10.723  -2.423  0.00  0.00    -0.241 OA
ENDBRANCH  10  17
ENDBRANCH   5   8
BRANCH   1  20
ATOM     20  N   UNL     1       1.930  -3.408  -0.520  0.00  0.00    -0.332 N 
ATOM     21  H   UNL     1       1.407  -3.652  -1.300  0.00  0.00    +0.147 HD
BRANCH  20  26
ATOM     22  C   UNL     1       3.661   1.947   0.173  0.00  0.00    +0.044 C 
ATOM     23  C   UNL     1       3.200   0.524  -0.012  0.00  0.00    -0.050 A 
ATOM     24  C   UNL     1       2.170   0.026   0.764  0.00  0.00    +0.008 A 
ATOM     25  C   UNL     1       1.746  -1.278   0.598  0.00  0.00    -0.029 A 
ATOM     26  C   UNL     1       2.356  -2.089  -0.350  0.00  0.00    +0.034 A 
ATOM     27  C   UNL     1       3.391  -1.586  -1.128  0.00  0.00    -0.029 A 
ATOM     28  C   UNL     1       3.806  -0.279  -0.961  0.00  0.00    +0.008 A 
ATOM     29  C   UNL     1       4.056  -2.462  -2.158  0.00  0.00    +0.045 C 
ATOM     30  C   UNL     1       0.623  -1.819   1.445  0.00  0.00    +0.045 C 
ENDBRANCH  20  26
ENDBRANCH   1  20
TORSDOF 5
