REMARK  Name = ZINC07036076
REMARK  8 active torsions:
REMARK  status: ('A' for Active; 'I' for Inactive)
REMARK    1  A    between atoms: C_1  and  C_2
REMARK    2  A    between atoms: C_2  and  C_3
REMARK    3  A    between atoms: C_12  and  C_13
REMARK    4  A    between atoms: C_13  and  C_15
REMARK    5  A    between atoms: C_15  and  S_16
REMARK    6  A    between atoms: S_16  and  C_17
REMARK    7  A    between atoms: N_21  and  C_22
REMARK    8  A    between atoms: C_25  and  O_28
REMARK                            x       y       z     vdW  Elec       q    Type
REMARK                         _______ _______ _______ _____ _____    ______ ____
ROOT
ATOM      1  C   UNL     1       4.212   2.292  -0.025  0.00  0.00    +0.157 C 
ENDROOT
BRANCH   1   2
ATOM      2  C   UNL     1       3.556   0.935  -0.026  0.00  0.00    +0.175 C 
ATOM      3  O   UNL     1       4.239  -0.069  -0.038  0.00  0.00    -0.291 OA
BRANCH   2  13
ATOM      4  C   UNL     1      -1.002  -0.967   0.006  0.00  0.00    -0.024 A 
ATOM      5  C   UNL     1      -0.671  -2.305  -0.004  0.00  0.00    +0.005 A 
ATOM      6  C   UNL     1       0.657  -2.705  -0.018  0.00  0.00    +0.001 A 
ATOM      7  C   UNL     1       1.665  -1.766  -0.023  0.00  0.00    +0.011 A 
ATOM      8  C   UNL     1       1.345  -0.411  -0.013  0.00  0.00    +0.010 A 
ATOM      9  C   UNL     1       0.002  -0.004   0.002  0.00  0.00    +0.050 A 
ATOM     10  N   UNL     1      -0.017   1.376   0.010  0.00  0.00    -0.360 N 
ATOM     11  H   UNL     1      -0.822   1.917   0.017  0.00  0.00    +0.165 HD
ATOM     12  C   UNL     1       1.236   1.869   0.000  0.00  0.00    +0.095 A 
ATOM     13  C   UNL     1       2.143   0.831  -0.014  0.00  0.00    +0.043 A 
BRANCH   4  15
ATOM     14  C   UNL     1      -2.917  -0.278  -1.409  0.00  0.00    +0.009 C 
ATOM     15  C   UNL     1      -2.449  -0.548   0.022  0.00  0.00    +0.034 C 
ENDBRANCH   4  15
ENDBRANCH   2  13
ENDBRANCH   1   2
BRANCH   1  16
ATOM     16  S   UNL     1       6.011   2.093  -0.043  0.00  0.00    -0.076 S 
BRANCH  16  17
ATOM     17  C   UNL     1       6.506   3.784  -0.039  0.00  0.00    +0.214 A 
ATOM     18  N   UNL     1       5.711   4.832  -0.026  0.00  0.00    -0.101 NA
ATOM     19  N   UNL     1       6.397   5.917  -0.027  0.00  0.00    -0.022 NA
ATOM     20  N   UNL     1       7.658   5.652  -0.040  0.00  0.00    -0.038 NA
ATOM     21  N   UNL     1       7.780   4.251  -0.043  0.00  0.00    -0.187 N 
BRANCH  21  22
ATOM     22  C   UNL     1       8.964   3.498  -0.051  0.00  0.00    +0.070 A 
ATOM     23  C   UNL     1       9.027   2.295   0.638  0.00  0.00    +0.031 A 
ATOM     24  C   UNL     1      10.191   1.552   0.626  0.00  0.00    +0.047 A 
ATOM     25  C   UNL     1      11.301   2.014  -0.066  0.00  0.00    +0.117 A 
ATOM     26  C   UNL     1      11.240   3.219  -0.751  0.00  0.00    +0.047 A 
ATOM     27  C   UNL     1      10.075   3.960  -0.744  0.00  0.00    +0.031 A 
BRANCH  25  28
ATOM     28  O   UNL     1      12.448   1.285  -0.073  0.00  0.00    -0.507 OA
ATOM     29  H   UNL     1      13.055   1.500   0.649  0.00  0.00    +0.292 HD
ENDBRANCH  25  28
ENDBRANCH  21  22
ENDBRANCH  16  17
ENDBRANCH   1  16
TORSDOF 7
