REMARK  Name = ZINC49689571
REMARK  4 active torsions:
REMARK  status: ('A' for Active; 'I' for Inactive)
REMARK    1  A    between atoms: C_4  and  S_11
REMARK    2  A    between atoms: C_6  and  C_7
REMARK    3  A    between atoms: S_11  and  C_14
REMARK    4  A    between atoms: C_14  and  C_15
REMARK                            x       y       z     vdW  Elec       q    Type
REMARK                         _______ _______ _______ _____ _____    ______ ____
ROOT
ATOM      1  C   UNL     1      -0.017   1.394   0.010  0.00  0.00    +0.033 A 
ATOM      2  C   UNL     1       1.170   2.096   0.002  0.00  0.00    +0.021 A 
ATOM      3  C   UNL     1       2.380   1.421  -0.013  0.00  0.00    +0.045 A 
ATOM      4  C   UNL     1       2.409   0.040  -0.021  0.00  0.00    +0.125 A 
ATOM      5  C   UNL     1       1.228  -0.680  -0.014  0.00  0.00    +0.162 A 
ATOM      6  C   UNL     1       0.002  -0.004   0.002  0.00  0.00    +0.101 A 
ATOM      7  F   UNL     1       1.257  -2.031  -0.022  0.00  0.00    -0.203 F 
ATOM      8 BR   UNL     1       1.145   3.987   0.013  0.00  0.00    -0.050 Br
ENDROOT
BRANCH   6   9
ATOM      9  C   UNL     1      -1.262  -0.762   0.011  0.00  0.00    +0.389 C 
ATOM     10  O   UNL     1      -2.331  -0.168   0.024  0.00  0.00    -0.240 OA
ATOM     11  O   UNL     1      -1.241  -1.985   0.004  0.00  0.00    -0.240 OA
ENDBRANCH   6   9
BRANCH   4  12
ATOM     12  S   UNL     1       3.954  -0.807  -0.041  0.00  0.00    +0.000 S 
ATOM     13  O   UNL     1       3.846  -1.733  -1.113  0.00  0.00    -0.169 OA
ATOM     14  O   UNL     1       4.932   0.224  -0.070  0.00  0.00    -0.169 OA
BRANCH  12  15
ATOM     15  C   UNL     1       4.023  -1.689   1.542  0.00  0.00    +0.177 C 
BRANCH  15  16
ATOM     16  C   UNL     1       5.336  -2.468   1.636  0.00  0.00    +0.038 C 
ATOM     17  C   UNL     1       5.454  -3.192   3.005  0.00  0.00    +0.035 C 
ATOM     18  C   UNL     1       6.357  -4.392   2.627  0.00  0.00    +0.160 C 
ATOM     19  O   UNL     1       5.947  -4.767   1.302  0.00  0.00    -0.379 OA
ATOM     20  C   UNL     1       5.350  -3.644   0.636  0.00  0.00    +0.165 C 
ENDBRANCH  15  16
ENDBRANCH  12  15
ENDBRANCH   4  12
TORSDOF 4
