REMARK  Name = ZINC39469657
REMARK  7 active torsions:
REMARK  status: ('A' for Active; 'I' for Inactive)
REMARK    1  A    between atoms: C_1  and  S_2
REMARK    2  A    between atoms: S_2  and  C_3
REMARK    3  A    between atoms: P_12  and  S_28
REMARK    4  A    between atoms: C_20  and  C_21
REMARK    5  A    between atoms: C_21  and  C_22
REMARK    6  A    between atoms: S_28  and  O_31
REMARK    7  A    between atoms: O_31  and  C_32
REMARK                            x       y       z     vdW  Elec       q    Type
REMARK                         _______ _______ _______ _____ _____    ______ ____
ROOT
ATOM      1  C   UNL     1      -1.702  -0.454   0.016  0.00  0.00    +0.007 C 
ATOM      2  C   UNL     1      -2.649   0.493   0.024  0.00  0.00    -0.008 C 
ATOM      3  C   UNL     1      -4.101   0.095   0.023  0.00  0.00    +0.017 C 
ATOM      4  C   UNL     1      -4.955   1.208  -0.567  0.00  0.00    -0.003 C 
ATOM      5  C   UNL     1      -6.253   0.651  -1.168  0.00  0.00    -0.020 C 
ATOM      6  C   UNL     1      -7.285   1.781  -1.042  0.00  0.00    +0.158 C 
ATOM      7  O   UNL     1      -8.542   1.375  -1.607  0.00  0.00    -0.301 OA
ATOM      8  P   UNL     1      -9.156  -0.049  -1.114  0.00  0.00    +0.431 P 
ATOM      9  O   UNL     1     -10.129  -0.561  -2.105  0.00  0.00    -0.246 OA
ATOM     10  N   UNL     1      -7.856  -1.057  -1.014  0.00  0.00    -0.271 NA
ATOM     11  N   UNL     1      -6.686  -0.558  -0.477  0.00  0.00    +0.398 N 
ATOM     12  C   UNL     1      -5.729  -1.664  -0.634  0.00  0.00    -0.046 C 
ATOM     13  C   UNL     1      -4.290  -1.164  -0.820  0.00  0.00    +0.005 C 
ATOM     14  C   UNL     1      -3.314  -2.223  -0.381  0.00  0.00    -0.020 C 
ATOM     15  C   UNL     1      -2.095  -1.877   0.012  0.00  0.00    -0.034 C 
ATOM     16  H   UNL     1      -7.917  -1.976  -1.319  0.00  0.00    +0.113 HD
ATOM     17  H   UNL     1      -6.813  -0.358   0.503  0.00  0.00    -0.055 HD
ENDROOT
BRANCH   8  18
ATOM     18  S   UNL     1     -10.079   0.162   0.782  0.00  0.00    +0.209 S 
ATOM     19  O   UNL     1     -10.708  -1.080   1.069  0.00  0.00    -0.126 OA
ATOM     20  O   UNL     1      -9.108   0.741   1.644  0.00  0.00    -0.126 OA
BRANCH  18  21
ATOM     21  O   UNL     1     -11.192   1.188   0.629  0.00  0.00    -0.339 OA
BRANCH  21  22
ATOM     22  C   UNL     1     -12.293   0.718  -0.014  0.00  0.00    +0.157 A 
ATOM     23  C   UNL     1     -12.388   0.821  -1.395  0.00  0.00    +0.048 A 
ATOM     24  C   UNL     1     -13.507   0.342  -2.046  0.00  0.00    +0.004 A 
ATOM     25  C   UNL     1     -14.533  -0.239  -1.324  0.00  0.00    +0.000 A 
ATOM     26  C   UNL     1     -14.442  -0.342   0.051  0.00  0.00    +0.004 A 
ATOM     27  C   UNL     1     -13.321   0.130   0.707  0.00  0.00    +0.048 A 
ENDBRANCH  21  22
ENDBRANCH  18  21
ENDBRANCH   8  18
BRANCH   1  29
ATOM     28  C   UNL     1      -0.022   1.810   0.012  0.00  0.00    +0.090 C 
ATOM     29  S   UNL     1       0.002  -0.004   0.002  0.00  0.00    -0.129 S 
ENDBRANCH   1  29
BRANCH  15  30
ATOM     30  C   UNL     1      -1.119  -2.934   0.459  0.00  0.00    +0.071 C 
BRANCH  30  31
ATOM     31  C   UNL     1      -0.237  -3.325  -0.700  0.00  0.00    -0.043 A 
ATOM     32  C   UNL     1      -0.619  -4.354  -1.541  0.00  0.00    +0.004 A 
ATOM     33  C   UNL     1       0.190  -4.713  -2.604  0.00  0.00    +0.000 A 
ATOM     34  C   UNL     1       1.379  -4.043  -2.825  0.00  0.00    +0.000 A 
ATOM     35  C   UNL     1       1.759  -3.014  -1.984  0.00  0.00    +0.000 A 
ATOM     36  C   UNL     1       0.949  -2.652  -0.924  0.00  0.00    +0.004 A 
ENDBRANCH  30  31
ENDBRANCH  15  30
TORSDOF 6
