REMARK  Name = ZINC19454455
REMARK  7 active torsions:
REMARK  status: ('A' for Active; 'I' for Inactive)
REMARK    1  A    between atoms: C_1  and  C_2
REMARK    2  A    between atoms: C_2  and  C_3
REMARK    3  A    between atoms: C_2  and  C_4
REMARK    4  A    between atoms: N_8  and  C_9
REMARK    5  A    between atoms: C_9  and  C_10
REMARK    6  A    between atoms: C_10  and  C_11
REMARK    7  A    between atoms: N_28  and  C_29
REMARK                            x       y       z     vdW  Elec       q    Type
REMARK                         _______ _______ _______ _____ _____    ______ ____
ROOT
ATOM      1  C   UNL     1      -0.036   2.236   2.169  0.00  0.00    +0.217 C 
ATOM      2  O   UNL     1       1.150   2.454   2.040  0.00  0.00    -0.276 OA
ATOM      3  N   UNL     1      -0.706   1.562   1.213  0.00  0.00    -0.301 N 
ATOM      4  C   UNL     1      -0.013   1.086   0.008  0.00  0.00    +0.111 C 
ATOM      5  C   UNL     1      -0.759   1.596  -1.228  0.00  0.00    +0.065 C 
ATOM      6  C   UNL     1      -2.228   1.167  -1.145  0.00  0.00    +0.105 C 
ATOM      7  C   UNL     1      -2.867   1.798   0.097  0.00  0.00    +0.065 C 
ATOM      8  C   UNL     1      -2.146   1.290   1.349  0.00  0.00    +0.111 C 
ATOM      9  N   UNL     1      -2.296  -0.291  -1.031  0.00  0.00    -0.290 N 
ATOM     10  C   UNL     1      -3.436  -0.935  -1.380  0.00  0.00    +0.249 C 
ATOM     11  O   UNL     1      -3.549  -2.139  -1.254  0.00  0.00    -0.270 OA
ATOM     12  C   UNL     1      -4.535  -0.113  -1.921  0.00  0.00    +0.077 A 
ATOM     13  C   UNL     1      -5.846  -0.583  -1.973  0.00  0.00    +0.018 A 
ATOM     14  C   UNL     1      -6.818   0.261  -2.487  0.00  0.00    +0.021 A 
ATOM     15  C   UNL     1      -6.458   1.524  -2.924  0.00  0.00    +0.113 A 
ATOM     16  N   UNL     1      -5.209   1.946  -2.867  0.00  0.00    -0.239 NA
ATOM     17  C   UNL     1      -4.240   1.181  -2.389  0.00  0.00    +0.135 A 
ATOM     18  N   UNL     1      -2.936   1.632  -2.341  0.00  0.00    -0.296 N 
ATOM     19  C   UNL     1      -2.881   3.096  -2.451  0.00  0.00    +0.133 C 
ATOM     20  H   UNL     1      -1.426  -0.856  -0.665  0.00  0.00    +0.151 HD
ENDROOT
BRANCH   1  21
ATOM     21  C   UNL     1      -0.762   2.718   3.399  0.00  0.00    +0.117 C 
BRANCH  21  22
ATOM     22  C   UNL     1       0.221   3.447   4.317  0.00  0.00    +0.132 C 
BRANCH  22  27
ATOM     23  C   UNL     1      -0.725   3.201   6.633  0.00  0.00    +0.090 A 
ATOM     24  N   UNL     1      -1.376   3.954   7.478  0.00  0.00    -0.349 N 
ATOM     25  C   UNL     1      -1.573   5.163   6.932  0.00  0.00    +0.101 A 
ATOM     26  C   UNL     1      -1.017   5.162   5.705  0.00  0.00    +0.104 A 
ATOM     27  N   UNL     1      -0.484   3.916   5.513  0.00  0.00    -0.335 N 
ATOM     28  H   UNL     1      -1.669   3.553   8.459  0.00  0.00    +0.166 HD
BRANCH  23  30
ATOM     29  C   UNL     1       0.613   1.705   8.089  0.00  0.00    +0.015 C 
ATOM     30  C   UNL     1      -0.308   1.772   6.870  0.00  0.00    +0.047 C 
ATOM     31  C   UNL     1      -1.550   0.915   7.121  0.00  0.00    +0.015 C 
ENDBRANCH  23  30
ENDBRANCH  22  27
ENDBRANCH  21  22
ENDBRANCH   1  21
TORSDOF 4
