REMARK  Name = ZINC22059532
REMARK  8 active torsions:
REMARK  status: ('A' for Active; 'I' for Inactive)
REMARK    1  A    between atoms: C_1  and  C_2
REMARK    2  A    between atoms: C_2  and  N_3
REMARK    3  A    between atoms: N_3  and  C_4
REMARK    4  A    between atoms: C_9  and  C_10
REMARK    5  A    between atoms: C_11  and  C_13
REMARK    6  A    between atoms: C_13  and  N_14
REMARK    7  A    between atoms: C_17  and  C_21
REMARK    8  A    between atoms: C_17  and  C_22
REMARK                            x       y       z     vdW  Elec       q    Type
REMARK                         _______ _______ _______ _____ _____    ______ ____
ROOT
ATOM      1  N   UNL     1       0.758   3.055  -1.183  0.00  0.00    -0.215 N 
ATOM      2  C   UNL     1       1.289   1.818  -1.247  0.00  0.00    +0.251 C 
ATOM      3  O   UNL     1       2.444   1.506  -1.052  0.00  0.00    -0.272 OA
ATOM      4  C   UNL     1       0.141   0.898  -1.614  0.00  0.00    +0.136 C 
ATOM      5  N   UNL     1      -1.011   1.809  -1.724  0.00  0.00    -0.281 N 
ATOM      6  C   UNL     1      -0.552   3.045  -1.456  0.00  0.00    +0.310 C 
ATOM      7  O   UNL     1      -1.248   4.041  -1.464  0.00  0.00    -0.252 OA
ATOM      8  C   UNL     1      -0.096  -0.138  -0.514  0.00  0.00    +0.047 C 
ATOM      9  H   UNL     1      -2.003   1.413  -1.986  0.00  0.00    +0.152 HD
ENDROOT
BRANCH   4  10
ATOM     10  C   UNL     1       0.407   0.218  -2.932  0.00  0.00    +0.003 A 
ATOM     11  C   UNL     1      -0.413   0.467  -4.017  0.00  0.00    +0.009 A 
ATOM     12  C   UNL     1      -0.166  -0.152  -5.227  0.00  0.00    +0.020 A 
ATOM     13  C   UNL     1       0.896  -1.030  -5.352  0.00  0.00    +0.042 A 
ATOM     14  C   UNL     1       1.714  -1.284  -4.266  0.00  0.00    +0.040 A 
ATOM     15  C   UNL     1       1.470  -0.660  -3.055  0.00  0.00    +0.048 A 
ATOM     16 CL   UNL     1       2.495  -0.978  -1.692  0.00  0.00    -0.083 Cl
ATOM     17 CL   UNL     1       1.202  -1.812  -6.871  0.00  0.00    -0.083 Cl
ENDBRANCH   4  10
BRANCH   1  18
ATOM     18  C   UNL     1       1.521   4.262  -0.856  0.00  0.00    +0.214 C 
BRANCH  18  20
ATOM     19  N   UNL     1       2.139   5.541   1.169  0.00  0.00    -0.270 N 
ATOM     20  C   UNL     1       1.498   4.483   0.635  0.00  0.00    +0.238 C 
ATOM     21  O   UNL     1       0.903   3.708   1.353  0.00  0.00    -0.274 OA
BRANCH  19  22
ATOM     22  C   UNL     1       2.118   5.746   2.553  0.00  0.00    +0.039 A 
ATOM     23  C   UNL     1       1.064   6.437   3.138  0.00  0.00    +0.024 A 
ATOM     24  C   UNL     1       1.046   6.638   4.504  0.00  0.00    +0.002 A 
ATOM     25  C   UNL     1       2.075   6.151   5.290  0.00  0.00    +0.000 A 
ATOM     26  C   UNL     1       3.125   5.463   4.711  0.00  0.00    +0.005 A 
ATOM     27  C   UNL     1       3.146   5.254   3.345  0.00  0.00    -0.029 A 
ATOM     28  C   UNL     1       4.288   4.498   2.716  0.00  0.00    +0.045 C 
ENDBRANCH  19  22
BRANCH  19  30
ATOM     29  C   UNL     1       1.900   7.571  -0.174  0.00  0.00    +0.025 C 
ATOM     30  C   UNL     1       2.858   6.477   0.301  0.00  0.00    +0.110 C 
ENDBRANCH  19  30
ENDBRANCH  18  20
ENDBRANCH   1  18
TORSDOF 5
