REMARK  Name = ZINC39742417
REMARK  6 active torsions:
REMARK  status: ('A' for Active; 'I' for Inactive)
REMARK    1  A    between atoms: C_1  and  C_2
REMARK    2  A    between atoms: C_3  and  C_22
REMARK    3  A    between atoms: C_5  and  N_8
REMARK    4  A    between atoms: C_9  and  C_11
REMARK    5  A    between atoms: C_11  and  S_12
REMARK    6  A    between atoms: S_12  and  C_13
REMARK                            x       y       z     vdW  Elec       q    Type
REMARK                         _______ _______ _______ _____ _____    ______ ____
ROOT
ATOM      1  C   UNL     1       1.782  -3.283  -4.277  0.00  0.00    +0.173 C 
ENDROOT
BRANCH   1   3
ATOM      2  N   UNL     1       1.029  -2.630  -2.014  0.00  0.00    -0.285 N 
ATOM      3  C   UNL     1       0.742  -2.754  -3.325  0.00  0.00    +0.225 C 
ATOM      4  O   UNL     1      -0.354  -2.438  -3.737  0.00  0.00    -0.275 OA
ATOM      5  H   UNL     1       1.906  -2.883  -1.683  0.00  0.00    +0.152 HD
BRANCH   2  10
ATOM      6  C   UNL     1      -0.018   1.503   0.010  0.00  0.00    +0.061 C 
ATOM      7  C   UNL     1       0.002  -0.004   0.002  0.00  0.00    +0.026 C 
ATOM      8  C   UNL     1       0.025  -0.787   1.307  0.00  0.00    +0.091 C 
ATOM      9  S   UNL     1       0.484  -2.458   0.667  0.00  0.00    -0.106 S 
ATOM     10  C   UNL     1       0.018  -2.116  -1.087  0.00  0.00    +0.251 C 
ATOM     11  N   UNL     1      -0.005  -0.639  -1.082  0.00  0.00    -0.259 NA
ATOM     12  C   UNL     1       1.091  -0.245   2.262  0.00  0.00    +0.025 C 
ENDBRANCH   2  10
ENDBRANCH   1   3
BRANCH   1  13
ATOM     13  S   UNL     1       1.097  -3.329  -5.956  0.00  0.00    -0.079 S 
BRANCH  13  14
ATOM     14  C   UNL     1       2.416  -3.962  -6.938  0.00  0.00    +0.168 A 
ATOM     15  N   UNL     1       3.598  -4.301  -6.484  0.00  0.00    -0.222 NA
ATOM     16  C   UNL     1       4.370  -4.748  -7.508  0.00  0.00    +0.090 A 
ATOM     17  C   UNL     1       5.681  -5.224  -7.585  0.00  0.00    +0.030 A 
ATOM     18  C   UNL     1       6.197  -5.614  -8.801  0.00  0.00    +0.002 A 
ATOM     19  C   UNL     1       5.425  -5.538  -9.950  0.00  0.00    +0.002 A 
ATOM     20  C   UNL     1       4.128  -5.070  -9.891  0.00  0.00    +0.028 A 
ATOM     21  C   UNL     1       3.592  -4.674  -8.676  0.00  0.00    +0.067 A 
ATOM     22  N   UNL     1       2.358  -4.178  -8.286  0.00  0.00    -0.333 N 
ATOM     23  H   UNL     1       1.596  -4.013  -8.863  0.00  0.00    +0.168 HD
ENDBRANCH  13  14
ENDBRANCH   1  13
TORSDOF 4
