REMARK  Name = ZINC37342112
REMARK  6 active torsions:
REMARK  status: ('A' for Active; 'I' for Inactive)
REMARK    1  A    between atoms: C_1  and  C_2
REMARK    2  A    between atoms: C_10  and  C_12
REMARK    3  A    between atoms: C_12  and  C_24
REMARK    4  A    between atoms: C_13  and  C_14
REMARK    5  A    between atoms: C_16  and  O_23
REMARK    6  A    between atoms: C_19  and  N_20
REMARK                            x       y       z     vdW  Elec       q    Type
REMARK                         _______ _______ _______ _____ _____    ______ ____
ROOT
ATOM      1  C   UNL     1       0.519  -5.633   1.914  0.00  0.00    +0.095 C 
ATOM      2  C   UNL     1       0.528  -6.845   1.290  0.00  0.00    +0.032 C 
ENDROOT
BRANCH   1  12
ATOM      3  C   UNL     1       1.529   1.183  -0.834  0.00  0.00    +0.044 C 
ATOM      4  C   UNL     1       1.391  -0.314  -0.723  0.00  0.00    -0.048 A 
ATOM      5  C   UNL     1       1.520  -1.104  -1.857  0.00  0.00    +0.005 A 
ATOM      6  C   UNL     1       1.399  -2.462  -1.778  0.00  0.00    +0.030 A 
ATOM      7  C   UNL     1       1.141  -3.068  -0.543  0.00  0.00    +0.089 A 
ATOM      8  C   UNL     1       1.010  -2.267   0.605  0.00  0.00    +0.067 A 
ATOM      9  C   UNL     1       1.141  -0.889   0.505  0.00  0.00    +0.031 A 
ATOM     10  N   UNL     1       0.763  -3.133   1.654  0.00  0.00    -0.337 N 
ATOM     11  H   UNL     1       0.624  -2.888   2.582  0.00  0.00    +0.167 HD
ATOM     12  C   UNL     1       0.749  -4.401   1.136  0.00  0.00    +0.150 A 
ATOM     13  N   UNL     1       0.972  -4.355  -0.156  0.00  0.00    -0.227 NA
ENDBRANCH   1  12
BRANCH   2  14
ATOM     14  C   UNL     1       0.441  -8.079   2.082  0.00  0.00    +0.010 A 
ATOM     15  C   UNL     1       1.058  -8.155   3.336  0.00  0.00    +0.055 A 
ATOM     16  C   UNL     1       0.971  -9.321   4.075  0.00  0.00    +0.118 A 
ATOM     17  C   UNL     1       0.273 -10.412   3.573  0.00  0.00    +0.047 A 
ATOM     18  C   UNL     1      -0.337 -10.341   2.333  0.00  0.00    +0.037 A 
ATOM     19  C   UNL     1      -0.263  -9.183   1.588  0.00  0.00    +0.134 A 
BRANCH  19  20
ATOM     20  N   UNL     1      -0.924  -9.110   0.265  0.00  0.00    +0.057 N 
ATOM     21  O   UNL     1      -1.432 -10.098  -0.212  0.00  0.00    -0.126 OA
ATOM     22  O   UNL     1      -0.954  -8.063  -0.338  0.00  0.00    -0.126 OA
ENDBRANCH  19  20
BRANCH  16  23
ATOM     23  O   UNL     1       1.567  -9.399   5.293  0.00  0.00    -0.507 OA
ATOM     24  H   UNL     1       1.001  -9.124   6.027  0.00  0.00    +0.292 HD
ENDBRANCH  16  23
ENDBRANCH   2  14
BRANCH   1  25
ATOM     25  C   UNL     1       0.286  -5.555   3.325  0.00  0.00    +0.103 C 
ATOM     26  N   UNL     1       0.101  -5.494   4.444  0.00  0.00    -0.191 NA
ENDBRANCH   1  25
TORSDOF 5
