REMARK  Name = ZINC08915434
REMARK  6 active torsions:
REMARK  status: ('A' for Active; 'I' for Inactive)
REMARK    1  A    between atoms: C_3  and  C_8
REMARK    2  A    between atoms: C_11  and  C_13
REMARK    3  A    between atoms: C_15  and  C_27
REMARK    4  A    between atoms: C_17  and  C_22
REMARK    5  A    between atoms: C_19  and  O_21
REMARK    6  A    between atoms: C_27  and  C_29
REMARK                            x       y       z     vdW  Elec       q    Type
REMARK                         _______ _______ _______ _____ _____    ______ ____
ROOT
ATOM      1  C   UNL     1       5.634   5.234  -0.019  0.00  0.00    +0.156 C 
ATOM      2  C   UNL     1       5.552   5.834  -1.431  0.00  0.00    +0.152 C 
ATOM      3  C   UNL     1       4.084   5.859  -1.861  0.00  0.00    +0.284 C 
ATOM      4  N   UNL     1       3.254   6.452  -0.818  0.00  0.00    -0.306 N 
ATOM      5  C   UNL     1       3.611   6.539   0.419  0.00  0.00    +0.256 C 
ATOM      6  N   UNL     1       4.828   6.085   0.869  0.00  0.00    -0.290 N 
ATOM      7  O   UNL     1       3.643   4.523  -2.111  0.00  0.00    -0.194 OA
ATOM      8  H   UNL     1       5.149   6.322   1.753  0.00  0.00    +0.151 HD
ATOM      9  H   UNL     1       2.384   6.800  -1.068  0.00  0.00    +0.167 HD
ENDROOT
BRANCH   1  13
ATOM     10  C   UNL     1       3.656   2.162  -0.022  0.00  0.00    +0.135 A 
ATOM     11  C   UNL     1       4.904   1.622  -0.042  0.00  0.00    +0.050 A 
ATOM     12  C   UNL     1       5.812   2.700  -0.044  0.00  0.00    +0.047 A 
ATOM     13  C   UNL     1       5.082   3.832  -0.025  0.00  0.00    +0.127 A 
ATOM     14  O   UNL     1       3.780   3.503  -0.017  0.00  0.00    -0.458 OA
BRANCH  10  17
ATOM     15  C   UNL     1      -0.017   1.379   0.010  0.00  0.00    +0.002 A 
ATOM     16  C   UNL     1       1.167   2.088   0.002  0.00  0.00    +0.011 A 
ATOM     17  C   UNL     1       2.385   1.408  -0.013  0.00  0.00    +0.019 A 
ATOM     18  C   UNL     1       2.398   0.012  -0.021  0.00  0.00    +0.031 A 
ATOM     19  C   UNL     1       1.207  -0.686  -0.013  0.00  0.00    +0.042 A 
ATOM     20  C   UNL     1       0.002  -0.004   0.002  0.00  0.00    +0.020 A 
ATOM     21 CL   UNL     1       1.220  -2.422  -0.023  0.00  0.00    -0.084 Cl
ENDBRANCH  10  17
ENDBRANCH   1  13
BRANCH   3  22
ATOM     22  C   UNL     1       3.947   6.683  -3.142  0.00  0.00    +0.441 C 
ATOM     23  F   UNL     1       4.722   6.104  -4.154  0.00  0.00    -0.166 F 
ATOM     24  F   UNL     1       2.606   6.709  -3.540  0.00  0.00    -0.166 F 
ATOM     25  F   UNL     1       4.389   7.989  -2.906  0.00  0.00    -0.166 F 
ENDBRANCH   3  22
BRANCH   5  26
ATOM     26  O   UNL     1       2.757   7.098   1.305  0.00  0.00    -0.483 OA
ATOM     27  H   UNL     1       1.923   7.393   0.915  0.00  0.00    +0.295 HD
ENDBRANCH   5  26
BRANCH   2  28
ATOM     28  C   UNL     1       6.348   4.986  -2.389  0.00  0.00    +0.173 C 
ATOM     29  O   UNL     1       6.464   3.795  -2.193  0.00  0.00    -0.292 OA
BRANCH  28  30
ATOM     30  C   UNL     1       6.982   5.602  -3.563  0.00  0.00    +0.018 A 
ATOM     31  C   UNL     1       6.855   6.977  -3.790  0.00  0.00    +0.014 A 
ATOM     32  C   UNL     1       7.452   7.549  -4.892  0.00  0.00    +0.039 A 
ATOM     33  C   UNL     1       8.179   6.764  -5.776  0.00  0.00    +0.123 A 
ATOM     34  C   UNL     1       8.309   5.401  -5.557  0.00  0.00    +0.039 A 
ATOM     35  C   UNL     1       7.722   4.818  -4.456  0.00  0.00    +0.014 A 
ATOM     36  F   UNL     1       8.761   7.331  -6.856  0.00  0.00    -0.205 F 
ENDBRANCH  28  30
ENDBRANCH   2  28
TORSDOF 6
