REMARK  Name = ZINC21105960
REMARK  5 active torsions:
REMARK  status: ('A' for Active; 'I' for Inactive)
REMARK    1  A    between atoms: C_7  and  N_18
REMARK    2  A    between atoms: N_9  and  C_12
REMARK    3  A    between atoms: C_12  and  C_13
REMARK    4  A    between atoms: N_18  and  C_19
REMARK    5  A    between atoms: C_23  and  N_25
REMARK                            x       y       z     vdW  Elec       q    Type
REMARK                         _______ _______ _______ _____ _____    ______ ____
ROOT
ATOM      1  C   UNL     1       6.455   5.072   2.582  0.00  0.00    +0.020 A 
ATOM      2  C   UNL     1       6.654   4.900   1.223  0.00  0.00    +0.016 A 
ATOM      3  C   UNL     1       5.655   4.258   0.485  0.00  0.00    +0.062 A 
ATOM      4  C   UNL     1       4.505   3.820   1.146  0.00  0.00    +0.092 A 
ATOM      5  N   UNL     1       4.361   4.006   2.439  0.00  0.00    -0.256 NA
ATOM      6  C   UNL     1       5.288   4.609   3.161  0.00  0.00    +0.111 A 
ATOM      7  C   UNL     1       3.632   3.178   0.094  0.00  0.00    +0.212 C 
ATOM      8  N   UNL     1       4.364   3.289  -1.173  0.00  0.00    -0.269 N 
ATOM      9  C   UNL     1       5.533   3.913  -0.943  0.00  0.00    +0.250 C 
ATOM     10  O   UNL     1       6.369   4.158  -1.791  0.00  0.00    -0.270 OA
ENDROOT
BRANCH   7  11
ATOM     11  N   UNL     1       2.354   3.888   0.000  0.00  0.00    -0.321 N 
ATOM     12  H   UNL     1       2.336   4.987  -0.022  0.00  0.00    +0.148 HD
BRANCH  11  13
ATOM     13  C   UNL     1       1.158   3.168  -0.061  0.00  0.00    +0.031 A 
ATOM     14  C   UNL     1      -0.059   3.833   0.009  0.00  0.00    +0.024 A 
ATOM     15  C   UNL     1      -1.240   3.119  -0.051  0.00  0.00    +0.024 A 
ATOM     16  C   UNL     1      -1.211   1.741  -0.176  0.00  0.00    +0.071 A 
ATOM     17  C   UNL     1       0.000   1.076  -0.253  0.00  0.00    +0.146 A 
ATOM     18  C   UNL     1       1.184   1.786  -0.193  0.00  0.00    +0.057 A 
ATOM     19 CL   UNL     1      -2.696   0.846  -0.244  0.00  0.00    -0.081 Cl
BRANCH  17  20
ATOM     20  N   UNL     1       0.028  -0.397  -0.393  0.00  0.00    +0.058 N 
ATOM     21  O   UNL     1       1.093  -0.983  -0.456  0.00  0.00    -0.126 OA
ATOM     22  O   UNL     1      -1.016  -1.023  -0.446  0.00  0.00    -0.126 OA
ENDBRANCH  17  20
ENDBRANCH  11  13
ENDBRANCH   7  11
BRANCH   8  23
ATOM     23  C   UNL     1       3.899   2.800  -2.473  0.00  0.00    +0.152 C 
BRANCH  23  24
ATOM     24  C   UNL     1       3.119   3.886  -3.168  0.00  0.00    +0.007 A 
ATOM     25  C   UNL     1       3.564   4.854  -4.006  0.00  0.00    +0.013 A 
ATOM     26  C   UNL     1       2.656   5.752  -4.535  0.00  0.00    +0.008 A 
ATOM     27  C   UNL     1       1.349   5.644  -4.192  0.00  0.00    +0.045 A 
ATOM     28  S   UNL     1       1.370   4.236  -3.095  0.00  0.00    -0.100 S 
ENDBRANCH  23  24
ENDBRANCH   8  23
TORSDOF 5
