REMARK  Name = ZINC15672900
REMARK  10 active torsions:
REMARK  status: ('A' for Active; 'I' for Inactive)
REMARK    1  A    between atoms: C_1  and  C_2
REMARK    2  A    between atoms: C_2  and  N_70
REMARK    3  A    between atoms: C_3  and  C_4
REMARK    4  A    between atoms: C_3  and  N_70
REMARK    5  A    between atoms: C_5  and  C_6
REMARK    6  A    between atoms: C_5  and  N_70
REMARK    7  A    between atoms: C_6  and  N_7
REMARK    8  A    between atoms: C_16  and  C_17
REMARK    9  A    between atoms: C_16  and  C_18
REMARK   10  A    between atoms: N_20  and  C_21
REMARK                            x       y       z     vdW  Elec       q    Type
REMARK                         _______ _______ _______ _____ _____    ______ ____
ROOT
ATOM      1  N   UNL     1      -0.775   2.659   4.437  0.00  0.00    -0.282 N 
ATOM      2  C   UNL     1      -0.723   3.413   5.560  0.00  0.00    +0.264 C 
ATOM      3  O   UNL     1       0.006   4.384   5.648  0.00  0.00    -0.268 OA
ATOM      4  C   UNL     1      -1.592   2.994   6.667  0.00  0.00    +0.106 A 
ATOM      5  C   UNL     1      -1.908   3.624   7.834  0.00  0.00    +0.048 A 
ATOM      6  C   UNL     1      -2.796   2.800   8.516  0.00  0.00    +0.038 A 
ATOM      7  C   UNL     1      -3.033   1.640   7.763  0.00  0.00    +0.057 A 
ATOM      8  N   UNL     1      -2.268   1.780   6.620  0.00  0.00    -0.333 N 
ATOM      9  C   UNL     1      -2.120   0.854   5.494  0.00  0.00    +0.157 C 
ATOM     10  C   UNL     1      -1.810   1.653   4.228  0.00  0.00    +0.128 C 
ATOM     11  C   UNL     1      -3.088   2.352   3.759  0.00  0.00    +0.043 C 
ATOM     12  C   UNL     1      -3.920   0.717   8.335  0.00  0.00    +0.034 A 
ATOM     13  C   UNL     1      -4.483   0.970   9.536  0.00  0.00    +0.048 A 
ATOM     14  S   UNL     1      -3.794   2.560   9.963  0.00  0.00    -0.095 S 
ENDROOT
BRANCH  10  15
ATOM     15  C   UNL     1      -1.354   0.702   3.151  0.00  0.00    +0.238 C 
ATOM     16  O   UNL     1      -2.071   0.472   2.201  0.00  0.00    -0.273 OA
ATOM     17  N   UNL     1      -0.148   0.107   3.245  0.00  0.00    -0.311 N 
ATOM     18  H   UNL     1       0.399   0.241   4.035  0.00  0.00    +0.149 HD
BRANCH  17  19
ATOM     19  C   UNL     1       0.337  -0.742   2.153  0.00  0.00    +0.073 C 
ATOM     20  C   UNL     1       1.127   0.110   1.158  0.00  0.00    +0.022 C 
ATOM     21  C   UNL     1       1.957  -0.802   0.253  0.00  0.00    +0.002 C 
ATOM     22  C   UNL     1       1.044  -1.457  -0.786  0.00  0.00    +0.000 C 
ATOM     23  C   UNL     1       0.240  -2.577  -0.123  0.00  0.00    +0.000 C 
ATOM     24  C   UNL     1       1.160  -3.403   0.778  0.00  0.00    +0.000 C 
ATOM     25  C   UNL     1       0.754  -3.203   2.240  0.00  0.00    +0.002 C 
ATOM     26  C   UNL     1       1.242  -1.835   2.722  0.00  0.00    +0.022 C 
ENDBRANCH  17  19
ENDBRANCH  10  15
BRANCH   1  27
ATOM     27  C   UNL     1       0.240   2.859   3.400  0.00  0.00    +0.091 C 
BRANCH  27  28
ATOM     28  C   UNL     1      -0.163   4.040   2.514  0.00  0.00    -0.060 C 
BRANCH  28  29
ATOM     29  N   UNL     1       0.960   4.351   1.604  0.00  0.00    +0.380 N 
ATOM     30  H   UNL     1       1.844   4.231   2.111  0.00  0.00    -0.082 HD
BRANCH  29  32
ATOM     31  C   UNL     1      -0.319   3.652  -0.393  0.00  0.00    -0.017 C 
ATOM     32  C   UNL     1       0.941   3.432   0.446  0.00  0.00    -0.082 C 
ENDBRANCH  29  32
BRANCH  29  33
ATOM     33  C   UNL     1       0.860   5.751   1.139  0.00  0.00    -0.082 C 
ATOM     34  C   UNL     1       2.154   6.123   0.414  0.00  0.00    -0.017 C 
ENDBRANCH  29  33
ENDBRANCH  28  29
ENDBRANCH  27  28
ENDBRANCH   1  27
TORSDOF 7
