REMARK  Name = ZINC60555725
REMARK  7 active torsions:
REMARK  status: ('A' for Active; 'I' for Inactive)
REMARK    1  A    between atoms: C_1  and  C_2
REMARK    2  A    between atoms: N_6  and  C_8
REMARK    3  A    between atoms: C_8  and  C_9
REMARK    4  A    between atoms: C_8  and  C_10
REMARK    5  A    between atoms: C_10  and  N_11
REMARK    6  A    between atoms: C_12  and  C_14
REMARK    7  A    between atoms: C_14  and  N_15
REMARK                            x       y       z     vdW  Elec       q    Type
REMARK                         _______ _______ _______ _____ _____    ______ ____
ROOT
ATOM      1  N   UNL     1       0.065  -4.412   2.357  0.00  0.00    -0.315 N 
ATOM      2  C   UNL     1      -0.254  -5.715   2.492  0.00  0.00    +0.235 C 
ATOM      3  O   UNL     1       0.617  -6.535   2.691  0.00  0.00    -0.274 OA
ATOM      4  H   UNL     1      -0.631  -3.756   2.198  0.00  0.00    +0.149 HD
ENDROOT
BRANCH   1   5
ATOM      5  C   UNL     1       1.464  -3.988   2.450  0.00  0.00    +0.089 C 
BRANCH   5   6
ATOM      6  C   UNL     1       1.540  -2.461   2.378  0.00  0.00    -0.054 C 
ATOM      7  C   UNL     1       3.005  -2.022   2.389  0.00  0.00    -0.012 C 
BRANCH   6  13
ATOM      8  C   UNL     1       1.766  -2.557  -2.511  0.00  0.00    +0.005 C 
ATOM      9  C   UNL     1       0.961  -2.061  -1.308  0.00  0.00    -0.031 C 
ATOM     10  C   UNL     1       0.852  -0.535  -1.360  0.00  0.00    -0.001 C 
ATOM     11  C   UNL     1       0.113  -0.043  -0.112  0.00  0.00    -0.018 C 
ATOM     12  C   UNL     1       0.852  -0.530   1.136  0.00  0.00    -0.078 C 
ATOM     13  N   UNL     1       0.899  -1.997   1.140  0.00  0.00    +0.383 N 
ATOM     14  C   UNL     1       1.668  -2.473  -0.016  0.00  0.00    -0.075 C 
ATOM     15  H   UNL     1      -0.040  -2.363   1.092  0.00  0.00    -0.081 HD
ENDBRANCH   6  13
ENDBRANCH   5   6
ENDBRANCH   1   5
BRANCH   2  16
ATOM     16  C   UNL     1      -1.693  -6.152   2.396  0.00  0.00    +0.244 C 
BRANCH  16  17
ATOM     17  N   UNL     1      -1.776  -7.603   2.576  0.00  0.00    -0.201 N 
ATOM     18  C   UNL     1      -1.942  -8.123   3.816  0.00  0.00    +0.278 A 
ATOM     19  O   UNL     1      -2.026  -7.406   4.796  0.00  0.00    -0.265 OA
ATOM     20  C   UNL     1      -2.018  -9.587   3.930  0.00  0.00    +0.068 A 
ATOM     21  C   UNL     1      -2.189 -10.217   5.162  0.00  0.00    +0.015 A 
ATOM     22  C   UNL     1      -2.254 -11.592   5.218  0.00  0.00    +0.001 A 
ATOM     23  C   UNL     1      -2.152 -12.352   4.061  0.00  0.00    +0.002 A 
ATOM     24  C   UNL     1      -1.983 -11.749   2.835  0.00  0.00    +0.030 A 
ATOM     25  C   UNL     1      -1.914 -10.356   2.751  0.00  0.00    +0.100 A 
ATOM     26  N   UNL     1      -1.749  -9.729   1.560  0.00  0.00    -0.131 NA
ATOM     27  N   UNL     1      -1.689  -8.450   1.468  0.00  0.00    -0.062 NA
ENDBRANCH  16  17
ENDBRANCH   2  16
TORSDOF 5
