REMARK  Name = ZINC06578148
REMARK  7 active torsions:
REMARK  status: ('A' for Active; 'I' for Inactive)
REMARK    1  A    between atoms: C_1  and  C_2
REMARK    2  A    between atoms: C_2  and  O_3
REMARK    3  A    between atoms: O_3  and  C_4
REMARK    4  A    between atoms: C_4  and  C_6
REMARK    5  A    between atoms: C_6  and  N_7
REMARK    6  A    between atoms: C_15  and  C_21
REMARK    7  A    between atoms: N_26  and  C_29
REMARK                            x       y       z     vdW  Elec       q    Type
REMARK                         _______ _______ _______ _____ _____    ______ ____
ROOT
ATOM      1  N   UNL     1       1.461  -3.838  -2.469  0.00  0.00    -0.287 N 
ATOM      2  C   UNL     1       2.497  -4.697  -1.815  0.00  0.00    +0.148 C 
ATOM      3  C   UNL     1       2.327  -5.995  -2.543  0.00  0.00    +0.116 C 
ATOM      4  C   UNL     1       2.828  -5.937  -3.974  0.00  0.00    +0.008 C 
ATOM      5  C   UNL     1       2.621  -7.146  -4.477  0.00  0.00    +0.004 C 
ATOM      6  C   UNL     1       1.928  -7.929  -3.354  0.00  0.00    +0.155 C 
ATOM      7  O   UNL     1       2.558  -7.327  -2.148  0.00  0.00    -0.359 OA
ATOM      8  C   UNL     1       0.483  -7.295  -3.350  0.00  0.00    +0.123 C 
ATOM      9  C   UNL     1       0.746  -6.011  -2.562  0.00  0.00    +0.127 C 
ATOM     10  C   UNL     1       0.471  -4.631  -2.998  0.00  0.00    +0.223 C 
ATOM     11  O   UNL     1      -0.452  -4.265  -3.694  0.00  0.00    -0.275 OA
ENDROOT
BRANCH   8  12
ATOM     12  C   UNL     1       0.015  -7.004  -4.753  0.00  0.00    +0.222 C 
ATOM     13  O   UNL     1      -0.235  -5.865  -5.085  0.00  0.00    -0.275 OA
ATOM     14  N   UNL     1      -0.125  -8.011  -5.638  0.00  0.00    -0.298 N 
ATOM     15  C   UNL     1       0.169  -9.396  -5.248  0.00  0.00    +0.126 C 
ATOM     16  C   UNL     1      -1.066 -10.259  -5.537  0.00  0.00    +0.124 C 
ATOM     17  N   UNL     1      -1.516  -9.990  -6.910  0.00  0.00    -0.327 N 
ATOM     18  C   UNL     1      -1.810  -8.604  -7.300  0.00  0.00    +0.124 C 
ATOM     19  C   UNL     1      -0.581  -7.742  -7.009  0.00  0.00    +0.126 C 
BRANCH  17  20
ATOM     20  C   UNL     1      -1.661 -11.034  -7.828  0.00  0.00    +0.030 A 
ATOM     21  C   UNL     1      -2.196 -10.785  -9.085  0.00  0.00    +0.026 A 
ATOM     22  C   UNL     1      -2.339 -11.818  -9.991  0.00  0.00    +0.040 A 
ATOM     23  C   UNL     1      -1.949 -13.101  -9.647  0.00  0.00    +0.124 A 
ATOM     24  C   UNL     1      -1.415 -13.352  -8.394  0.00  0.00    +0.040 A 
ATOM     25  C   UNL     1      -1.266 -12.321  -7.487  0.00  0.00    +0.026 A 
ATOM     26  F   UNL     1      -2.089 -14.110 -10.534  0.00  0.00    -0.205 F 
ENDBRANCH  17  20
ENDBRANCH   8  12
BRANCH   1  27
ATOM     27  C   UNL     1       1.493  -2.375  -2.529  0.00  0.00    +0.228 C 
BRANCH  27  28
ATOM     28  C   UNL     1       0.793  -1.807  -1.322  0.00  0.00    +0.325 C 
ATOM     29  O   UNL     1       0.316  -2.548  -0.495  0.00  0.00    -0.249 OA
BRANCH  28  30
ATOM     30  O   UNL     1       0.699  -0.477  -1.164  0.00  0.00    -0.464 OA
BRANCH  30  32
ATOM     31  C   UNL     1       0.015   1.522   0.009  0.00  0.00    +0.048 C 
ATOM     32  C   UNL     1       0.022  -0.008   0.004  0.00  0.00    +0.229 C 
ENDBRANCH  30  32
ENDBRANCH  28  30
ENDBRANCH  27  28
ENDBRANCH   1  27
TORSDOF 6
