REMARK  Name = ZINC53491894
REMARK  4 active torsions:
REMARK  status: ('A' for Active; 'I' for Inactive)
REMARK    1  A    between atoms: C_3  and  C_6
REMARK    2  A    between atoms: C_6  and  C_8
REMARK    3  A    between atoms: C_6  and  N_18
REMARK    4  A    between atoms: C_24  and  C_27
REMARK                            x       y       z     vdW  Elec       q    Type
REMARK                         _______ _______ _______ _____ _____    ______ ____
ROOT
ATOM      1  C   UNL     1       3.759   1.844  -0.024  0.00  0.00    +0.142 C 
ENDROOT
BRANCH   1   2
ATOM      2  C   UNL     1       4.300   1.789  -1.429  0.00  0.00    -0.022 A 
ATOM      3  C   UNL     1       4.759   0.592  -1.949  0.00  0.00    +0.006 A 
ATOM      4  C   UNL     1       5.255   0.550  -3.235  0.00  0.00    +0.004 A 
ATOM      5  C   UNL     1       5.298   1.700  -4.014  0.00  0.00    -0.044 A 
ATOM      6  C   UNL     1       4.837   2.890  -3.497  0.00  0.00    -0.044 A 
ATOM      7  C   UNL     1       4.335   2.930  -2.203  0.00  0.00    +0.009 A 
ATOM      8  C   UNL     1       4.838   4.172  -4.289  0.00  0.00    +0.035 C 
ATOM      9  C   UNL     1       5.782   4.064  -5.485  0.00  0.00    +0.005 C 
ATOM     10  C   UNL     1       5.442   2.783  -6.256  0.00  0.00    +0.005 C 
ATOM     11  C   UNL     1       5.861   1.584  -5.406  0.00  0.00    +0.035 C 
ENDBRANCH   1   2
BRANCH   1  12
ATOM     12  N   UNL     1       4.586   1.010   0.851  0.00  0.00    -0.288 N 
ATOM     13  C   UNL     1       4.641   1.268   2.173  0.00  0.00    +0.303 C 
ATOM     14  O   UNL     1       4.080   2.247   2.625  0.00  0.00    -0.253 OA
ATOM     15  N   UNL     1       5.319   0.441   2.993  0.00  0.00    -0.286 N 
ATOM     16  C   UNL     1       6.099  -0.679   2.450  0.00  0.00    +0.110 C 
ATOM     17  C   UNL     1       5.656  -1.971   3.143  0.00  0.00    +0.032 C 
ATOM     18  C   UNL     1       5.777  -1.798   4.659  0.00  0.00    +0.078 C 
ATOM     19  C   UNL     1       4.859  -0.664   5.120  0.00  0.00    +0.032 C 
ATOM     20  C   UNL     1       5.298   0.646   4.448  0.00  0.00    +0.110 C 
ATOM     21  H   UNL     1       5.094   0.272   0.480  0.00  0.00    +0.151 HD
BRANCH  18  22
ATOM     22  C   UNL     1       5.374  -3.079   5.344  0.00  0.00    +0.214 C 
ATOM     23  O   UNL     1       5.025  -4.035   4.685  0.00  0.00    -0.276 OA
ATOM     24  N   UNL     1       5.402  -3.162   6.689  0.00  0.00    -0.329 N 
ATOM     25  H   UNL     1       5.681  -2.397   7.216  0.00  0.00    +0.145 HD
ATOM     26  H   UNL     1       5.142  -3.986   7.130  0.00  0.00    +0.145 HD
ENDBRANCH  18  22
ENDBRANCH   1  12
BRANCH   1  29
ATOM     27  C   UNL     1      -0.018   1.347   0.013  0.00  0.00    +0.008 A 
ATOM     28  C   UNL     1       1.181   2.035   0.004  0.00  0.00    +0.013 A 
ATOM     29  C   UNL     1       2.341   1.333  -0.011  0.00  0.00    +0.014 A 
ATOM     30  S   UNL     1       1.753  -0.352  -0.014  0.00  0.00    -0.099 S 
ATOM     31  C   UNL     1       0.001  -0.008   0.006  0.00  0.00    +0.045 A 
ENDBRANCH   1  29
TORSDOF 4
