REMARK  Name = ZINC12531504
REMARK  14 active torsions:
REMARK  status: ('A' for Active; 'I' for Inactive)
REMARK    1  A    between atoms: C_1  and  C_2
REMARK    2  A    between atoms: C_2  and  C_3
REMARK    3  A    between atoms: C_2  and  N_75
REMARK    4  A    between atoms: C_4  and  N_75
REMARK    5  A    between atoms: C_7  and  C_34
REMARK    6  A    between atoms: C_7  and  C_35
REMARK    7  A    between atoms: C_10  and  C_17
REMARK    8  A    between atoms: C_13  and  C_15
REMARK    9  A    between atoms: C_13  and  O_16
REMARK   10  A    between atoms: C_17  and  C_18
REMARK   11  A    between atoms: C_18  and  C_19
REMARK   12  A    between atoms: N_21  and  C_22
REMARK   13  A    between atoms: C_22  and  C_23
REMARK   14  A    between atoms: C_23  and  C_24
REMARK                            x       y       z     vdW  Elec       q    Type
REMARK                         _______ _______ _______ _____ _____    ______ ____
ROOT
ATOM      1  C   UNL     1      -0.635   3.468  -6.306  0.00  0.00    -0.064 C 
ATOM      2  C   UNL     1       0.853   3.354  -6.647  0.00  0.00    -0.009 C 
ATOM      3  C   UNL     1       1.056   1.946  -7.238  0.00  0.00    -0.033 C 
ATOM      4  C   UNL     1      -0.345   1.279  -7.268  0.00  0.00    +0.002 C 
ATOM      5  C   UNL     1      -1.098   2.009  -6.141  0.00  0.00    -0.038 C 
ATOM      6  C   UNL     1      -2.599   1.864  -6.227  0.00  0.00    +0.008 C 
ATOM      7  C   UNL     1      -3.119   2.235  -7.616  0.00  0.00    +0.035 C 
ATOM      8  C   UNL     1      -2.446   1.315  -8.641  0.00  0.00    +0.064 C 
ATOM      9  C   UNL     1      -0.945   1.589  -8.627  0.00  0.00    +0.039 C 
ATOM     10  C   UNL     1      -3.008   1.603 -10.035  0.00  0.00    +0.041 C 
ATOM     11  C   UNL     1       2.005   1.137  -6.353  0.00  0.00    +0.011 C 
ATOM     12  C   UNL     1       1.619   2.049  -8.657  0.00  0.00    +0.011 C 
ENDROOT
BRANCH   1  13
ATOM     13  N   UNL     1      -0.804   4.206  -5.041  0.00  0.00    +0.383 N 
ATOM     14  H   UNL     1      -1.600   3.814  -4.524  0.00  0.00    -0.085 HD
ATOM     15  H   UNL     1       0.049   4.113  -4.477  0.00  0.00    -0.085 HD
BRANCH  13  17
ATOM     16  C   UNL     1      -1.818   6.242  -4.131  0.00  0.00    -0.014 C 
ATOM     17  C   UNL     1      -1.055   5.635  -5.310  0.00  0.00    -0.078 C 
ATOM     18  C   UNL     1       0.279   6.364  -5.484  0.00  0.00    -0.014 C 
ENDBRANCH  13  17
ENDBRANCH   1  13
BRANCH   8  19
ATOM     19  O   UNL     1      -2.693  -0.050  -8.297  0.00  0.00    -0.389 OA
ATOM     20  H   UNL     1      -3.630  -0.286  -8.274  0.00  0.00    +0.210 HD
ENDBRANCH   8  19
BRANCH   5  21
ATOM     21  C   UNL     1      -0.617   1.479  -4.789  0.00  0.00    +0.015 C 
BRANCH  21  22
ATOM     22  C   UNL     1      -0.848  -0.032  -4.722  0.00  0.00    +0.096 C 
BRANCH  22  23
ATOM     23  C   UNL     1      -0.494  -0.534  -3.346  0.00  0.00    +0.213 C 
ATOM     24  O   UNL     1      -0.096   0.241  -2.502  0.00  0.00    -0.276 OA
ATOM     25  N   UNL     1      -0.619  -1.844  -3.054  0.00  0.00    -0.315 N 
ATOM     26  H   UNL     1      -0.937  -2.463  -3.729  0.00  0.00    +0.149 HD
BRANCH  25  27
ATOM     27  C   UNL     1      -0.274  -2.332  -1.716  0.00  0.00    +0.109 C 
BRANCH  27  28
ATOM     28  C   UNL     1      -0.505  -3.843  -1.649  0.00  0.00    +0.056 C 
BRANCH  28  29
ATOM     29  C   UNL     1      -0.151  -4.345  -0.273  0.00  0.00    -0.021 A 
ATOM     30  C   UNL     1       1.024  -4.872   0.107  0.00  0.00    +0.087 A 
ATOM     31  N   UNL     1       0.977  -5.211   1.431  0.00  0.00    -0.360 N 
ATOM     32  H   UNL     1       1.707  -5.607   1.932  0.00  0.00    +0.165 HD
ATOM     33  C   UNL     1      -0.265  -4.911   1.947  0.00  0.00    +0.047 A 
ATOM     34  C   UNL     1      -1.025  -4.356   0.902  0.00  0.00    +0.003 A 
ATOM     35  C   UNL     1      -2.341  -3.953   1.136  0.00  0.00    +0.010 A 
ATOM     36  C   UNL     1      -2.884  -4.101   2.381  0.00  0.00    +0.001 A 
ATOM     37  C   UNL     1      -2.139  -4.649   3.416  0.00  0.00    +0.002 A 
ATOM     38  C   UNL     1      -0.838  -5.053   3.206  0.00  0.00    +0.026 A 
ENDBRANCH  28  29
ENDBRANCH  27  28
ENDBRANCH  25  27
ENDBRANCH  22  23
ENDBRANCH  21  22
ENDBRANCH   5  21
TORSDOF 9
