REMARK  Name = ZINC39931418
REMARK  7 active torsions:
REMARK  status: ('A' for Active; 'I' for Inactive)
REMARK    1  A    between atoms: C_1  and  C_2
REMARK    2  A    between atoms: N_8  and  N_9
REMARK    3  A    between atoms: N_9  and  S_10
REMARK    4  A    between atoms: S_10  and  C_13
REMARK    5  A    between atoms: C_20  and  O_30
REMARK    6  A    between atoms: C_22  and  C_29
REMARK    7  A    between atoms: C_25  and  C_28
REMARK                            x       y       z     vdW  Elec       q    Type
REMARK                         _______ _______ _______ _____ _____    ______ ____
ROOT
ATOM      1  C   UNL     1      -0.072   1.479  -0.278  0.00  0.00    +0.008 C 
ATOM      2  C   UNL     1      -0.042  -0.049  -0.212  0.00  0.00    -0.004 C 
ATOM      3  C   UNL     1      -1.465  -0.586  -0.137  0.00  0.00    +0.034 C 
ATOM      4  C   UNL     1      -1.490  -2.088   0.050  0.00  0.00    -0.061 C 
ATOM      5  C   UNL     1      -0.478  -2.731   0.606  0.00  0.00    +0.006 C 
ATOM      6  C   UNL     1       0.741  -2.007   1.025  0.00  0.00    +0.067 C 
ATOM      7  N   UNL     1       1.813  -2.658   1.367  0.00  0.00    -0.171 NA
ATOM      8  C   UNL     1       0.720  -0.497   1.045  0.00  0.00    +0.061 C 
ATOM      9  C   UNL     1      -0.498  -4.219   0.874  0.00  0.00    +0.093 C 
ATOM     10  C   UNL     1      -1.006  -4.426   2.309  0.00  0.00    +0.043 C 
ATOM     11  C   UNL     1      -2.348  -3.699   2.448  0.00  0.00    -0.011 C 
ATOM     12  C   UNL     1      -3.352  -4.298   1.463  0.00  0.00    +0.010 C 
ATOM     13  C   UNL     1      -2.827  -4.223   0.038  0.00  0.00    -0.025 C 
ATOM     14  C   UNL     1      -2.724  -2.794  -0.459  0.00  0.00    +0.038 C 
ATOM     15  C   UNL     1      -1.467  -4.911  -0.086  0.00  0.00    +0.046 C 
ATOM     16  C   UNL     1      -3.805  -4.972  -0.869  0.00  0.00    +0.011 C 
ATOM     17  C   UNL     1      -2.873  -3.863   3.876  0.00  0.00    +0.007 C 
ENDROOT
BRANCH   7  18
ATOM     18  N   UNL     1       2.960  -1.958   1.762  0.00  0.00    -0.136 N 
ATOM     19  H   UNL     1       2.954  -0.988   1.780  0.00  0.00    +0.197 HD
BRANCH  18  20
ATOM     20  S   UNL     1       4.326  -2.786   2.198  0.00  0.00    +0.086 S 
ATOM     21  O   UNL     1       5.343  -1.814   2.402  0.00  0.00    -0.149 OA
ATOM     22  O   UNL     1       3.938  -3.706   3.209  0.00  0.00    -0.149 OA
BRANCH  20  23
ATOM     23  C   UNL     1       4.820  -3.746   0.805  0.00  0.00    +0.110 A 
ATOM     24  C   UNL     1       4.334  -5.030   0.644  0.00  0.00    +0.029 A 
ATOM     25  C   UNL     1       4.721  -5.784  -0.448  0.00  0.00    +0.002 A 
ATOM     26  C   UNL     1       5.593  -5.253  -1.379  0.00  0.00    +0.000 A 
ATOM     27  C   UNL     1       6.079  -3.969  -1.219  0.00  0.00    +0.002 A 
ATOM     28  C   UNL     1       5.688  -3.214  -0.129  0.00  0.00    +0.029 A 
ENDBRANCH  20  23
ENDBRANCH  18  20
ENDBRANCH   7  18
BRANCH   9  29
ATOM     29  O   UNL     1       0.815  -4.763   0.720  0.00  0.00    -0.384 OA
ATOM     30  H   UNL     1       0.873  -5.709   0.908  0.00  0.00    +0.211 HD
ENDBRANCH   9  29
TORSDOF 4
