REMARK  Name = ZINC15969558
REMARK  6 active torsions:
REMARK  status: ('A' for Active; 'I' for Inactive)
REMARK    1  A    between atoms: C_1  and  C_2
REMARK    2  A    between atoms: C_2  and  C_3
REMARK    3  A    between atoms: C_2  and  C_4
REMARK    4  A    between atoms: N_12  and  C_15
REMARK    5  A    between atoms: C_15  and  C_16
REMARK    6  A    between atoms: C_16  and  C_17
REMARK                            x       y       z     vdW  Elec       q    Type
REMARK                         _______ _______ _______ _____ _____    ______ ____
ROOT
ATOM      1  C   UNL     1       0.734  -0.535   1.236  0.00  0.00    +0.070 C 
ATOM      2  C   UNL     1       0.896  -2.067   1.146  0.00  0.00    +0.107 C 
ATOM      3  C   UNL     1       2.303  -2.356   1.740  0.00  0.00    +0.122 C 
ATOM      4  C   UNL     1       3.074  -2.899   0.558  0.00  0.00    +0.228 C 
ATOM      5  O   UNL     1       4.231  -3.262   0.583  0.00  0.00    -0.275 OA
ATOM      6  N   UNL     1       2.282  -2.918  -0.520  0.00  0.00    -0.241 N 
ATOM      7  C   UNL     1       1.023  -2.472  -0.305  0.00  0.00    +0.227 C 
ATOM      8  O   UNL     1       0.139  -2.402  -1.131  0.00  0.00    -0.275 OA
ATOM      9  C   UNL     1       2.845  -0.977   2.136  0.00  0.00    +0.136 C 
ATOM     10  N   UNL     1       2.122  -0.004   1.282  0.00  0.00    -0.295 NA
ATOM     11  C   UNL     1       2.647  -0.708   3.601  0.00  0.00    +0.003 A 
ATOM     12  C   UNL     1       1.535  -0.647   4.412  0.00  0.00    +0.008 A 
ATOM     13  C   UNL     1       1.676  -0.371   5.760  0.00  0.00    +0.000 A 
ATOM     14  C   UNL     1       2.936  -0.157   6.290  0.00  0.00    +0.002 A 
ATOM     15  C   UNL     1       4.052  -0.216   5.481  0.00  0.00    +0.023 A 
ATOM     16  C   UNL     1       3.918  -0.493   4.123  0.00  0.00    +0.039 A 
ATOM     17  N   UNL     1       4.879  -0.603   3.115  0.00  0.00    -0.283 N 
ATOM     18  C   UNL     1       4.330  -0.885   1.918  0.00  0.00    +0.243 C 
ATOM     19  O   UNL     1       4.919  -1.036   0.868  0.00  0.00    -0.273 OA
ATOM     20  H   UNL     1       2.522   0.045   0.357  0.00  0.00    +0.124 HD
ATOM     21  H   UNL     1       5.832  -0.490   3.261  0.00  0.00    +0.155 HD
ENDROOT
BRANCH   1  23
ATOM     22  C   UNL     1      -1.459  -0.458   0.041  0.00  0.00    +0.009 C 
ATOM     23  C   UNL     1       0.002  -0.004   0.002  0.00  0.00    +0.001 C 
ATOM     24  C   UNL     1       0.061   1.525  -0.007  0.00  0.00    +0.009 C 
ENDBRANCH   1  23
BRANCH   6  25
ATOM     25  C   UNL     1       2.737  -3.391  -1.829  0.00  0.00    +0.121 C 
BRANCH  25  26
ATOM     26  C   UNL     1       2.472  -4.893  -1.950  0.00  0.00    +0.054 C 
BRANCH  26  27
ATOM     27  C   UNL     1       2.940  -5.379  -3.298  0.00  0.00    -0.046 A 
ATOM     28  C   UNL     1       2.074  -5.368  -4.375  0.00  0.00    +0.004 A 
ATOM     29  C   UNL     1       2.504  -5.814  -5.611  0.00  0.00    +0.000 A 
ATOM     30  C   UNL     1       3.799  -6.270  -5.770  0.00  0.00    +0.000 A 
ATOM     31  C   UNL     1       4.665  -6.280  -4.692  0.00  0.00    +0.000 A 
ATOM     32  C   UNL     1       4.237  -5.830  -3.457  0.00  0.00    +0.004 A 
ENDBRANCH  26  27
ENDBRANCH  25  26
ENDBRANCH   6  25
TORSDOF 4
