REMARK  Name = ZINC33412527
REMARK  7 active torsions:
REMARK  status: ('A' for Active; 'I' for Inactive)
REMARK    1  A    between atoms: C_1  and  C_2
REMARK    2  A    between atoms: C_8  and  C_26
REMARK    3  A    between atoms: C_10  and  C_15
REMARK    4  A    between atoms: C_15  and  C_17
REMARK    5  A    between atoms: C_29  and  O_32
REMARK    6  A    between atoms: O_32  and  C_33
REMARK    7  A    between atoms: C_33  and  C_34
REMARK                            x       y       z     vdW  Elec       q    Type
REMARK                         _______ _______ _______ _____ _____    ______ ____
ROOT
ATOM      1  C   UNL     1      12.044   0.844  -0.988  0.00  0.00    +0.075 C 
ATOM      2  C   UNL     1      10.722   0.149  -0.789  0.00  0.00    +0.101 A 
ATOM      3  N   UNL     1       9.518   0.654  -0.602  0.00  0.00    -0.145 NA
ATOM      4  N   UNL     1       8.499  -0.074  -0.456  0.00  0.00    -0.125 NA
ATOM      5  C   UNL     1       8.578  -1.398  -0.469  0.00  0.00    +0.191 A 
ATOM      6  S   UNL     1      10.337  -1.599  -0.739  0.00  0.00    -0.035 S 
ATOM      7  N   UNL     1       7.582  -2.354  -0.322  0.00  0.00    -0.230 N 
ATOM      8  C   UNL     1       6.156  -2.089  -0.102  0.00  0.00    +0.152 C 
ATOM      9  C   UNL     1       5.486  -3.440  -0.008  0.00  0.00    +0.080 C 
ATOM     10  C   UNL     1       6.460  -4.369  -0.156  0.00  0.00    +0.250 C 
ATOM     11  C   UNL     1       7.754  -3.688  -0.356  0.00  0.00    +0.293 C 
ATOM     12  O   UNL     1       8.819  -4.250  -0.522  0.00  0.00    -0.266 OA
ATOM     13  O   UNL     1       6.275  -5.710  -0.128  0.00  0.00    -0.282 OA
ENDROOT
BRANCH   8  14
ATOM     14  C   UNL     1       5.961  -1.323   1.181  0.00  0.00    -0.022 A 
ATOM     15  C   UNL     1       6.664  -1.686   2.315  0.00  0.00    +0.009 A 
ATOM     16  C   UNL     1       6.492  -0.982   3.491  0.00  0.00    +0.046 A 
ATOM     17  C   UNL     1       5.605   0.083   3.537  0.00  0.00    +0.121 A 
ATOM     18  C   UNL     1       4.897   0.443   2.399  0.00  0.00    +0.046 A 
ATOM     19  C   UNL     1       5.077  -0.261   1.224  0.00  0.00    +0.009 A 
BRANCH  17  20
ATOM     20  O   UNL     1       5.430   0.774   4.694  0.00  0.00    -0.488 OA
BRANCH  20  21
ATOM     21  C   UNL     1       6.192   0.348   5.825  0.00  0.00    +0.256 C 
BRANCH  21  22
ATOM     22  C   UNL     1       5.868   1.225   7.007  0.00  0.00    +0.006 C 
ATOM     23  C   UNL     1       5.652   0.687   8.182  0.00  0.00    +0.007 C 
ENDBRANCH  21  22
ENDBRANCH  20  21
ENDBRANCH  17  20
ENDBRANCH   8  14
BRANCH   9  24
ATOM     24  C   UNL     1       4.058  -3.695   0.209  0.00  0.00    +0.230 C 
ATOM     25  O   UNL     1       3.684  -4.226   1.240  0.00  0.00    -0.283 OA
BRANCH  24  26
ATOM     26  C   UNL     1       3.079  -3.311  -0.817  0.00  0.00    +0.176 A 
ATOM     27  C   UNL     1       1.747  -3.585  -0.769  0.00  0.00    +0.061 A 
ATOM     28  C   UNL     1       1.175  -3.019  -1.989  0.00  0.00    +0.021 A 
ATOM     29  C   UNL     1      -0.115  -2.963  -2.525  0.00  0.00    +0.011 A 
ATOM     30  C   UNL     1      -0.324  -2.342  -3.724  0.00  0.00    +0.001 A 
ATOM     31  C   UNL     1       0.736  -1.766  -4.412  0.00  0.00    +0.004 A 
ATOM     32  C   UNL     1       2.015  -1.810  -3.900  0.00  0.00    +0.047 A 
ATOM     33  C   UNL     1       2.253  -2.437  -2.683  0.00  0.00    +0.136 A 
ATOM     34  O   UNL     1       3.365  -2.635  -1.948  0.00  0.00    -0.452 OA
ENDBRANCH  24  26
ENDBRANCH   9  24
TORSDOF 6
