REMARK  Name = ZINC03978499
REMARK  11 active torsions:
REMARK  status: ('A' for Active; 'I' for Inactive)
REMARK    1  A    between atoms: C_1  and  C_2
REMARK    2  A    between atoms: C_2  and  C_32
REMARK    3  A    between atoms: C_9  and  C_13
REMARK    4  A    between atoms: C_10  and  O_11
REMARK    5  A    between atoms: O_11  and  C_12
REMARK    6  A    between atoms: C_13  and  C_14
REMARK    7  A    between atoms: C_14  and  C_16
REMARK    8  A    between atoms: C_21  and  O_22
REMARK    9  A    between atoms: C_24  and  C_29
REMARK   10  A    between atoms: C_24  and  C_30
REMARK   11  A    between atoms: C_25  and  O_28
REMARK                            x       y       z     vdW  Elec       q    Type
REMARK                         _______ _______ _______ _____ _____    ______ ____
ROOT
ATOM      1  C   UNL     1       0.572  -6.777   1.077  0.00  0.00    +0.171 C 
ATOM      2  O   UNL     1       0.887  -6.209   0.052  0.00  0.00    -0.292 OA
ENDROOT
BRANCH   1   3
ATOM      3  C   UNL     1       0.528  -8.241   1.119  0.00  0.00    +0.060 A 
ATOM      4  C   UNL     1       0.160  -8.901   2.297  0.00  0.00    +0.022 A 
ATOM      5  C   UNL     1       0.116 -10.268   2.340  0.00  0.00    -0.002 A 
ATOM      6  C   UNL     1       0.434 -11.014   1.211  0.00  0.00    +0.128 A 
ATOM      7  C   UNL     1       0.806 -10.373   0.033  0.00  0.00    +0.092 A 
ATOM      8  C   UNL     1       0.850  -8.992  -0.026  0.00  0.00    +0.131 A 
ATOM      9  O   UNL     1       0.389 -12.370   1.216  0.00  0.00    -0.483 OA
ATOM     10  C   UNL     1       0.379 -13.034   2.481  0.00  0.00    +0.131 C 
ATOM     11  C   UNL     1      -0.696 -12.383   3.360  0.00  0.00    +0.162 C 
ATOM     12  C   UNL     1      -0.282 -10.935   3.633  0.00  0.00    +0.074 C 
ATOM     13  C   UNL     1       1.748 -12.890   3.149  0.00  0.00    +0.058 C 
ATOM     14  C   UNL     1       0.055 -14.516   2.283  0.00  0.00    +0.058 C 
BRANCH   8  15
ATOM     15  O   UNL     1       1.206  -8.368  -1.175  0.00  0.00    -0.506 OA
ATOM     16  H   UNL     1       2.156  -8.207  -1.258  0.00  0.00    +0.292 HD
ENDBRANCH   8  15
BRANCH  11  17
ATOM     17  O   UNL     1      -1.953 -12.406   2.681  0.00  0.00    -0.388 OA
ATOM     18  H   UNL     1      -2.678 -12.009   3.182  0.00  0.00    +0.210 HD
ENDBRANCH  11  17
ENDBRANCH   1   3
BRANCH   1  19
ATOM     19  C   UNL     1       0.226  -5.977   2.306  0.00  0.00    +0.118 C 
BRANCH  19  28
ATOM     20  C   UNL     1      -0.019   1.526   0.010  0.00  0.00    +0.060 C 
ATOM     21  C   UNL     1       0.002  -0.004   0.002  0.00  0.00    +0.124 C 
ATOM     22  C   UNL     1      -1.413  -0.520  -0.014  0.00  0.00    +0.020 C 
ATOM     23  C   UNL     1      -1.696  -1.704   0.525  0.00  0.00    +0.015 C 
ATOM     24  C   UNL     1      -0.592  -2.470   1.141  0.00  0.00    +0.058 A 
ATOM     25  C   UNL     1       0.600  -1.796   1.444  0.00  0.00    +0.132 A 
ATOM     26  C   UNL     1       1.650  -2.486   2.020  0.00  0.00    +0.047 A 
ATOM     27  C   UNL     1       1.521  -3.837   2.295  0.00  0.00    +0.011 A 
ATOM     28  C   UNL     1       0.349  -4.507   1.999  0.00  0.00    +0.003 A 
ATOM     29  C   UNL     1      -0.715  -3.830   1.420  0.00  0.00    +0.134 A 
ATOM     30  O   UNL     1       0.694  -0.472   1.161  0.00  0.00    -0.482 OA
ATOM     31  C   UNL     1       0.731  -0.492  -1.252  0.00  0.00    +0.060 C 
BRANCH  29  32
ATOM     32  O   UNL     1      -1.868  -4.488   1.128  0.00  0.00    -0.494 OA
ATOM     33  C   UNL     1      -1.967  -5.080  -0.168  0.00  0.00    +0.277 C 
ENDBRANCH  29  32
ENDBRANCH  19  28
ENDBRANCH   1  19
TORSDOF 6
