REMARK  Name = ZINC16530734
REMARK  11 active torsions:
REMARK  status: ('A' for Active; 'I' for Inactive)
REMARK    1  A    between atoms: C_1  and  C_2
REMARK    2  A    between atoms: C_2  and  C_3
REMARK    3  A    between atoms: C_3  and  C_4
REMARK    4  A    between atoms: C_4  and  C_5
REMARK    5  A    between atoms: C_5  and  N_6
REMARK    6  A    between atoms: N_6  and  C_7
REMARK    7  A    between atoms: C_7  and  C_8
REMARK    8  A    between atoms: C_18  and  C_20
REMARK    9  A    between atoms: C_28  and  C_30
REMARK   10  A    between atoms: C_30  and  O_31
REMARK   11  A    between atoms: O_31  and  C_32
REMARK                            x       y       z     vdW  Elec       q    Type
REMARK                         _______ _______ _______ _____ _____    ______ ____
ROOT
ATOM      1  C   UNL     1       3.243  -0.193   1.187  0.00  0.00    +0.234 C 
ATOM      2  O   UNL     1       4.056   0.503   1.757  0.00  0.00    -0.274 OA
ATOM      3  N   UNL     1       2.405   0.352   0.283  0.00  0.00    -0.289 N 
ATOM      4  C   UNL     1       1.415  -0.482  -0.414  0.00  0.00    +0.114 C 
ATOM      5  C   UNL     1       0.012  -0.017   0.004  0.00  0.00    +0.062 C 
ATOM      6  C   UNL     1      -0.017   1.477   0.009  0.00  0.00    -0.003 A 
ATOM      7  C   UNL     1       1.041   2.333   0.002  0.00  0.00    -0.012 A 
ATOM      8  C   UNL     1       0.743   3.695   0.015  0.00  0.00    +0.013 A 
ATOM      9  C   UNL     1      -0.546   4.106   0.027  0.00  0.00    +0.046 A 
ATOM     10  S   UNL     1      -1.427   2.552   0.032  0.00  0.00    -0.101 S 
ATOM     11  C   UNL     1       2.468   1.789  -0.020  0.00  0.00    +0.139 C 
ENDROOT
BRANCH  11  12
ATOM     12  C   UNL     1       3.074   1.997  -1.384  0.00  0.00    -0.004 A 
ATOM     13  C   UNL     1       2.258   2.249  -2.471  0.00  0.00    +0.008 A 
ATOM     14  C   UNL     1       2.813   2.446  -3.721  0.00  0.00    +0.020 A 
ATOM     15  C   UNL     1       4.185   2.378  -3.888  0.00  0.00    +0.042 A 
ATOM     16  C   UNL     1       5.001   2.120  -2.802  0.00  0.00    +0.040 A 
ATOM     17  C   UNL     1       4.445   1.929  -1.549  0.00  0.00    +0.048 A 
ATOM     18 CL   UNL     1       5.469   1.604  -0.185  0.00  0.00    -0.083 Cl
ATOM     19 CL   UNL     1       4.882   2.619  -5.460  0.00  0.00    -0.083 Cl
ENDBRANCH  11  12
BRANCH   1  20
ATOM     20  C   UNL     1       3.170  -1.667   1.489  0.00  0.00    +0.203 C 
BRANCH  20  21
ATOM     21  N   UNL     1       4.177  -2.010   2.496  0.00  0.00    -0.291 N 
ATOM     22  C   UNL     1       3.865  -1.956   3.806  0.00  0.00    +0.242 C 
ATOM     23  O   UNL     1       2.751  -1.623   4.151  0.00  0.00    -0.273 OA
BRANCH  21  24
ATOM     24  C   UNL     1       5.523  -2.412   2.080  0.00  0.00    +0.108 C 
BRANCH  24  25
ATOM     25  C   UNL     1       6.416  -1.174   1.979  0.00  0.00    +0.019 C 
BRANCH  25  26
ATOM     26  C   UNL     1       7.822  -1.593   1.544  0.00  0.00    +0.001 C 
BRANCH  26  28
ATOM     27  C   UNL     1      10.121  -0.775   1.008  0.00  0.00    +0.004 C 
ATOM     28  C   UNL     1       8.715  -0.355   1.443  0.00  0.00    -0.003 C 
ENDBRANCH  26  28
ENDBRANCH  25  26
ENDBRANCH  24  25
ENDBRANCH  21  24
BRANCH  22  29
ATOM     29  C   UNL     1       4.901  -2.308   4.843  0.00  0.00    +0.255 C 
BRANCH  29  30
ATOM     30  O   UNL     1       4.333  -2.175   6.148  0.00  0.00    -0.374 OA
ATOM     31  C   UNL     1       5.237  -2.488   7.209  0.00  0.00    +0.194 C 
ENDBRANCH  29  30
ENDBRANCH  22  29
ENDBRANCH  20  21
ENDBRANCH   1  20
TORSDOF 9
