REMARK  Name = ZINC23653422
REMARK  9 active torsions:
REMARK  status: ('A' for Active; 'I' for Inactive)
REMARK    1  A    between atoms: C_1  and  C_2
REMARK    2  A    between atoms: C_4  and  N_11
REMARK    3  A    between atoms: C_6  and  C_8
REMARK    4  A    between atoms: C_8  and  C_9
REMARK    5  A    between atoms: C_8  and  C_10
REMARK    6  A    between atoms: N_14  and  C_17
REMARK    7  A    between atoms: C_17  and  N_18
REMARK    8  A    between atoms: C_21  and  C_25
REMARK    9  A    between atoms: C_21  and  C_26
REMARK                            x       y       z     vdW  Elec       q    Type
REMARK                         _______ _______ _______ _____ _____    ______ ____
ROOT
ATOM      1  N   UNL     1      -3.493  -1.525  -3.473  0.00  0.00    -0.313 N 
ATOM      2  C   UNL     1      -2.729  -2.652  -2.920  0.00  0.00    +0.122 C 
ATOM      3  C   UNL     1      -2.386  -2.363  -1.457  0.00  0.00    +0.105 C 
ATOM      4  N   UNL     1      -1.613  -1.116  -1.375  0.00  0.00    -0.283 NA
ATOM      5  C   UNL     1      -2.376   0.011  -1.928  0.00  0.00    +0.105 C 
ATOM      6  C   UNL     1      -2.720  -0.278  -3.391  0.00  0.00    +0.122 C 
ENDROOT
BRANCH   1  10
ATOM      7  C   UNL     1      -5.786  -0.160  -7.609  0.00  0.00    +0.063 C 
ATOM      8  C   UNL     1      -4.987  -1.143  -6.792  0.00  0.00    +0.017 A 
ATOM      9  C   UNL     1      -4.622  -0.840  -5.495  0.00  0.00    +0.064 A 
ATOM     10  C   UNL     1      -3.883  -1.782  -4.777  0.00  0.00    +0.125 A 
ATOM     11  N   UNL     1      -3.555  -2.928  -5.367  0.00  0.00    -0.219 NA
ATOM     12  C   UNL     1      -3.929  -3.177  -6.606  0.00  0.00    +0.112 A 
ATOM     13  N   UNL     1      -4.627  -2.309  -7.310  0.00  0.00    -0.347 N 
ATOM     14  H   UNL     1      -4.910  -2.564  -8.341  0.00  0.00    +0.167 HD
BRANCH  12  15
ATOM     15  C   UNL     1      -3.542  -4.490  -7.237  0.00  0.00    +0.049 C 
ATOM     16  C   UNL     1      -4.806  -5.253  -7.642  0.00  0.00    +0.015 C 
ATOM     17  C   UNL     1      -2.686  -4.227  -8.477  0.00  0.00    +0.015 C 
ENDBRANCH  12  15
ENDBRANCH   1  10
BRANCH   4  18
ATOM     18  C   UNL     1      -1.199  -0.844   0.008  0.00  0.00    +0.205 C 
BRANCH  18  19
ATOM     19  N   UNL     1       0.002  -0.004   0.002  0.00  0.00    -0.211 N 
ATOM     20  C   UNL     1       1.261  -0.484  -0.013  0.00  0.00    +0.248 C 
ATOM     21  O   UNL     1       1.601  -1.648  -0.021  0.00  0.00    -0.273 OA
ATOM     22  C   UNL     1       2.164   0.734  -0.015  0.00  0.00    +0.113 C 
ATOM     23  N   UNL     1       1.220   1.865   0.000  0.00  0.00    -0.285 N 
ATOM     24  C   UNL     1      -0.016   1.334   0.009  0.00  0.00    +0.310 C 
ATOM     25  O   UNL     1      -1.035   1.996   0.018  0.00  0.00    -0.252 OA
ATOM     26  C   UNL     1       3.049   0.750   1.234  0.00  0.00    +0.042 C 
ATOM     27  H   UNL     1       1.599   2.897   0.002  0.00  0.00    +0.151 HD
BRANCH  22  28
ATOM     28  C   UNL     1       3.022   0.765  -1.281  0.00  0.00    +0.021 C 
ATOM     29  C   UNL     1       4.506   0.421  -1.138  0.00  0.00    +0.006 C 
ATOM     30  C   UNL     1       4.077   1.868  -1.392  0.00  0.00    +0.006 C 
ENDBRANCH  22  28
ENDBRANCH  18  19
ENDBRANCH   4  18
TORSDOF 5
