REMARK  Name = ZINC04976884
REMARK  6 active torsions:
REMARK  status: ('A' for Active; 'I' for Inactive)
REMARK    1  A    between atoms: C_1  and  C_2
REMARK    2  A    between atoms: C_11  and  O_13
REMARK    3  A    between atoms: C_14  and  C_22
REMARK    4  A    between atoms: C_16  and  C_20
REMARK    5  A    between atoms: C_17  and  N_19
REMARK    6  A    between atoms: C_26  and  O_28
REMARK                            x       y       z     vdW  Elec       q    Type
REMARK                         _______ _______ _______ _____ _____    ______ ____
ROOT
ATOM      1  C   UNL     1       1.049  -7.891  -1.949  0.00  0.00    +0.045 C 
ATOM      2  C   UNL     1       2.343  -7.195  -2.283  0.00  0.00    -0.029 A 
ATOM      3  C   UNL     1       3.447  -7.907  -2.633  0.00  0.00    +0.096 A 
ATOM      4  C   UNL     1       4.644  -7.232  -2.938  0.00  0.00    +0.337 A 
ATOM      5  O   UNL     1       5.625  -7.884  -3.250  0.00  0.00    -0.245 OA
ATOM      6  O   UNL     1       4.740  -5.897  -2.896  0.00  0.00    -0.422 OA
ATOM      7  C   UNL     1       3.663  -5.160  -2.554  0.00  0.00    +0.146 A 
ATOM      8  C   UNL     1       2.442  -5.780  -2.239  0.00  0.00    +0.063 A 
ATOM      9  C   UNL     1       1.324  -5.000  -1.882  0.00  0.00    +0.149 A 
ATOM     10  C   UNL     1       1.438  -3.626  -1.846  0.00  0.00    +0.050 A 
ATOM     11  C   UNL     1       2.651  -3.017  -2.159  0.00  0.00    +0.128 A 
ATOM     12  C   UNL     1       3.755  -3.777  -2.510  0.00  0.00    +0.093 A 
ATOM     13  C   UNL     1       0.257  -2.770  -1.469  0.00  0.00    +0.102 C 
ATOM     14  C   UNL     1      -1.013  -3.567  -1.571  0.00  0.00    +0.098 C 
ATOM     15  C   UNL     1      -0.995  -4.917  -1.621  0.00  0.00    +0.199 C 
ATOM     16  O   UNL     1       0.155  -5.611  -1.580  0.00  0.00    -0.440 OA
ENDROOT
BRANCH  13  17
ATOM     17  C   UNL     1       0.427  -2.281  -0.053  0.00  0.00    -0.031 A 
ATOM     18  C   UNL     1       0.522  -3.190   0.985  0.00  0.00    +0.005 A 
ATOM     19  C   UNL     1       0.677  -2.744   2.284  0.00  0.00    +0.004 A 
ATOM     20  C   UNL     1       0.738  -1.389   2.549  0.00  0.00    +0.045 A 
ATOM     21  C   UNL     1       0.644  -0.476   1.509  0.00  0.00    +0.117 A 
ATOM     22  C   UNL     1       0.482  -0.925   0.206  0.00  0.00    +0.050 A 
BRANCH  21  23
ATOM     23  O   UNL     1       0.703   0.857   1.767  0.00  0.00    -0.507 OA
ATOM     24  H   UNL     1       1.599   1.222   1.744  0.00  0.00    +0.292 HD
ENDBRANCH  21  23
ENDBRANCH  13  17
BRANCH  15  25
ATOM     25  N   UNL     1      -2.183  -5.599  -1.714  0.00  0.00    -0.328 N 
ATOM     26  H   UNL     1      -2.184  -6.568  -1.749  0.00  0.00    +0.145 HD
ATOM     27  H   UNL     1      -3.021  -5.111  -1.744  0.00  0.00    +0.145 HD
ENDBRANCH  15  25
BRANCH  11  28
ATOM     28  O   UNL     1       2.753  -1.664  -2.120  0.00  0.00    -0.506 OA
ATOM     29  H   UNL     1       3.023  -1.315  -1.260  0.00  0.00    +0.292 HD
ENDBRANCH  11  28
BRANCH  14  30
ATOM     30  C   UNL     1      -2.270  -2.883  -1.618  0.00  0.00    +0.101 C 
ATOM     31  N   UNL     1      -3.267  -2.341  -1.655  0.00  0.00    -0.191 NA
ENDBRANCH  14  30
TORSDOF 5
