REMARK  Name = ZINC63940980
REMARK  10 active torsions:
REMARK  status: ('A' for Active; 'I' for Inactive)
REMARK    1  A    between atoms: C_1  and  C_2
REMARK    2  A    between atoms: C_2  and  O_3
REMARK    3  A    between atoms: O_3  and  C_4
REMARK    4  A    between atoms: C_4  and  C_6
REMARK    5  A    between atoms: C_6  and  C_8
REMARK    6  A    between atoms: C_6  and  N_18
REMARK    7  A    between atoms: C_8  and  C_9
REMARK    8  A    between atoms: C_19  and  C_21
REMARK    9  A    between atoms: C_21  and  O_22
REMARK   10  A    between atoms: O_22  and  C_23
REMARK                            x       y       z     vdW  Elec       q    Type
REMARK                         _______ _______ _______ _____ _____    ______ ____
ROOT
ATOM      1  C   UNL     1       1.516  -2.381   2.500  0.00  0.00    +0.186 C 
ENDROOT
BRANCH   1   2
ATOM      2  N   UNL     1       1.497  -3.844   2.426  0.00  0.00    -0.299 N 
ATOM      3  C   UNL     1       0.435  -4.528   2.895  0.00  0.00    +0.251 C 
ATOM      4  O   UNL     1      -0.504  -3.933   3.379  0.00  0.00    -0.272 OA
ATOM      5  H   UNL     1       2.249  -4.319   2.039  0.00  0.00    +0.150 HD
BRANCH   3   6
ATOM      6  C   UNL     1       0.416  -6.033   2.819  0.00  0.00    +0.324 C 
BRANCH   6   7
ATOM      7  O   UNL     1      -0.806  -6.522   3.376  0.00  0.00    -0.481 OA
BRANCH   7   8
ATOM      8  C   UNL     1      -0.984  -7.870   3.385  0.00  0.00    +0.141 A 
ATOM      9  C   UNL     1      -0.001  -8.704   2.873  0.00  0.00    +0.067 A 
ATOM     10  C   UNL     1      -0.185 -10.074   2.884  0.00  0.00    +0.045 A 
ATOM     11  C   UNL     1      -1.348 -10.614   3.404  0.00  0.00    +0.021 A 
ATOM     12  C   UNL     1      -2.329  -9.784   3.914  0.00  0.00    +0.025 A 
ATOM     13  C   UNL     1      -2.148  -8.414   3.911  0.00  0.00    +0.083 A 
ATOM     14 CL   UNL     1      -3.378  -7.373   4.558  0.00  0.00    -0.080 Cl
ATOM     15 CL   UNL     1       1.045 -11.119   2.243  0.00  0.00    -0.083 Cl
ENDBRANCH   7   8
ENDBRANCH   6   7
ENDBRANCH   3   6
ENDBRANCH   1   2
BRANCH   1  16
ATOM     16  C   UNL     1       0.801  -1.808   1.304  0.00  0.00    +0.328 C 
ATOM     17  O   UNL     1       0.324  -2.546   0.475  0.00  0.00    -0.249 OA
BRANCH  16  18
ATOM     18  O   UNL     1       0.693  -0.477   1.160  0.00  0.00    -0.464 OA
BRANCH  18  20
ATOM     19  C   UNL     1      -0.019   1.526   0.010  0.00  0.00    +0.048 C 
ATOM     20  C   UNL     1       0.002  -0.004   0.002  0.00  0.00    +0.229 C 
ENDBRANCH  18  20
ENDBRANCH  16  18
ENDBRANCH   1  16
BRANCH   1  21
ATOM     21  C   UNL     1       2.965  -1.889   2.511  0.00  0.00    +0.067 C 
BRANCH  21  22
ATOM     22  C   UNL     1       3.646  -2.361   3.770  0.00  0.00    -0.039 C 
ATOM     23  C   UNL     1       4.406  -3.470   3.917  0.00  0.00    -0.001 A 
ATOM     24  C   UNL     1       4.810  -4.529   2.984  0.00  0.00    +0.010 A 
ATOM     25  C   UNL     1       5.594  -5.535   3.434  0.00  0.00    +0.001 A 
ATOM     26  C   UNL     1       6.029  -5.593   4.765  0.00  0.00    +0.002 A 
ATOM     27  C   UNL     1       5.699  -4.657   5.681  0.00  0.00    +0.026 A 
ATOM     28  C   UNL     1       4.879  -3.553   5.317  0.00  0.00    +0.043 A 
ATOM     29  N   UNL     1       4.428  -2.535   6.009  0.00  0.00    -0.380 N 
ATOM     30  C   UNL     1       3.623  -1.687   5.124  0.00  0.00    +0.144 C 
ATOM     31  H   UNL     1       4.601  -2.369   6.949  0.00  0.00    +0.160 HD
ENDBRANCH  21  22
ENDBRANCH   1  21
TORSDOF 9
