REMARK  Name = ZINC06380837
REMARK  10 active torsions:
REMARK  status: ('A' for Active; 'I' for Inactive)
REMARK    1  A    between atoms: C_1  and  C_2
REMARK    2  A    between atoms: C_2  and  O_3
REMARK    3  A    between atoms: O_3  and  C_4
REMARK    4  A    between atoms: C_6  and  C_11
REMARK    5  A    between atoms: C_9  and  O_10
REMARK    6  A    between atoms: C_14  and  C_25
REMARK    7  A    between atoms: C_20  and  N_24
REMARK    8  A    between atoms: C_21  and  C_22
REMARK    9  A    between atoms: C_25  and  C_26
REMARK   10  A    between atoms: C_25  and  C_27
REMARK                            x       y       z     vdW  Elec       q    Type
REMARK                         _______ _______ _______ _____ _____    ______ ____
ROOT
ATOM      1  C   UNL     1       1.227  -2.186  -0.021  0.00  0.00    +0.101 C 
ATOM      2  C   UNL     1       1.931  -2.679  -1.259  0.00  0.00    +0.050 A 
ATOM      3  C   UNL     1       1.499  -2.669  -2.579  0.00  0.00    +0.073 A 
ATOM      4  N   UNL     1       2.443  -3.200  -3.320  0.00  0.00    -0.175 NA
ATOM      5  N   UNL     1       3.510  -3.565  -2.485  0.00  0.00    -0.246 N 
ATOM      6  H   UNL     1       4.409  -4.032  -2.914  0.00  0.00    +0.192 HD
ATOM      7  C   UNL     1       3.177  -3.239  -1.226  0.00  0.00    +0.222 A 
ATOM      8  O   UNL     1       3.877  -3.399  -0.075  0.00  0.00    -0.423 OA
ATOM      9  C   UNL     1       3.212  -3.244   1.088  0.00  0.00    +0.200 C 
ATOM     10  C   UNL     1       1.982  -2.692   1.183  0.00  0.00    +0.098 C 
ENDROOT
BRANCH   1  13
ATOM     11  C   UNL     1      -0.017   1.381   0.010  0.00  0.00    +0.162 A 
ATOM     12  C   UNL     1       0.002  -0.004   0.002  0.00  0.00    +0.054 A 
ATOM     13  C   UNL     1       1.208  -0.679  -0.013  0.00  0.00    -0.031 A 
ATOM     14  C   UNL     1       2.398   0.026  -0.020  0.00  0.00    +0.008 A 
ATOM     15  C   UNL     1       2.386   1.408  -0.013  0.00  0.00    +0.049 A 
ATOM     16  C   UNL     1       1.181   2.091   0.002  0.00  0.00    +0.158 A 
BRANCH  16  17
ATOM     17  O   UNL     1       1.167   3.450   0.009  0.00  0.00    -0.503 OA
ATOM     18  H   UNL     1       2.115   4.010   0.003  0.00  0.00    +0.292 HD
ENDBRANCH  16  17
BRANCH  11  19
ATOM     19  O   UNL     1      -1.203   2.047   0.019  0.00  0.00    -0.489 OA
BRANCH  19  21
ATOM     20  C   UNL     1      -3.616   2.171   0.031  0.00  0.00    +0.048 C 
ATOM     21  C   UNL     1      -2.392   1.254   0.020  0.00  0.00    +0.226 C 
ENDBRANCH  19  21
ENDBRANCH  11  19
ENDBRANCH   1  13
BRANCH   9  22
ATOM     22  N   UNL     1       3.819  -3.672   2.242  0.00  0.00    -0.328 N 
ATOM     23  H   UNL     1       3.304  -3.561   3.208  0.00  0.00    +0.145 HD
ATOM     24  H   UNL     1       4.820  -4.126   2.201  0.00  0.00    +0.145 HD
ENDBRANCH   9  22
BRANCH   3  25
ATOM     25  C   UNL     1       0.177  -2.140  -3.074  0.00  0.00    +0.034 C 
ATOM     26  C   UNL     1       0.423  -1.009  -4.074  0.00  0.00    +0.014 C 
ATOM     27  C   UNL     1      -0.598  -3.267  -3.758  0.00  0.00    +0.014 C 
ENDBRANCH   3  25
BRANCH  10  28
ATOM     28  C   UNL     1       1.372  -2.584   2.474  0.00  0.00    +0.101 C 
ATOM     29  N   UNL     1       0.889  -2.498   3.498  0.00  0.00    -0.191 NA
ENDBRANCH  10  28
TORSDOF 7
