REMARK  Name = ZINC64215557
REMARK  8 active torsions:
REMARK  status: ('A' for Active; 'I' for Inactive)
REMARK    1  A    between atoms: C_1  and  C_2
REMARK    2  A    between atoms: C_5  and  C_30
REMARK    3  A    between atoms: C_6  and  C_8
REMARK    4  A    between atoms: C_8  and  C_9
REMARK    5  A    between atoms: N_11  and  C_12
REMARK    6  A    between atoms: C_12  and  C_13
REMARK    7  A    between atoms: C_13  and  C_15
REMARK    8  A    between atoms: C_13  and  C_21
REMARK                            x       y       z     vdW  Elec       q    Type
REMARK                         _______ _______ _______ _____ _____    ______ ____
ROOT
ATOM      1  C   UNL     1       1.235  -3.493   6.185  0.00  0.00    +0.116 C 
ENDROOT
BRANCH   1   4
ATOM      2  C   UNL     1       0.273  -2.709   4.088  0.00  0.00    +0.214 C 
ATOM      3  O   UNL     1       1.288  -3.060   3.525  0.00  0.00    -0.276 OA
ATOM      4  N   UNL     1       0.146  -2.882   5.419  0.00  0.00    -0.314 N 
ATOM      5  H   UNL     1      -0.666  -2.601   5.869  0.00  0.00    +0.149 HD
BRANCH   2   6
ATOM      6  C   UNL     1      -0.848  -2.081   3.300  0.00  0.00    +0.116 C 
BRANCH   6  11
ATOM      7  C   UNL     1      -0.019   1.526   0.010  0.00  0.00    +0.044 C 
ATOM      8  C   UNL     1       0.002  -0.004   0.002  0.00  0.00    +0.160 C 
ATOM      9  N   UNL     1      -1.361  -0.556   0.131  0.00  0.00    -0.272 NA
ATOM     10  C   UNL     1      -1.600  -1.487   0.970  0.00  0.00    +0.064 C 
ATOM     11  C   UNL     1      -0.451  -2.003   1.824  0.00  0.00    +0.106 C 
ATOM     12  S   UNL     1       0.793  -0.668   1.532  0.00  0.00    -0.124 S 
BRANCH  10  13
ATOM     13  C   UNL     1      -2.947  -2.045   1.108  0.00  0.00    +0.034 A 
ATOM     14  C   UNL     1      -4.105  -1.712   0.423  0.00  0.00    +0.017 A 
ATOM     15  C   UNL     1      -5.232  -2.419   0.776  0.00  0.00    +0.008 A 
ATOM     16  C   UNL     1      -5.140  -3.365   1.741  0.00  0.00    +0.046 A 
ATOM     17  S   UNL     1      -3.523  -3.334   2.196  0.00  0.00    -0.095 S 
ENDBRANCH  10  13
ENDBRANCH   6  11
ENDBRANCH   2   6
ENDBRANCH   1   4
BRANCH   1  18
ATOM     18  C   UNL     1       0.838  -3.571   7.661  0.00  0.00    +0.064 C 
BRANCH  18  19
ATOM     19  C   UNL     1       1.904  -4.309   8.429  0.00  0.00    -0.033 C 
ATOM     20  C   UNL     1       1.754  -5.455   9.132  0.00  0.00    -0.000 A 
ATOM     21  C   UNL     1       0.597  -6.322   9.384  0.00  0.00    +0.010 A 
ATOM     22  C   UNL     1       0.759  -7.427  10.147  0.00  0.00    +0.001 A 
ATOM     23  C   UNL     1       2.001  -7.764  10.702  0.00  0.00    +0.002 A 
ATOM     24  C   UNL     1       3.110  -7.017  10.515  0.00  0.00    +0.026 A 
ATOM     25  C   UNL     1       3.054  -5.832   9.729  0.00  0.00    +0.043 A 
ATOM     26  N   UNL     1       3.974  -4.955   9.407  0.00  0.00    -0.380 N 
ATOM     27  C   UNL     1       3.360  -3.923   8.563  0.00  0.00    +0.145 C 
ATOM     28  H   UNL     1       4.905  -4.985   9.678  0.00  0.00    +0.160 HD
ENDBRANCH  18  19
BRANCH  18  29
ATOM     29  C   UNL     1       0.693  -2.178   8.216  0.00  0.00    -0.039 A 
ATOM     30  C   UNL     1       1.770  -1.311   8.200  0.00  0.00    +0.004 A 
ATOM     31  C   UNL     1       1.636  -0.033   8.710  0.00  0.00    +0.000 A 
ATOM     32  C   UNL     1       0.426   0.379   9.235  0.00  0.00    +0.000 A 
ATOM     33  C   UNL     1      -0.652  -0.487   9.250  0.00  0.00    +0.000 A 
ATOM     34  C   UNL     1      -0.519  -1.764   8.737  0.00  0.00    +0.004 A 
ENDBRANCH  18  29
ENDBRANCH   1  18
TORSDOF 7
