REMARK  Name = ZINC19333155
REMARK  6 active torsions:
REMARK  status: ('A' for Active; 'I' for Inactive)
REMARK    1  A    between atoms: C_1  and  N_2
REMARK    2  A    between atoms: C_3  and  C_29
REMARK    3  A    between atoms: N_4  and  C_28
REMARK    4  A    between atoms: C_5  and  C_22
REMARK    5  A    between atoms: P_7  and  C_16
REMARK    6  A    between atoms: C_8  and  C_10
REMARK                            x       y       z     vdW  Elec       q    Type
REMARK                         _______ _______ _______ _____ _____    ______ ____
ROOT
ATOM      1  C   UNL     1      -1.317   0.894  -1.807  0.00  0.00    -0.092 C 
ATOM      2  N   UNL     1      -1.131   0.042  -0.625  0.00  0.00    +0.398 N 
ATOM      3  C   UNL     1      -1.381  -1.365  -0.948  0.00  0.00    +0.034 C 
ATOM      4  N   UNL     1      -1.646  -2.153   0.258  0.00  0.00    -0.304 NA
ATOM      5  C   UNL     1      -0.404  -2.408   1.013  0.00  0.00    +0.114 C 
ATOM      6  P   UNL     1       0.299  -0.782   1.481  0.00  0.00    -0.062 P 
ATOM      7  C   UNL     1       0.213   0.226  -0.047  0.00  0.00    -0.003 C 
ATOM      8  C   UNL     1      -2.327  -3.412  -0.075  0.00  0.00    +0.104 C 
ATOM      9  H   UNL     1      -1.873   0.344   0.129  0.00  0.00    -0.078 HD
ENDROOT
BRANCH   7  10
ATOM     10  C   UNL     1       0.433   1.679   0.286  0.00  0.00    -0.056 A 
ATOM     11  C   UNL     1      -0.624   2.455   0.725  0.00  0.00    +0.002 A 
ATOM     12  C   UNL     1      -0.422   3.787   1.035  0.00  0.00    +0.000 A 
ATOM     13  C   UNL     1       0.835   4.346   0.897  0.00  0.00    +0.000 A 
ATOM     14  C   UNL     1       1.891   3.571   0.453  0.00  0.00    +0.000 A 
ATOM     15  C   UNL     1       1.690   2.238   0.148  0.00  0.00    +0.002 A 
ENDBRANCH   7  10
BRANCH   6  16
ATOM     16  C   UNL     1       2.056  -1.049   1.843  0.00  0.00    -0.023 A 
ATOM     17  C   UNL     1       2.460  -1.399   3.130  0.00  0.00    +0.008 A 
ATOM     18  C   UNL     1       3.798  -1.605   3.399  0.00  0.00    +0.001 A 
ATOM     19  C   UNL     1       4.739  -1.455   2.395  0.00  0.00    +0.000 A 
ATOM     20  C   UNL     1       4.344  -1.102   1.117  0.00  0.00    +0.001 A 
ATOM     21  C   UNL     1       3.009  -0.898   0.836  0.00  0.00    +0.008 A 
ENDBRANCH   6  16
BRANCH   5  22
ATOM     22  C   UNL     1       0.575  -3.159   0.148  0.00  0.00    -0.026 A 
ATOM     23  C   UNL     1       0.239  -3.489  -1.151  0.00  0.00    +0.005 A 
ATOM     24  C   UNL     1       1.139  -4.174  -1.946  0.00  0.00    +0.000 A 
ATOM     25  C   UNL     1       2.372  -4.538  -1.438  0.00  0.00    +0.000 A 
ATOM     26  C   UNL     1       2.706  -4.214  -0.136  0.00  0.00    +0.000 A 
ATOM     27  C   UNL     1       1.808  -3.524   0.657  0.00  0.00    +0.005 A 
ENDBRANCH   5  22
BRANCH   3  28
ATOM     28  C   UNL     1      -2.571  -1.456  -1.868  0.00  0.00    -0.047 A 
ATOM     29  C   UNL     1      -3.822  -1.080  -1.418  0.00  0.00    +0.003 A 
ATOM     30  C   UNL     1      -4.913  -1.158  -2.263  0.00  0.00    +0.000 A 
ATOM     31  C   UNL     1      -4.754  -1.623  -3.555  0.00  0.00    +0.000 A 
ATOM     32  C   UNL     1      -3.503  -2.004  -4.004  0.00  0.00    +0.000 A 
ATOM     33  C   UNL     1      -2.412  -1.921  -3.160  0.00  0.00    +0.003 A 
ENDBRANCH   3  28
TORSDOF 4
