REMARK  Name = ZINC55163978
REMARK  2 active torsions:
REMARK  status: ('A' for Active; 'I' for Inactive)
REMARK    1  A    between atoms: C_8  and  N_11
REMARK    2  A    between atoms: C_12  and  C_14
REMARK                            x       y       z     vdW  Elec       q    Type
REMARK                         _______ _______ _______ _____ _____    ______ ____
ROOT
ATOM      1  N   UNL     1       2.886  -0.467   2.418  0.00  0.00    -0.303 N 
ATOM      2  C   UNL     1       4.174  -0.125   2.620  0.00  0.00    +0.284 C 
ATOM      3  O   UNL     1       4.747   0.587   1.819  0.00  0.00    -0.267 OA
ATOM      4  H   UNL     1       2.428  -1.034   3.057  0.00  0.00    +0.150 HD
ENDROOT
BRANCH   1  12
ATOM      5  C   UNL     1      -0.019   1.526   0.010  0.00  0.00    +0.007 C 
ATOM      6  C   UNL     1       1.417   2.055  -0.000  0.00  0.00    -0.008 C 
ATOM      7  C   UNL     1       2.133   1.562  -1.259  0.00  0.00    +0.007 C 
ATOM      8  C   UNL     1       2.154   0.032  -1.268  0.00  0.00    -0.008 C 
ATOM      9  C   UNL     1       0.718  -0.497  -1.257  0.00  0.00    +0.007 C 
ATOM     10  C   UNL     1       0.002  -0.004   0.002  0.00  0.00    -0.008 C 
ATOM     11  C   UNL     1       0.742  -0.511   1.242  0.00  0.00    +0.029 C 
ATOM     12  C   UNL     1       2.178   0.019   1.231  0.00  0.00    +0.036 C 
ATOM     13  C   UNL     1       2.157   1.548   1.239  0.00  0.00    +0.029 C 
ATOM     14  C   UNL     1       2.894  -0.475  -0.028  0.00  0.00    +0.029 C 
ENDBRANCH   1  12
BRANCH   2  15
ATOM     15  C   UNL     1       4.889  -0.614   3.818  0.00  0.00    +0.238 A 
ATOM     16  N   UNL     1       6.166  -0.340   4.133  0.00  0.00    -0.190 NA
ATOM     17  C   UNL     1       6.480  -0.933   5.261  0.00  0.00    +0.209 A 
ATOM     18  N   UNL     1       5.393  -1.610   5.697  0.00  0.00    -0.246 N 
ATOM     19  H   UNL     1       5.326  -2.143   6.504  0.00  0.00    +0.192 HD
ATOM     20  N   UNL     1       4.377  -1.386   4.753  0.00  0.00    -0.146 NA
ATOM     21  N   UNL     1       7.708  -0.877   5.893  0.00  0.00    -0.328 N 
ATOM     22  H   UNL     1       8.432  -0.363   5.502  0.00  0.00    +0.145 HD
ATOM     23  H   UNL     1       7.847  -1.351   6.728  0.00  0.00    +0.145 HD
ENDBRANCH   2  15
TORSDOF 2
