REMARK  Name = ZINC38595191
REMARK  1 active torsions:
REMARK  status: ('A' for Active; 'I' for Inactive)
REMARK    1  A    between atoms: C_3  and  C_11
REMARK                            x       y       z     vdW  Elec       q    Type
REMARK                         _______ _______ _______ _____ _____    ______ ____
ROOT
ATOM      1  C   UNL     1       3.695   2.245   0.287  0.00  0.00    +0.191 C 
ATOM      2  N   UNL     1       3.610   2.723   1.671  0.00  0.00    -0.304 N 
ATOM      3  C   UNL     1       3.172   3.960   1.957  0.00  0.00    +0.138 C 
ATOM      4  N   UNL     1       2.869   4.853   0.997  0.00  0.00    -0.270 N 
ATOM      5  C   UNL     1       3.007   4.492  -0.336  0.00  0.00    +0.180 C 
ATOM      6  N   UNL     1       3.841   3.409  -0.604  0.00  0.00    -0.295 N 
ATOM      7  N   UNL     1       2.390   5.132  -1.287  0.00  0.00    -0.272 NA
ATOM      8  S   UNL     1       2.993   4.415   3.598  0.00  0.00    -0.018 S 
ATOM      9  H   UNL     1       3.876   2.134   2.394  0.00  0.00    +0.150 HD
ATOM     10  H   UNL     1       2.506   4.858  -2.210  0.00  0.00    +0.189 HD
ATOM     11  H   UNL     1       4.482   3.419  -1.332  0.00  0.00    +0.151 HD
ATOM     12  H   UNL     1       2.556   5.740   1.234  0.00  0.00    +0.156 HD
ENDROOT
BRANCH   1  15
ATOM     13  C   UNL     1      -0.018   1.495   0.010  0.00  0.00    +0.004 C 
ATOM     14  C   UNL     1       1.143   2.159   0.003  0.00  0.00    +0.005 C 
ATOM     15  C   UNL     1       2.439   1.491  -0.066  0.00  0.00    -0.009 C 
ATOM     16  C   UNL     1       2.515   0.181  -0.451  0.00  0.00    +0.013 C 
ATOM     17  C   UNL     1       1.278  -0.441  -0.700  0.00  0.00    -0.018 C 
ATOM     18  C   UNL     1       0.899  -1.423  -1.534  0.00  0.00    +0.025 C 
ATOM     19  C   UNL     1      -0.512  -1.461  -1.601  0.00  0.00    +0.106 C 
ATOM     20  N   UNL     1      -1.065  -0.635  -0.759  0.00  0.00    -0.279 NA
ATOM     21  C   UNL     1       0.002  -0.004   0.002  0.00  0.00    +0.158 C 
ENDBRANCH   1  15
TORSDOF 1
