REMARK  Name = ZINC02651055
REMARK  7 active torsions:
REMARK  status: ('A' for Active; 'I' for Inactive)
REMARK    1  A    between atoms: C_1  and  C_2
REMARK    2  A    between atoms: C_2  and  N_3
REMARK    3  A    between atoms: N_3  and  C_4
REMARK    4  A    between atoms: N_3  and  S_10
REMARK    5  A    between atoms: S_10  and  C_13
REMARK    6  A    between atoms: N_21  and  C_24
REMARK    7  A    between atoms: C_27  and  O_30
REMARK                            x       y       z     vdW  Elec       q    Type
REMARK                         _______ _______ _______ _____ _____    ______ ____
ROOT
ATOM      1  C   UNL     1       5.859   0.859   0.496  0.00  0.00    +0.125 A 
ATOM      2  C   UNL     1       6.921   0.218   1.122  0.00  0.00    +0.033 A 
ATOM      3  C   UNL     1       7.616   0.898   2.105  0.00  0.00    +0.043 A 
ATOM      4  C   UNL     1       7.231   2.195   2.432  0.00  0.00    +0.099 A 
ATOM      5  C   UNL     1       5.535   2.148   0.867  0.00  0.00    +0.113 A 
ATOM      6  N   UNL     1       7.920   2.891   3.417  0.00  0.00    -0.314 N 
ATOM      7  C   UNL     1       7.928   2.143   4.682  0.00  0.00    +0.125 C 
ATOM      8  C   UNL     1       8.763   2.903   5.716  0.00  0.00    +0.124 C 
ATOM      9  N   UNL     1       8.198   4.246   5.905  0.00  0.00    -0.327 N 
ATOM     10  C   UNL     1       8.190   4.994   4.641  0.00  0.00    +0.124 C 
ATOM     11  C   UNL     1       7.356   4.234   3.607  0.00  0.00    +0.125 C 
ATOM     12  N   UNL     1       6.191   2.845   1.832  0.00  0.00    -0.348 N 
ATOM     13  H   UNL     1       5.922   3.801   2.094  0.00  0.00    +0.167 HD
ENDROOT
BRANCH   9  14
ATOM     14  C   UNL     1       8.893   4.947   6.898  0.00  0.00    +0.030 A 
ATOM     15  C   UNL     1       9.464   6.179   6.608  0.00  0.00    +0.027 A 
ATOM     16  C   UNL     1      10.145   6.872   7.590  0.00  0.00    +0.047 A 
ATOM     17  C   UNL     1      10.267   6.333   8.862  0.00  0.00    +0.117 A 
ATOM     18  C   UNL     1       9.701   5.100   9.151  0.00  0.00    +0.047 A 
ATOM     19  C   UNL     1       9.015   4.408   8.172  0.00  0.00    +0.027 A 
BRANCH  17  20
ATOM     20  O   UNL     1      10.943   7.014   9.826  0.00  0.00    -0.507 OA
ATOM     21  H   UNL     1      11.887   6.809   9.863  0.00  0.00    +0.292 HD
ENDBRANCH  17  20
ENDBRANCH   9  14
BRANCH   1  22
ATOM     22  S   UNL     1       4.941   0.036  -0.763  0.00  0.00    +0.076 S 
ATOM     23  O   UNL     1       5.840  -0.857  -1.404  0.00  0.00    -0.150 OA
ATOM     24  O   UNL     1       4.232   1.044  -1.472  0.00  0.00    -0.150 OA
BRANCH  22  25
ATOM     25  N   UNL     1       3.803  -0.899  -0.007  0.00  0.00    -0.203 N 
BRANCH  25  26
ATOM     26  C   UNL     1       2.536  -0.376   0.264  0.00  0.00    +0.051 A 
ATOM     27  C   UNL     1       1.444  -1.226   0.386  0.00  0.00    +0.025 A 
ATOM     28  C   UNL     1       0.193  -0.705   0.653  0.00  0.00    +0.002 A 
ATOM     29  C   UNL     1       0.027   0.660   0.798  0.00  0.00    +0.000 A 
ATOM     30  C   UNL     1       1.112   1.509   0.677  0.00  0.00    +0.002 A 
ATOM     31  C   UNL     1       2.366   0.995   0.410  0.00  0.00    +0.025 A 
ENDBRANCH  25  26
BRANCH  25  33
ATOM     32  C   UNL     1       3.655  -3.235  -0.718  0.00  0.00    +0.026 C 
ATOM     33  C   UNL     1       4.124  -2.276   0.379  0.00  0.00    +0.128 C 
ENDBRANCH  25  33
ENDBRANCH  22  25
ENDBRANCH   1  22
TORSDOF 6
