REMARK  Name = ZINC04713565
REMARK  8 active torsions:
REMARK  status: ('A' for Active; 'I' for Inactive)
REMARK    1  A    between atoms: C_1  and  C_2
REMARK    2  A    between atoms: C_10  and  O_31
REMARK    3  A    between atoms: N_22  and  N_23
REMARK    4  A    between atoms: C_24  and  O_26
REMARK    5  A    between atoms: O_26  and  C_27
REMARK    6  A    between atoms: C_27  and  C_28
REMARK    7  A    between atoms: C_27  and  C_29
REMARK    8  A    between atoms: C_27  and  C_30
REMARK                            x       y       z     vdW  Elec       q    Type
REMARK                         _______ _______ _______ _____ _____    ______ ____
ROOT
ATOM      1  C   UNL     1      -1.217   6.930  -1.384  0.00  0.00    +0.018 C 
ATOM      2  C   UNL     1      -1.087   6.402   0.046  0.00  0.00    +0.011 C 
ATOM      3  C   UNL     1      -2.399   5.845   0.525  0.00  0.00    +0.013 C 
ATOM      4  C   UNL     1      -3.216   6.911   1.275  0.00  0.00    +0.009 C 
ATOM      5  C   UNL     1      -2.859   8.297   0.773  0.00  0.00    +0.023 C 
ATOM      6  C   UNL     1      -3.747   9.399   1.274  0.00  0.00    -0.041 A 
ATOM      7  C   UNL     1      -5.060   9.126   1.605  0.00  0.00    +0.008 A 
ATOM      8  C   UNL     1      -5.894  10.130   2.057  0.00  0.00    +0.046 A 
ATOM      9  C   UNL     1      -5.402  11.421   2.178  0.00  0.00    +0.117 A 
ATOM     10  C   UNL     1      -4.085  11.692   1.847  0.00  0.00    +0.049 A 
ATOM     11  C   UNL     1      -3.247  10.685   1.389  0.00  0.00    -0.040 A 
ATOM     12  C   UNL     1      -1.832  11.067   1.043  0.00  0.00    +0.036 C 
ATOM     13  C   UNL     1      -1.037   9.913   0.418  0.00  0.00    +0.009 C 
ATOM     14  C   UNL     1      -1.419   8.643   1.169  0.00  0.00    +0.001 C 
ATOM     15  C   UNL     1      -0.520   7.466   1.006  0.00  0.00    +0.005 C 
ATOM     16  C   UNL     1       0.877   7.707   0.406  0.00  0.00    +0.010 C 
ATOM     17  C   UNL     1       1.317   6.275  -0.002  0.00  0.00    +0.053 C 
ATOM     18  C   UNL     1       0.062   5.406   0.021  0.00  0.00    +0.043 C 
ATOM     19  N   UNL     1      -0.023   4.138   0.018  0.00  0.00    -0.186 NA
ENDROOT
BRANCH  19  20
ATOM     20  N   UNL     1       1.140   3.358  -0.007  0.00  0.00    -0.172 N 
ATOM     21  C   UNL     1       1.050   2.013  -0.010  0.00  0.00    +0.420 C 
ATOM     22  O   UNL     1       2.059   1.336  -0.032  0.00  0.00    -0.225 OA
ATOM     23  H   UNL     1       2.011   3.785  -0.023  0.00  0.00    +0.181 HD
BRANCH  21  24
ATOM     24  O   UNL     1      -0.159   1.419   0.012  0.00  0.00    -0.444 OA
BRANCH  24  25
ATOM     25  C   UNL     1      -0.180  -0.032   0.008  0.00  0.00    +0.107 C 
ATOM     26  C   UNL     1       0.558  -0.557   1.241  0.00  0.00    +0.055 C 
ATOM     27  C   UNL     1      -1.630  -0.521   0.035  0.00  0.00    +0.055 C 
ATOM     28  C   UNL     1       0.508  -0.549  -1.257  0.00  0.00    +0.055 C 
ENDBRANCH  24  25
ENDBRANCH  21  24
ENDBRANCH  19  20
BRANCH   9  29
ATOM     29  O   UNL     1      -6.211  12.418   2.625  0.00  0.00    -0.507 OA
ATOM     30  H   UNL     1      -6.198  12.535   3.585  0.00  0.00    +0.292 HD
ENDBRANCH   9  29
TORSDOF 4
