REMARK  Name = ZINC32772376
REMARK  7 active torsions:
REMARK  status: ('A' for Active; 'I' for Inactive)
REMARK    1  A    between atoms: C_4  and  C_7
REMARK    2  A    between atoms: C_7  and  C_9
REMARK    3  A    between atoms: C_7  and  N_28
REMARK    4  A    between atoms: C_9  and  N_10
REMARK    5  A    between atoms: C_11  and  C_13
REMARK    6  A    between atoms: N_15  and  C_22
REMARK    7  A    between atoms: C_16  and  C_19
REMARK                            x       y       z     vdW  Elec       q    Type
REMARK                         _______ _______ _______ _____ _____    ______ ____
ROOT
ATOM      1  N   UNL     1      -1.173  -0.683  -0.007  0.00  0.00    -0.312 N 
ATOM      2  C   UNL     1      -0.028   0.026   0.036  0.00  0.00    +0.260 C 
ATOM      3  O   UNL     1       1.039  -0.548   0.159  0.00  0.00    -0.269 OA
ATOM      4  H   UNL     1      -2.137  -0.164  -0.119  0.00  0.00    +0.149 HD
ENDROOT
BRANCH   2   5
ATOM      5  C   UNL     1      -0.065   1.484  -0.067  0.00  0.00    +0.123 C 
ATOM      6  N   UNL     1      -1.137   2.197  -0.205  0.00  0.00    -0.178 NA
ATOM      7  N   UNL     1      -0.900   3.568  -0.274  0.00  0.00    -0.212 N 
ATOM      8  C   UNL     1       0.548   3.808  -0.176  0.00  0.00    +0.189 C 
ATOM      9  C   UNL     1       1.143   2.394  -0.033  0.00  0.00    +0.096 C 
BRANCH   7  10
ATOM     10  C   UNL     1      -1.879   4.554  -0.419  0.00  0.00    +0.052 A 
ATOM     11  C   UNL     1      -1.514   5.894  -0.476  0.00  0.00    +0.025 A 
ATOM     12  C   UNL     1      -2.484   6.866  -0.624  0.00  0.00    +0.002 A 
ATOM     13  C   UNL     1      -3.817   6.508  -0.706  0.00  0.00    +0.000 A 
ATOM     14  C   UNL     1      -4.184   5.176  -0.644  0.00  0.00    +0.002 A 
ATOM     15  C   UNL     1      -3.219   4.198  -0.501  0.00  0.00    +0.025 A 
ENDBRANCH   7  10
BRANCH   8  16
ATOM     16  C   UNL     1       0.868   4.643   1.037  0.00  0.00    +0.233 C 
ATOM     17  O   UNL     1       0.034   4.799   1.904  0.00  0.00    -0.274 OA
ATOM     18  N   UNL     1       2.082   5.217   1.158  0.00  0.00    -0.328 N 
ATOM     19  H   UNL     1       2.316   5.827   2.044  0.00  0.00    +0.145 HD
ATOM     20  H   UNL     1       2.838   5.076   0.372  0.00  0.00    +0.145 HD
ENDBRANCH   8  16
ENDBRANCH   2   5
BRANCH   1  21
ATOM     21  C   UNL     1      -1.136  -2.143   0.095  0.00  0.00    +0.094 C 
BRANCH  21  22
ATOM     22  C   UNL     1      -2.565  -2.689   0.138  0.00  0.00    -0.020 C 
BRANCH  22  26
ATOM     23  C   UNL     1      -4.504  -1.890  -3.583  0.00  0.00    +0.000 A 
ATOM     24  C   UNL     1      -4.745  -1.078  -2.490  0.00  0.00    +0.000 A 
ATOM     25  C   UNL     1      -4.117  -1.337  -1.286  0.00  0.00    +0.002 A 
ATOM     26  C   UNL     1      -3.249  -2.407  -1.175  0.00  0.00    -0.059 A 
ATOM     27  C   UNL     1      -3.004  -3.215  -2.269  0.00  0.00    +0.002 A 
ATOM     28  C   UNL     1      -3.636  -2.960  -3.472  0.00  0.00    +0.000 A 
ENDBRANCH  22  26
BRANCH  22  29
ATOM     29  N   UNL     1      -2.529  -4.139   0.370  0.00  0.00    +0.385 N 
ATOM     30  C   UNL     1      -1.835  -4.457   1.644  0.00  0.00    -0.078 C 
ATOM     31  C   UNL     1      -2.341  -5.883   1.977  0.00  0.00    -0.020 C 
ATOM     32  C   UNL     1      -3.819  -5.839   1.527  0.00  0.00    -0.020 C 
ATOM     33  C   UNL     1      -3.895  -4.688   0.507  0.00  0.00    -0.078 C 
ATOM     34  H   UNL     1      -2.007  -4.568  -0.498  0.00  0.00    -0.081 HD
ENDBRANCH  22  29
ENDBRANCH  21  22
ENDBRANCH   1  21
TORSDOF 7
