REMARK  Name = ZINC01830744
REMARK  9 active torsions:
REMARK  status: ('A' for Active; 'I' for Inactive)
REMARK    1  A    between atoms: C_1  and  C_2
REMARK    2  A    between atoms: C_2  and  C_3
REMARK    3  A    between atoms: C_2  and  C_4
REMARK    4  A    between atoms: C_2  and  N_51
REMARK    5  A    between atoms: C_5  and  C_6
REMARK    6  A    between atoms: C_5  and  N_51
REMARK    7  A    between atoms: C_6  and  C_7
REMARK    8  A    between atoms: C_7  and  N_8
REMARK    9  A    between atoms: C_9  and  C_20
REMARK                            x       y       z     vdW  Elec       q    Type
REMARK                         _______ _______ _______ _____ _____    ______ ____
ROOT
ATOM      1  N   UNL     1      -1.773   4.504  -0.218  0.00  0.00    -0.309 N 
ATOM      2  C   UNL     1      -3.010   3.938   0.075  0.00  0.00    +0.068 A 
ATOM      3  C   UNL     1      -2.828   2.626   0.289  0.00  0.00    +0.121 A 
ATOM      4  N   UNL     1      -1.483   2.341   0.131  0.00  0.00    -0.283 N 
ATOM      5  C   UNL     1      -0.833   3.501  -0.176  0.00  0.00    +0.217 A 
ATOM      6  N   UNL     1       0.453   3.260  -0.328  0.00  0.00    -0.212 NA
ATOM      7  C   UNL     1       0.698   1.942  -0.123  0.00  0.00    +0.091 A 
ATOM      8  C   UNL     1      -0.533   1.333   0.177  0.00  0.00    +0.075 A 
ATOM      9  C   UNL     1      -0.588  -0.028   0.435  0.00  0.00    +0.028 A 
ATOM     10  C   UNL     1       0.567  -0.781   0.398  0.00  0.00    +0.002 A 
ATOM     11  C   UNL     1       1.785  -0.186   0.102  0.00  0.00    +0.002 A 
ATOM     12  C   UNL     1       1.859   1.164  -0.157  0.00  0.00    +0.030 A 
ENDROOT
BRANCH   2  13
ATOM     13  C   UNL     1      -4.301   4.658   0.139  0.00  0.00    +0.000 A 
ATOM     14  C   UNL     1      -5.363   4.126   0.871  0.00  0.00    +0.011 A 
ATOM     15  C   UNL     1      -6.563   4.805   0.932  0.00  0.00    +0.016 A 
ATOM     16  C   UNL     1      -6.717   6.006   0.260  0.00  0.00    +0.018 A 
ATOM     17  C   UNL     1      -5.668   6.536  -0.471  0.00  0.00    +0.016 A 
ATOM     18  C   UNL     1      -4.462   5.869  -0.535  0.00  0.00    +0.011 A 
ATOM     19 BR   UNL     1      -8.367   6.926   0.342  0.00  0.00    -0.050 Br
ENDBRANCH   2  13
BRANCH   1  20
ATOM     20  C   UNL     1      -1.518   5.915  -0.517  0.00  0.00    +0.123 C 
BRANCH  20  21
ATOM     21  C   UNL     1      -1.512   6.122  -2.033  0.00  0.00    +0.003 C 
BRANCH  21  22
ATOM     22  C   UNL     1      -1.348   7.611  -2.343  0.00  0.00    -0.080 C 
BRANCH  22  23
ATOM     23  N   UNL     1      -1.344   7.802  -3.806  0.00  0.00    +0.382 N 
ATOM     24  H   UNL     1      -0.564   7.273  -4.214  0.00  0.00    -0.085 HD
ATOM     25  H   UNL     1      -2.230   7.461  -4.195  0.00  0.00    -0.085 HD
BRANCH  23  27
ATOM     26  C   UNL     1       0.136   9.749  -3.564  0.00  0.00    -0.011 C 
ATOM     27  C   UNL     1      -1.187   9.232  -4.135  0.00  0.00    -0.077 C 
ATOM     28  C   UNL     1      -1.186   9.399  -5.656  0.00  0.00    -0.011 C 
ATOM     29  C   UNL     1      -2.347  10.028  -3.535  0.00  0.00    -0.011 C 
ENDBRANCH  23  27
ENDBRANCH  22  23
ENDBRANCH  21  22
ENDBRANCH  20  21
ENDBRANCH   1  20
TORSDOF 6
