REMARK  Name = ZINC35716452
REMARK  8 active torsions:
REMARK  status: ('A' for Active; 'I' for Inactive)
REMARK    1  A    between atoms: C_1  and  C_2
REMARK    2  A    between atoms: C_4  and  C_34
REMARK    3  A    between atoms: C_6  and  N_8
REMARK    4  A    between atoms: N_11  and  C_26
REMARK    5  A    between atoms: C_14  and  C_16
REMARK    6  A    between atoms: N_18  and  C_19
REMARK    7  A    between atoms: C_19  and  C_20
REMARK    8  A    between atoms: C_26  and  C_27
REMARK                            x       y       z     vdW  Elec       q    Type
REMARK                         _______ _______ _______ _____ _____    ______ ____
ROOT
ATOM      1  N   UNL     1       0.050  -2.798   2.393  0.00  0.00    -0.181 N 
ATOM      2  C   UNL     1       0.144  -2.111   3.542  0.00  0.00    +0.353 A 
ATOM      3  O   UNL     1       0.213  -0.898   3.507  0.00  0.00    -0.244 OA
ATOM      4  N   UNL     1       0.163  -2.741   4.734  0.00  0.00    -0.253 N 
ATOM      5  C   UNL     1       0.085  -4.092   4.755  0.00  0.00    +0.288 A 
ATOM      6  O   UNL     1       0.098  -4.707   5.804  0.00  0.00    -0.265 OA
ATOM      7  C   UNL     1      -0.017  -4.793   3.461  0.00  0.00    +0.210 A 
ATOM      8  N   UNL     1      -0.032  -4.079   2.356  0.00  0.00    -0.152 NA
ENDROOT
BRANCH   1  14
ATOM      9  C   UNL     1       2.018   0.639  -0.522  0.00  0.00    +0.044 C 
ATOM     10  C   UNL     1       0.977  -0.418  -0.253  0.00  0.00    -0.048 A 
ATOM     11  C   UNL     1       0.006  -0.688  -1.200  0.00  0.00    +0.006 A 
ATOM     12  C   UNL     1      -0.951  -1.656  -0.957  0.00  0.00    -0.048 A 
ATOM     13  C   UNL     1      -0.939  -2.357   0.233  0.00  0.00    +0.031 A 
ATOM     14  C   UNL     1       0.035  -2.089   1.186  0.00  0.00    +0.071 A 
ATOM     15  C   UNL     1       0.998  -1.120   0.936  0.00  0.00    +0.031 A 
ATOM     16  C   UNL     1      -2.008  -1.947  -1.991  0.00  0.00    +0.044 C 
ENDBRANCH   1  14
BRANCH   7  17
ATOM     17  C   UNL     1      -0.104  -6.264   3.407  0.00  0.00    +0.270 C 
ATOM     18  O   UNL     1      -0.094  -6.912   4.436  0.00  0.00    -0.268 OA
ATOM     19  N   UNL     1      -0.197  -6.890   2.217  0.00  0.00    -0.307 N 
ATOM     20  H   UNL     1      -0.205  -6.374   1.397  0.00  0.00    +0.149 HD
BRANCH  19  21
ATOM     21  C   UNL     1      -0.284  -8.352   2.164  0.00  0.00    +0.136 C 
BRANCH  21  22
ATOM     22  C   UNL     1      -0.379  -8.804   0.706  0.00  0.00    +0.135 C 
ATOM     23  C   UNL     1      -0.592 -10.332   0.644  0.00  0.00    +0.035 C 
ATOM     24  C   UNL     1       0.292 -10.740  -0.566  0.00  0.00    +0.031 C 
ATOM     25  C   UNL     1       1.458  -9.728  -0.433  0.00  0.00    +0.160 C 
ATOM     26  O   UNL     1       0.847  -8.509   0.025  0.00  0.00    -0.375 OA
ENDBRANCH  21  22
ENDBRANCH  19  21
ENDBRANCH   7  17
BRANCH   4  27
ATOM     27  C   UNL     1       0.266  -1.978   5.980  0.00  0.00    +0.165 C 
BRANCH  27  28
ATOM     28  C   UNL     1      -1.115  -1.634   6.474  0.00  0.00    -0.025 A 
ATOM     29  C   UNL     1      -1.720  -0.458   6.070  0.00  0.00    +0.005 A 
ATOM     30  C   UNL     1      -2.988  -0.141   6.522  0.00  0.00    +0.003 A 
ATOM     31  C   UNL     1      -3.651  -0.998   7.379  0.00  0.00    +0.038 A 
ATOM     32  C   UNL     1      -3.046  -2.175   7.785  0.00  0.00    +0.124 A 
ATOM     33  C   UNL     1      -1.779  -2.495   7.326  0.00  0.00    +0.043 A 
ATOM     34  F   UNL     1      -3.693  -3.014   8.623  0.00  0.00    -0.205 F 
ENDBRANCH  27  28
ENDBRANCH   4  27
TORSDOF 6
