REMARK  Name = ZINC12674917
REMARK  9 active torsions:
REMARK  status: ('A' for Active; 'I' for Inactive)
REMARK    1  A    between atoms: C_1  and  C_2
REMARK    2  A    between atoms: C_2  and  C_3
REMARK    3  A    between atoms: C_4  and  C_25
REMARK    4  A    between atoms: C_6  and  C_8
REMARK    5  A    between atoms: N_10  and  N_11
REMARK    6  A    between atoms: C_12  and  C_14
REMARK    7  A    between atoms: C_14  and  C_16
REMARK    8  A    between atoms: C_14  and  O_17
REMARK    9  A    between atoms: O_17  and  C_18
REMARK                            x       y       z     vdW  Elec       q    Type
REMARK                         _______ _______ _______ _____ _____    ______ ____
ROOT
ATOM      1  N   UNL     1       3.452  -4.696  -1.207  0.00  0.00    -0.231 N 
ATOM      2  C   UNL     1       2.370  -3.932  -0.957  0.00  0.00    +0.270 C 
ATOM      3  O   UNL     1       1.284  -4.261  -1.383  0.00  0.00    -0.270 OA
ATOM      4  H   UNL     1       4.321  -4.433  -0.865  0.00  0.00    +0.173 HD
ENDROOT
BRANCH   1   7
ATOM      5  C   UNL     1       4.403  -6.634  -2.209  0.00  0.00    +0.267 C 
ATOM      6  O   UNL     1       5.493  -6.304  -1.781  0.00  0.00    -0.268 OA
ATOM      7  N   UNL     1       3.321  -5.870  -1.960  0.00  0.00    -0.230 N 
ATOM      8  H   UNL     1       2.452  -6.133  -2.301  0.00  0.00    +0.173 HD
BRANCH   5  12
ATOM      9  C   UNL     1       3.525  -9.972  -4.452  0.00  0.00    -0.007 A 
ATOM     10  C   UNL     1       4.836  -9.856  -4.112  0.00  0.00    -0.040 A 
ATOM     11  C   UNL     1       5.240  -8.778  -3.363  0.00  0.00    +0.024 A 
ATOM     12  C   UNL     1       4.267  -7.863  -2.997  0.00  0.00    +0.076 A 
ATOM     13  S   UNL     1       2.802  -8.573  -3.728  0.00  0.00    -0.088 S 
ATOM     14  C   UNL     1       5.833 -10.897  -4.551  0.00  0.00    +0.044 C 
BRANCH   9  16
ATOM     15  C   UNL     1       2.388 -12.172  -4.322  0.00  0.00    +0.009 C 
ATOM     16  C   UNL     1       2.861 -11.058  -5.258  0.00  0.00    +0.039 C 
ENDBRANCH   9  16
ENDBRANCH   5  12
ENDBRANCH   1   7
BRANCH   2  17
ATOM     17  C   UNL     1       2.510  -2.669  -0.147  0.00  0.00    +0.257 C 
ATOM     18  C   UNL     1       3.050  -3.011   1.243  0.00  0.00    +0.062 C 
BRANCH  17  19
ATOM     19  O   UNL     1       1.234  -2.040  -0.020  0.00  0.00    -0.480 OA
BRANCH  19  20
ATOM     20  C   UNL     1       1.226  -0.699   0.200  0.00  0.00    +0.123 A 
ATOM     21  C   UNL     1       2.419  -0.021   0.404  0.00  0.00    +0.046 A 
ATOM     22  C   UNL     1       2.409   1.342   0.628  0.00  0.00    +0.005 A 
ATOM     23  C   UNL     1       1.211   2.032   0.649  0.00  0.00    +0.020 A 
ATOM     24  C   UNL     1       0.019   1.359   0.446  0.00  0.00    +0.044 A 
ATOM     25  C   UNL     1       0.025  -0.005   0.222  0.00  0.00    +0.065 A 
ATOM     26 CL   UNL     1      -1.483   2.228   0.473  0.00  0.00    -0.083 Cl
ENDBRANCH  19  20
ENDBRANCH  17  19
ENDBRANCH   2  17
TORSDOF 6
