REMARK  Name = ZINC60275720
REMARK  7 active torsions:
REMARK  status: ('A' for Active; 'I' for Inactive)
REMARK    1  A    between atoms: C_1  and  C_2
REMARK    2  A    between atoms: C_5  and  C_7
REMARK    3  A    between atoms: C_9  and  C_29
REMARK    4  A    between atoms: C_10  and  C_12
REMARK    5  A    between atoms: C_18  and  C_21
REMARK    6  A    between atoms: C_21  and  N_22
REMARK    7  A    between atoms: C_25  and  C_28
REMARK                            x       y       z     vdW  Elec       q    Type
REMARK                         _______ _______ _______ _____ _____    ______ ____
ROOT
ATOM      1  C   UNL     1       4.851  -5.617   0.811  0.00  0.00    +0.255 C 
ATOM      2  O   UNL     1       4.755  -6.830   0.823  0.00  0.00    -0.269 OA
ATOM      3  N   UNL     1       6.048  -5.038   0.586  0.00  0.00    -0.297 N 
ATOM      4  C   UNL     1       6.222  -3.589   0.754  0.00  0.00    +0.108 C 
ATOM      5  C   UNL     1       7.397  -3.340   1.704  0.00  0.00    +0.019 C 
ATOM      6  C   UNL     1       8.637  -4.065   1.175  0.00  0.00    +0.005 C 
ATOM      7  C   UNL     1       8.367  -5.571   1.125  0.00  0.00    -0.010 C 
ATOM      8  C   UNL     1       7.204  -5.846   0.174  0.00  0.00    +0.109 C 
ENDROOT
BRANCH   1  12
ATOM      9  C   UNL     1       1.743  -2.948   1.355  0.00  0.00    +0.144 A 
ATOM     10  N   UNL     1       1.482  -4.232   1.600  0.00  0.00    -0.240 NA
ATOM     11  C   UNL     1       2.394  -5.152   1.458  0.00  0.00    +0.058 A 
ATOM     12  C   UNL     1       3.668  -4.786   1.042  0.00  0.00    +0.097 A 
ATOM     13  S   UNL     1       3.460  -3.019   0.861  0.00  0.00    -0.059 S 
ATOM     14  C   UNL     1       2.070  -6.596   1.742  0.00  0.00    +0.067 C 
BRANCH   9  19
ATOM     15  C   UNL     1       0.091   1.780   1.201  0.00  0.00    +0.086 C 
ATOM     16  C   UNL     1       0.124   0.285   1.393  0.00  0.00    +0.103 A 
ATOM     17  C   UNL     1      -0.912  -0.478   1.800  0.00  0.00    +0.045 A 
ATOM     18  C   UNL     1      -0.455  -1.806   1.845  0.00  0.00    +0.052 A 
ATOM     19  C   UNL     1       0.854  -1.784   1.458  0.00  0.00    +0.160 A 
ATOM     20  O   UNL     1       1.186  -0.507   1.183  0.00  0.00    -0.458 OA
ENDBRANCH   9  19
ENDBRANCH   1  12
BRANCH   7  21
ATOM     21  C   UNL     1       9.619  -6.298   0.628  0.00  0.00    -0.074 C 
BRANCH  21  22
ATOM     22  N   UNL     1       9.408  -7.749   0.714  0.00  0.00    +0.380 N 
ATOM     23  C   UNL     1      10.627  -8.445   0.284  0.00  0.00    -0.079 C 
ATOM     24  C   UNL     1      10.387  -9.956   0.294  0.00  0.00    -0.016 C 
ATOM     25  C   UNL     1      10.018 -10.399   1.713  0.00  0.00    -0.018 C 
ATOM     26  C   UNL     1       8.789  -9.613   2.179  0.00  0.00    -0.016 C 
ATOM     27  C   UNL     1       9.089  -8.115   2.099  0.00  0.00    -0.079 C 
ATOM     28  C   UNL     1       9.698 -11.896   1.715  0.00  0.00    +0.007 C 
ATOM     29  H   UNL     1       8.643  -8.013   0.113  0.00  0.00    -0.082 HD
ENDBRANCH  21  22
ENDBRANCH   7  21
TORSDOF 4
