REMARK  Name = ZINC08616721
REMARK  8 active torsions:
REMARK  status: ('A' for Active; 'I' for Inactive)
REMARK    1  A    between atoms: C_1  and  C_2
REMARK    2  A    between atoms: C_5  and  S_8
REMARK    3  A    between atoms: S_8  and  N_11
REMARK    4  A    between atoms: N_14  and  C_15
REMARK    5  A    between atoms: C_15  and  C_16
REMARK    6  A    between atoms: C_16  and  N_17
REMARK    7  A    between atoms: N_17  and  C_18
REMARK    8  A    between atoms: C_21  and  C_23
REMARK                            x       y       z     vdW  Elec       q    Type
REMARK                         _______ _______ _______ _____ _____    ______ ____
ROOT
ATOM      1  N   UNL     1      -0.897   1.885  -1.312  0.00  0.00    -0.169 N 
ATOM      2  C   UNL     1      -1.107   3.195  -1.553  0.00  0.00    +0.319 C 
ATOM      3  O   UNL     1      -0.649   4.032  -0.799  0.00  0.00    -0.251 OA
ATOM      4  N   UNL     1      -1.823   3.576  -2.629  0.00  0.00    -0.297 N 
ATOM      5  H   UNL     1      -1.263   1.218  -1.913  0.00  0.00    +0.178 HD
ATOM      6  H   UNL     1      -2.188   2.909  -3.230  0.00  0.00    +0.150 HD
ENDROOT
BRANCH   1   7
ATOM      7  S   UNL     1      -0.017   1.417   0.010  0.00  0.00    +0.076 S 
ATOM      8  O   UNL     1       0.002  -0.004   0.002  0.00  0.00    -0.150 OA
ATOM      9  O   UNL     1       1.172   2.195   0.003  0.00  0.00    -0.150 OA
BRANCH   7  14
ATOM     10  C   UNL     1      -3.131   3.072   4.906  0.00  0.00    +0.044 C 
ATOM     11  C   UNL     1      -2.353   2.659   3.683  0.00  0.00    -0.050 A 
ATOM     12  C   UNL     1      -2.559   1.412   3.121  0.00  0.00    +0.005 A 
ATOM     13  C   UNL     1      -1.846   1.033   2.000  0.00  0.00    +0.029 A 
ATOM     14  C   UNL     1      -0.927   1.900   1.439  0.00  0.00    +0.109 A 
ATOM     15  C   UNL     1      -0.717   3.145   2.004  0.00  0.00    +0.029 A 
ATOM     16  C   UNL     1      -1.434   3.526   3.123  0.00  0.00    +0.005 A 
ENDBRANCH   7  14
ENDBRANCH   1   7
BRANCH   4  17
ATOM     17  C   UNL     1      -2.050   5.000  -2.890  0.00  0.00    +0.124 C 
BRANCH  17  18
ATOM     18  C   UNL     1      -2.886   5.158  -4.162  0.00  0.00    +0.121 C 
BRANCH  18  19
ATOM     19  N   UNL     1      -3.113   6.581  -4.424  0.00  0.00    -0.328 N 
ATOM     20  H   UNL     1      -2.748   7.249  -3.823  0.00  0.00    +0.147 HD
BRANCH  19  21
ATOM     21  C   UNL     1      -3.852   6.975  -5.534  0.00  0.00    +0.115 A 
ATOM     22  C   UNL     1      -4.069   8.329  -5.774  0.00  0.00    +0.079 A 
ATOM     23  C   UNL     1      -4.802   8.706  -6.886  0.00  0.00    +0.037 A 
ATOM     24  C   UNL     1      -5.304   7.713  -7.717  0.00  0.00    +0.072 A 
ATOM     25  C   UNL     1      -5.055   6.389  -7.415  0.00  0.00    +0.096 A 
ATOM     26 CL   UNL     1      -3.424   9.528  -4.697  0.00  0.00    -0.080 Cl
ATOM     27  N   UNL     1      -4.335   5.982  -6.336  0.00  0.00    -0.348 N 
ATOM     28  H   UNL     1      -4.165   4.989  -6.136  0.00  0.00    +0.167 HD
BRANCH  24  29
ATOM     29  C   UNL     1      -6.112   8.076  -8.935  0.00  0.00    +0.419 C 
ATOM     30  F   UNL     1      -6.500   6.910  -9.603  0.00  0.00    -0.166 F 
ATOM     31  F   UNL     1      -7.250   8.790  -8.544  0.00  0.00    -0.166 F 
ATOM     32  F   UNL     1      -5.337   8.867  -9.790  0.00  0.00    -0.166 F 
ENDBRANCH  24  29
ENDBRANCH  19  21
ENDBRANCH  18  19
ENDBRANCH  17  18
ENDBRANCH   4  17
TORSDOF 7
