REMARK  Name = ZINC63295403
REMARK  5 active torsions:
REMARK  status: ('A' for Active; 'I' for Inactive)
REMARK    1  A    between atoms: C_1  and  C_2
REMARK    2  A    between atoms: C_12  and  N_13
REMARK    3  A    between atoms: C_14  and  C_16
REMARK    4  A    between atoms: C_16  and  S_17
REMARK    5  A    between atoms: S_17  and  C_18
REMARK                            x       y       z     vdW  Elec       q    Type
REMARK                         _______ _______ _______ _____ _____    ______ ____
ROOT
ATOM      1  N   UNL     1      -0.450  -2.343  -3.557  0.00  0.00    -0.271 N 
ATOM      2  C   UNL     1      -0.108  -1.075  -3.861  0.00  0.00    +0.228 C 
ATOM      3  O   UNL     1       0.280  -0.326  -2.990  0.00  0.00    -0.275 OA
ATOM      4  H   UNL     1      -0.688  -2.964  -4.263  0.00  0.00    +0.156 HD
ENDROOT
BRANCH   1  15
ATOM      5  C   UNL     1      -1.038  -7.524  -2.844  0.00  0.00    +0.073 C 
ATOM      6  C   UNL     1      -1.025  -6.285  -1.986  0.00  0.00    +0.118 C 
ATOM      7  N   UNL     1      -0.991  -5.127  -2.571  0.00  0.00    -0.176 NA
ATOM      8  N   UNL     1      -0.944  -4.020  -1.906  0.00  0.00    -0.179 N 
ATOM      9  C   UNL     1      -1.471  -4.074  -0.503  0.00  0.00    +0.249 C 
ATOM     10  N   UNL     1      -1.301  -5.355   0.193  0.00  0.00    -0.282 N 
ATOM     11  C   UNL     1      -1.057  -6.437  -0.579  0.00  0.00    +0.261 C 
ATOM     12  O   UNL     1      -0.875  -7.529  -0.072  0.00  0.00    -0.269 OA
ATOM     13  S   UNL     1      -0.273  -2.883   0.238  0.00  0.00    -0.086 S 
ATOM     14  C   UNL     1      -0.003  -1.939  -1.262  0.00  0.00    +0.085 C 
ATOM     15  C   UNL     1      -0.461  -2.764  -2.221  0.00  0.00    +0.122 C 
ATOM     16  H   UNL     1      -1.347  -5.422   1.160  0.00  0.00    +0.152 HD
ENDBRANCH   1  15
BRANCH   2  17
ATOM     17  C   UNL     1      -0.209  -0.589  -5.284  0.00  0.00    +0.169 C 
BRANCH  17  18
ATOM     18  S   UNL     1       0.317   1.145  -5.369  0.00  0.00    -0.106 S 
BRANCH  18  19
ATOM     19  C   UNL     1       0.139   1.573  -7.123  0.00  0.00    +0.236 C 
ATOM     20  N   UNL     1       0.934   0.655  -7.948  0.00  0.00    -0.355 N 
ATOM     21  C   UNL     1       0.113   0.034  -8.744  0.00  0.00    +0.061 A 
ATOM     22  C   UNL     1       0.308  -0.987  -9.782  0.00  0.00    +0.027 A 
ATOM     23  C   UNL     1      -0.757  -1.458 -10.461  0.00  0.00    +0.002 A 
ATOM     24  C   UNL     1      -2.068  -1.010 -10.220  0.00  0.00    +0.002 A 
ATOM     25  C   UNL     1      -2.358  -0.077  -9.291  0.00  0.00    +0.027 A 
ATOM     26  C   UNL     1      -1.275   0.507  -8.488  0.00  0.00    +0.061 A 
ATOM     27  N   UNL     1      -1.258   1.403  -7.543  0.00  0.00    -0.355 N 
ATOM     28  H   UNL     1       1.896   0.534  -7.908  0.00  0.00    +0.162 HD
ATOM     29  H   UNL     1      -2.026   1.873  -7.184  0.00  0.00    +0.162 HD
ENDBRANCH  18  19
ENDBRANCH  17  18
ENDBRANCH   2  17
TORSDOF 4
