REMARK  Name = ZINC36067299
REMARK  13 active torsions:
REMARK  status: ('A' for Active; 'I' for Inactive)
REMARK    1  A    between atoms: C_1  and  C_2
REMARK    2  A    between atoms: C_2  and  N_3
REMARK    3  A    between atoms: N_3  and  C_4
REMARK    4  A    between atoms: N_3  and  C_6
REMARK    5  A    between atoms: C_4  and  C_5
REMARK    6  A    between atoms: C_6  and  C_7
REMARK    7  A    between atoms: C_7  and  N_8
REMARK    8  A    between atoms: C_9  and  C_11
REMARK    9  A    between atoms: C_11  and  N_12
REMARK   10  A    between atoms: C_19  and  S_23
REMARK   11  A    between atoms: C_20  and  C_22
REMARK   12  A    between atoms: S_23  and  N_26
REMARK   13  A    between atoms: N_29  and  C_32
REMARK                            x       y       z     vdW  Elec       q    Type
REMARK                         _______ _______ _______ _____ _____    ______ ____
ROOT
ATOM      1  N   UNL     1       4.065  -5.681  -3.240  0.00  0.00    -0.290 N 
ATOM      2  C   UNL     1       3.530  -5.698  -4.487  0.00  0.00    +0.203 A 
ATOM      3  N   UNL     1       4.290  -5.692  -5.549  0.00  0.00    -0.230 NA
ATOM      4  C   UNL     1       5.615  -5.668  -5.443  0.00  0.00    +0.117 A 
ATOM      5  C   UNL     1       6.261  -5.649  -4.194  0.00  0.00    +0.099 A 
ATOM      6  C   UNL     1       5.398  -5.651  -3.050  0.00  0.00    +0.264 A 
ATOM      7  O   UNL     1       5.862  -5.631  -1.923  0.00  0.00    -0.267 OA
ATOM      8  C   UNL     1       7.711  -5.624  -4.253  0.00  0.00    +0.130 A 
ATOM      9  C   UNL     1       8.318  -5.621  -5.450  0.00  0.00    +0.016 A 
ATOM     10  S   UNL     1       6.958  -5.653  -6.603  0.00  0.00    -0.072 S 
ATOM     11  C   UNL     1       9.795  -5.598  -5.749  0.00  0.00    +0.053 C 
ENDROOT
BRANCH   8  12
ATOM     12  S   UNL     1       8.663  -5.597  -2.771  0.00  0.00    +0.062 S 
ATOM     13  O   UNL     1       7.899  -6.277  -1.784  0.00  0.00    -0.153 OA
ATOM     14  O   UNL     1       9.979  -5.999  -3.126  0.00  0.00    -0.153 OA
BRANCH  12  15
ATOM     15  N   UNL     1       8.766  -4.017  -2.284  0.00  0.00    -0.174 NA
ATOM     16  C   UNL     1       9.864  -3.155  -2.746  0.00  0.00    +0.125 C 
ATOM     17  C   UNL     1       9.264  -1.861  -3.307  0.00  0.00    +0.101 C 
ATOM     18  N   UNL     1       8.382  -1.257  -2.299  0.00  0.00    -0.303 NA
ATOM     19  C   UNL     1       7.245  -2.135  -1.992  0.00  0.00    +0.101 C 
ATOM     20  C   UNL     1       7.759  -3.438  -1.382  0.00  0.00    +0.125 C 
ATOM     21  C   UNL     1       7.922   0.070  -2.730  0.00  0.00    +0.105 C 
ENDBRANCH  12  15
ENDBRANCH   8  12
BRANCH   1  22
ATOM     22  C   UNL     1       3.175  -5.688  -2.076  0.00  0.00    +0.221 C 
BRANCH  22  24
ATOM     23  N   UNL     1       2.030  -4.031  -0.640  0.00  0.00    -0.316 N 
ATOM     24  C   UNL     1       2.840  -4.270  -1.690  0.00  0.00    +0.233 C 
ATOM     25  O   UNL     1       3.300  -3.345  -2.325  0.00  0.00    -0.274 OA
ATOM     26  H   UNL     1       1.662  -4.771  -0.133  0.00  0.00    +0.149 HD
BRANCH  23  27
ATOM     27  C   UNL     1       1.704  -2.653  -0.266  0.00  0.00    +0.086 C 
BRANCH  27  28
ATOM     28  C   UNL     1       0.775  -2.660   0.949  0.00  0.00    -0.060 C 
BRANCH  28  29
ATOM     29  N   UNL     1       0.448  -1.278   1.325  0.00  0.00    +0.380 N 
ATOM     30  H   UNL     1       1.301  -0.760   1.474  0.00  0.00    -0.082 HD
BRANCH  29  32
ATOM     31  C   UNL     1      -0.547   0.830   0.576  0.00  0.00    -0.017 C 
ATOM     32  C   UNL     1      -0.326  -0.648   0.248  0.00  0.00    -0.082 C 
ENDBRANCH  29  32
BRANCH  29  33
ATOM     33  C   UNL     1      -0.345  -1.282   2.561  0.00  0.00    -0.082 C 
ATOM     34  C   UNL     1       0.510  -1.808   3.715  0.00  0.00    -0.017 C 
ENDBRANCH  29  33
ENDBRANCH  28  29
ENDBRANCH  27  28
ENDBRANCH  23  27
ENDBRANCH  22  24
ENDBRANCH   1  22
TORSDOF 9
