REMARK  Name = ZINC40081433
REMARK  9 active torsions:
REMARK  status: ('A' for Active; 'I' for Inactive)
REMARK    1  A    between atoms: C_1  and  C_2
REMARK    2  A    between atoms: C_5  and  C_9
REMARK    3  A    between atoms: C_7  and  C_8
REMARK    4  A    between atoms: C_12  and  C_14
REMARK    5  A    between atoms: C_14  and  C_15
REMARK    6  A    between atoms: C_15  and  C_16
REMARK    7  A    between atoms: N_18  and  C_19
REMARK    8  A    between atoms: C_19  and  C_21
REMARK    9  A    between atoms: C_19  and  C_22
REMARK                            x       y       z     vdW  Elec       q    Type
REMARK                         _______ _______ _______ _____ _____    ______ ____
ROOT
ATOM      1  C   UNL     1      -1.319  -9.191  -2.755  0.00  0.00    +0.214 C 
ATOM      2  O   UNL     1      -0.262  -9.668  -3.110  0.00  0.00    -0.276 OA
ATOM      3  N   UNL     1      -2.479  -9.752  -3.151  0.00  0.00    -0.309 N 
ATOM      4  H   UNL     1      -3.324  -9.370  -2.866  0.00  0.00    +0.149 HD
ENDROOT
BRANCH   3   5
ATOM      5  C   UNL     1      -2.463 -10.937  -4.011  0.00  0.00    +0.100 C 
ATOM      6  C   UNL     1      -2.342 -10.505  -5.474  0.00  0.00    +0.033 C 
BRANCH   5   7
ATOM      7  C   UNL     1      -3.741 -11.713  -3.821  0.00  0.00    -0.026 A 
ATOM      8  C   UNL     1      -4.943 -11.041  -3.692  0.00  0.00    +0.009 A 
ATOM      9  C   UNL     1      -6.120 -11.745  -3.518  0.00  0.00    +0.048 A 
ATOM     10  C   UNL     1      -6.096 -13.128  -3.473  0.00  0.00    +0.142 A 
ATOM     11  C   UNL     1      -4.885 -13.806  -3.601  0.00  0.00    +0.076 A 
ATOM     12  C   UNL     1      -3.709 -13.095  -3.781  0.00  0.00    +0.032 A 
ATOM     13  N   UNL     1      -4.874 -15.207  -3.551  0.00  0.00    -0.280 N 
ATOM     14  C   UNL     1      -6.038 -15.876  -3.696  0.00  0.00    +0.255 C 
ATOM     15  O   UNL     1      -6.057 -17.087  -3.624  0.00  0.00    -0.272 OA
ATOM     16  C   UNL     1      -7.313 -15.112  -3.947  0.00  0.00    +0.325 C 
ATOM     17  O   UNL     1      -7.244 -13.837  -3.303  0.00  0.00    -0.481 OA
ATOM     18  H   UNL     1      -4.043 -15.688  -3.414  0.00  0.00    +0.155 HD
ENDBRANCH   5   7
ENDBRANCH   3   5
BRANCH   1  19
ATOM     19  C   UNL     1      -1.335  -7.971  -1.870  0.00  0.00    +0.105 C 
BRANCH  19  20
ATOM     20  C   UNL     1       0.102  -7.540  -1.569  0.00  0.00    +0.105 C 
BRANCH  20  24
ATOM     21  C   UNL     1       0.059  -4.251  -0.021  0.00  0.00    +0.155 A 
ATOM     22  C   UNL     1       0.069  -5.066   1.064  0.00  0.00    +0.161 A 
ATOM     23  N   UNL     1       0.086  -6.332   0.619  0.00  0.00    -0.221 NA
ATOM     24  C   UNL     1       0.086  -6.321  -0.684  0.00  0.00    +0.197 A 
ATOM     25  O   UNL     1       0.064  -5.050  -1.111  0.00  0.00    -0.440 OA
BRANCH  21  30
ATOM     26  C   UNL     1      -0.018   1.503   0.010  0.00  0.00    +0.044 C 
ATOM     27  C   UNL     1       0.002  -0.004   0.002  0.00  0.00    -0.047 A 
ATOM     28  C   UNL     1       0.006  -0.686  -1.202  0.00  0.00    +0.004 A 
ATOM     29  C   UNL     1       0.024  -2.066  -1.216  0.00  0.00    +0.012 A 
ATOM     30  C   UNL     1       0.040  -2.773  -0.013  0.00  0.00    +0.019 A 
ATOM     31  C   UNL     1       0.036  -2.079   1.197  0.00  0.00    +0.015 A 
ATOM     32  C   UNL     1       0.023  -0.699   1.198  0.00  0.00    -0.047 A 
ATOM     33  C   UNL     1       0.025   0.052   2.504  0.00  0.00    +0.044 C 
ENDBRANCH  21  30
ENDBRANCH  20  24
ENDBRANCH  19  20
ENDBRANCH   1  19
TORSDOF 6
