REMARK  Name = ZINC19953821
REMARK  5 active torsions:
REMARK  status: ('A' for Active; 'I' for Inactive)
REMARK    1  A    between atoms: C_1  and  C_2
REMARK    2  A    between atoms: C_2  and  C_3
REMARK    3  A    between atoms: N_7  and  C_16
REMARK    4  A    between atoms: C_11  and  N_15
REMARK    5  A    between atoms: C_16  and  C_17
REMARK                            x       y       z     vdW  Elec       q    Type
REMARK                         _______ _______ _______ _____ _____    ______ ____
ROOT
ATOM      1  C   UNL     1      -2.275   1.334   3.087  0.00  0.00    +0.259 C 
ATOM      2  C   UNL     1      -1.534   0.781   1.895  0.00  0.00    +0.261 C 
ATOM      3  O   UNL     1      -1.739  -0.356   1.524  0.00  0.00    -0.271 OA
ATOM      4  N   UNL     1      -0.643   1.557   1.244  0.00  0.00    -0.261 N 
ATOM      5  C   UNL     1      -0.323   2.820   1.768  0.00  0.00    +0.079 A 
ATOM      6  C   UNL     1       0.392   3.734   1.010  0.00  0.00    +0.029 A 
ATOM      7  C   UNL     1       0.685   4.981   1.529  0.00  0.00    +0.025 A 
ATOM      8  C   UNL     1       0.261   5.321   2.807  0.00  0.00    +0.028 A 
ATOM      9  C   UNL     1      -0.456   4.407   3.569  0.00  0.00    +0.070 A 
ATOM     10  C   UNL     1      -0.745   3.156   3.052  0.00  0.00    +0.145 A 
ATOM     11  O   UNL     1      -1.434   2.248   3.794  0.00  0.00    -0.478 OA
ENDROOT
BRANCH   8  12
ATOM     12  N   UNL     1       0.554   6.586   3.327  0.00  0.00    -0.358 N 
ATOM     13  H   UNL     1       0.218   6.856   4.339  0.00  0.00    +0.142 HD
ATOM     14  H   UNL     1       1.122   7.310   2.725  0.00  0.00    +0.142 HD
ENDBRANCH   8  12
BRANCH   1  16
ATOM     15  C   UNL     1      -4.349   2.516   3.824  0.00  0.00    +0.008 C 
ATOM     16  C   UNL     1      -3.533   2.063   2.612  0.00  0.00    +0.051 C 
ENDBRANCH   1  16
BRANCH   4  17
ATOM     17  C   UNL     1      -0.013   1.086   0.008  0.00  0.00    +0.149 C 
BRANCH  17  18
ATOM     18  C   UNL     1       1.322   0.465   0.330  0.00  0.00    -0.028 A 
ATOM     19  C   UNL     1       1.395  -0.864   0.704  0.00  0.00    +0.005 A 
ATOM     20  C   UNL     1       2.619  -1.434   0.999  0.00  0.00    +0.002 A 
ATOM     21  C   UNL     1       3.772  -0.675   0.920  0.00  0.00    +0.020 A 
ATOM     22  C   UNL     1       3.700   0.655   0.546  0.00  0.00    +0.041 A 
ATOM     23  C   UNL     1       2.475   1.223   0.246  0.00  0.00    +0.025 A 
ATOM     24 CL   UNL     1       5.147   1.608   0.446  0.00  0.00    -0.084 Cl
ENDBRANCH  17  18
ENDBRANCH   4  17
TORSDOF 4
