REMARK  Name = ZINC04730110
REMARK  6 active torsions:
REMARK  status: ('A' for Active; 'I' for Inactive)
REMARK    1  A    between atoms: C_1  and  O_2
REMARK    2  A    between atoms: O_2  and  C_3
REMARK    3  A    between atoms: C_6  and  C_9
REMARK    4  A    between atoms: C_11  and  C_23
REMARK    5  A    between atoms: C_13  and  C_16
REMARK    6  A    between atoms: C_21  and  O_22
REMARK                            x       y       z     vdW  Elec       q    Type
REMARK                         _______ _______ _______ _____ _____    ______ ____
ROOT
ATOM      1  C   UNL     1       0.923  -0.192  -4.284  0.00  0.00    +0.040 C 
ATOM      2  N   UNL     1       0.770   0.755  -5.132  0.00  0.00    -0.299 NA
ATOM      3  C   UNL     1       0.962   2.167  -4.824  0.00  0.00    +0.081 C 
ATOM      4  C   UNL     1       1.147   1.522  -2.508  0.00  0.00    -0.028 C 
ATOM      5  C   UNL     1       1.334   0.043  -2.857  0.00  0.00    +0.044 C 
ATOM      6  N   UNL     1       1.743   2.331  -3.589  0.00  0.00    +0.401 N 
ATOM      7  H   UNL     1       1.742   3.321  -3.314  0.00  0.00    -0.081 HD
ATOM      8  H   UNL     1       2.708   2.023  -3.753  0.00  0.00    -0.081 HD
ENDROOT
BRANCH   3   9
ATOM      9  C   UNL     1       1.696   2.828  -5.963  0.00  0.00    -0.039 A 
ATOM     10  C   UNL     1       1.561   2.338  -7.249  0.00  0.00    +0.004 A 
ATOM     11  C   UNL     1       2.234   2.944  -8.293  0.00  0.00    +0.002 A 
ATOM     12  C   UNL     1       3.042   4.040  -8.053  0.00  0.00    +0.020 A 
ATOM     13  C   UNL     1       3.177   4.530  -6.766  0.00  0.00    +0.041 A 
ATOM     14  C   UNL     1       2.498   3.927  -5.722  0.00  0.00    +0.023 A 
ATOM     15 CL   UNL     1       4.192   5.905  -6.463  0.00  0.00    -0.084 Cl
ENDBRANCH   3   9
BRANCH   1  19
ATOM     16  C   UNL     1       0.240  -4.182  -5.562  0.00  0.00    +0.120 A 
ATOM     17  C   UNL     1       0.083  -3.131  -6.457  0.00  0.00    +0.046 A 
ATOM     18  C   UNL     1       0.303  -1.835  -6.047  0.00  0.00    +0.013 A 
ATOM     19  C   UNL     1       0.686  -1.578  -4.728  0.00  0.00    -0.004 A 
ATOM     20  C   UNL     1       0.849  -2.638  -3.832  0.00  0.00    +0.013 A 
ATOM     21  C   UNL     1       0.621  -3.931  -4.249  0.00  0.00    +0.046 A 
BRANCH  16  23
ATOM     22  C   UNL     1       0.200  -6.490  -4.999  0.00  0.00    +0.277 C 
ATOM     23  O   UNL     1       0.021  -5.458  -5.971  0.00  0.00    -0.495 OA
ENDBRANCH  16  23
ENDBRANCH   1  19
BRANCH   4  24
ATOM     24  C   UNL     1       1.842   1.830  -1.206  0.00  0.00    -0.019 A 
ATOM     25  C   UNL     1       3.096   2.409  -1.212  0.00  0.00    +0.005 A 
ATOM     26  C   UNL     1       3.735   2.692  -0.019  0.00  0.00    +0.000 A 
ATOM     27  C   UNL     1       3.119   2.397   1.183  0.00  0.00    +0.004 A 
ATOM     28  C   UNL     1       1.863   1.822   1.195  0.00  0.00    +0.045 A 
ATOM     29  C   UNL     1       1.223   1.532  -0.001  0.00  0.00    +0.118 A 
BRANCH  29  30
ATOM     30  O   UNL     1      -0.011   0.963   0.007  0.00  0.00    -0.507 OA
ATOM     31  H   UNL     1       0.002  -0.004   0.002  0.00  0.00    +0.292 HD
ENDBRANCH  29  30
ENDBRANCH   4  24
TORSDOF 5
