REMARK  Name = ZINC12898095
REMARK  9 active torsions:
REMARK  status: ('A' for Active; 'I' for Inactive)
REMARK    1  A    between atoms: C_1  and  C_2
REMARK    2  A    between atoms: C_2  and  C_3
REMARK    3  A    between atoms: C_2  and  C_4
REMARK    4  A    between atoms: C_2  and  C_5
REMARK    5  A    between atoms: C_8  and  O_27
REMARK    6  A    between atoms: C_9  and  N_11
REMARK    7  A    between atoms: C_12  and  C_14
REMARK    8  A    between atoms: C_14  and  N_15
REMARK    9  A    between atoms: C_16  and  C_22
REMARK                            x       y       z     vdW  Elec       q    Type
REMARK                         _______ _______ _______ _____ _____    ______ ____
ROOT
ATOM      1  N   UNL     1      -0.288   1.272  -2.443  0.00  0.00    -0.281 N 
ATOM      2  C   UNL     1      -0.967   1.039  -1.302  0.00  0.00    +0.237 C 
ATOM      3  O   UNL     1      -2.165   1.222  -1.261  0.00  0.00    -0.274 OA
ATOM      4  H   UNL     1       0.678   1.189  -2.458  0.00  0.00    +0.155 HD
ENDROOT
BRANCH   1   9
ATOM      5  C   UNL     1      -2.796   2.781  -4.673  0.00  0.00    -0.040 A 
ATOM      6  C   UNL     1      -2.344   2.354  -5.908  0.00  0.00    +0.008 A 
ATOM      7  C   UNL     1      -1.211   1.568  -5.999  0.00  0.00    +0.047 A 
ATOM      8  C   UNL     1      -0.521   1.210  -4.852  0.00  0.00    +0.138 A 
ATOM      9  C   UNL     1      -0.979   1.635  -3.607  0.00  0.00    +0.076 A 
ATOM     10  C   UNL     1      -2.117   2.424  -3.523  0.00  0.00    +0.031 A 
BRANCH   5  12
ATOM     11  C   UNL     1      -3.676   4.977  -3.928  0.00  0.00    +0.015 C 
ATOM     12  C   UNL     1      -4.032   3.639  -4.580  0.00  0.00    -0.013 C 
ATOM     13  C   UNL     1      -4.587   3.887  -5.984  0.00  0.00    +0.015 C 
ATOM     14  C   UNL     1      -5.086   2.924  -3.734  0.00  0.00    +0.015 C 
ENDBRANCH   5  12
BRANCH   8  15
ATOM     15  O   UNL     1       0.597   0.441  -4.941  0.00  0.00    -0.505 OA
ATOM     16  H   UNL     1       0.425  -0.509  -4.900  0.00  0.00    +0.292 HD
ENDBRANCH   8  15
ENDBRANCH   1   9
BRANCH   2  17
ATOM     17  C   UNL     1      -0.237   0.552  -0.077  0.00  0.00    +0.221 C 
BRANCH  17  18
ATOM     18  N   UNL     1      -1.190   0.376   1.022  0.00  0.00    -0.294 N 
ATOM     19  C   UNL     1      -1.889  -0.781   1.310  0.00  0.00    +0.170 A 
ATOM     20  N   UNL     1      -2.639  -0.561   2.356  0.00  0.00    -0.153 NA
ATOM     21  N   UNL     1      -2.433   0.763   2.767  0.00  0.00    -0.254 N 
ATOM     22  H   UNL     1      -2.859   1.203   3.519  0.00  0.00    +0.191 HD
ATOM     23  C   UNL     1      -1.530   1.313   1.929  0.00  0.00    +0.176 A 
ATOM     24  S   UNL     1      -0.929   2.915   2.001  0.00  0.00    -0.011 S 
BRANCH  19  25
ATOM     25  C   UNL     1      -1.802  -2.048   0.564  0.00  0.00    +0.056 A 
ATOM     26  C   UNL     1      -2.231  -3.298   0.931  0.00  0.00    +0.019 A 
ATOM     27  C   UNL     1      -2.039  -4.345   0.058  0.00  0.00    +0.008 A 
ATOM     28  C   UNL     1      -1.434  -4.110  -1.135  0.00  0.00    +0.046 A 
ATOM     29  S   UNL     1      -1.117  -2.355  -1.056  0.00  0.00    -0.094 S 
ENDBRANCH  19  25
ENDBRANCH  17  18
ENDBRANCH   2  17
TORSDOF 6
