REMARK  Name = ZINC35060732
REMARK  3 active torsions:
REMARK  status: ('A' for Active; 'I' for Inactive)
REMARK    1  A    between atoms: C_6  and  N_7
REMARK    2  A    between atoms: N_7  and  C_8
REMARK    3  A    between atoms: C_13  and  N_14
REMARK                            x       y       z     vdW  Elec       q    Type
REMARK                         _______ _______ _______ _____ _____    ______ ____
ROOT
ATOM      1  C   UNL     1      -1.179  -2.119  -0.103  0.00  0.00    +0.054 A 
ATOM      2  C   UNL     1       0.041  -2.788  -0.113  0.00  0.00    +0.026 A 
ATOM      3  C   UNL     1       0.062  -4.166  -0.224  0.00  0.00    +0.019 A 
ATOM      4  C   UNL     1      -1.121  -4.859  -0.325  0.00  0.00    +0.041 A 
ATOM      5  C   UNL     1      -2.379  -4.217  -0.320  0.00  0.00    +0.101 A 
ATOM      6  C   UNL     1      -2.375  -2.808  -0.199  0.00  0.00    +0.073 A 
ATOM      7  N   UNL     1      -3.417  -5.073  -0.429  0.00  0.00    -0.246 NA
ATOM      8  C   UNL     1      -3.248  -6.358  -0.527  0.00  0.00    +0.157 A 
ATOM      9  S   UNL     1      -1.579  -6.566  -0.482  0.00  0.00    -0.075 S 
ENDROOT
BRANCH   6  10
ATOM     10  N   UNL     1      -3.587  -2.106  -0.181  0.00  0.00    -0.355 N 
ATOM     11  H   UNL     1      -3.586  -1.139  -0.102  0.00  0.00    +0.142 HD
ATOM     12  H   UNL     1      -4.426  -2.587  -0.248  0.00  0.00    +0.142 HD
ENDBRANCH   6  10
BRANCH   1  13
ATOM     13  N   UNL     1      -1.197  -0.720   0.010  0.00  0.00    -0.313 N 
ATOM     14  H   UNL     1      -2.039  -0.254   0.130  0.00  0.00    +0.152 HD
BRANCH  13  20
ATOM     15  C   UNL     1       0.966  -0.332  -0.989  0.00  0.00    +0.024 A 
ATOM     16  C   UNL     1       2.146   0.383  -1.045  0.00  0.00    +0.016 A 
ATOM     17  C   UNL     1       2.365   1.429  -0.167  0.00  0.00    +0.013 A 
ATOM     18  C   UNL     1       1.403   1.763   0.770  0.00  0.00    +0.016 A 
ATOM     19  C   UNL     1       0.221   1.052   0.831  0.00  0.00    +0.024 A 
ATOM     20  C   UNL     1      -0.002   0.001  -0.049  0.00  0.00    +0.031 A 
ATOM     21  I   UNL     1       4.158   2.510  -0.255  0.00  0.00    -0.044 I 
ENDBRANCH  13  20
ENDBRANCH   1  13
TORSDOF 3
