REMARK  Name = ZINC45669652
REMARK  9 active torsions:
REMARK  status: ('A' for Active; 'I' for Inactive)
REMARK    1  A    between atoms: C_1  and  C_2
REMARK    2  A    between atoms: C_2  and  C_4
REMARK    3  A    between atoms: C_2  and  S_17
REMARK    4  A    between atoms: C_4  and  C_6
REMARK    5  A    between atoms: C_7  and  N_16
REMARK    6  A    between atoms: N_8  and  C_15
REMARK    7  A    between atoms: N_11  and  C_14
REMARK    8  A    between atoms: S_17  and  C_18
REMARK    9  A    between atoms: C_26  and  C_28
REMARK                            x       y       z     vdW  Elec       q    Type
REMARK                         _______ _______ _______ _____ _____    ______ ____
ROOT
ATOM      1  C   UNL     1       0.176   1.730  -0.137  0.00  0.00    +0.028 C 
ATOM      2  C   UNL     1       0.033   0.221   0.072  0.00  0.00    +0.121 C 
ENDROOT
BRANCH   2   3
ATOM      3  C   UNL     1       0.778  -0.186   1.317  0.00  0.00    +0.185 C 
ATOM      4  O   UNL     1       0.189  -0.277   2.375  0.00  0.00    -0.291 OA
BRANCH   3   5
ATOM      5  C   UNL     1       2.161  -0.462   1.254  0.00  0.00    +0.121 A 
ATOM      6  C   UNL     1       2.849  -0.982   2.364  0.00  0.00    +0.116 A 
ATOM      7  N   UNL     1       4.186  -1.233   2.254  0.00  0.00    -0.284 N 
ATOM      8  C   UNL     1       4.850  -0.994   1.112  0.00  0.00    +0.333 A 
ATOM      9  O   UNL     1       6.040  -1.235   1.065  0.00  0.00    -0.246 OA
ATOM     10  N   UNL     1       4.246  -0.498   0.019  0.00  0.00    -0.263 N 
ATOM     11  C   UNL     1       2.926  -0.222   0.023  0.00  0.00    +0.269 A 
ATOM     12  O   UNL     1       2.381   0.222  -0.971  0.00  0.00    -0.267 OA
ATOM     13  C   UNL     1       5.031  -0.261  -1.195  0.00  0.00    +0.157 C 
ATOM     14  C   UNL     1       4.912  -1.775   3.405  0.00  0.00    +0.155 C 
BRANCH   6  15
ATOM     15  N   UNL     1       2.192  -1.230   3.530  0.00  0.00    -0.344 N 
ATOM     16  H   UNL     1       1.222  -1.228   3.550  0.00  0.00    +0.144 HD
ATOM     17  H   UNL     1       2.694  -1.409   4.340  0.00  0.00    +0.144 HD
ENDBRANCH   6  15
ENDBRANCH   3   5
ENDBRANCH   2   3
BRANCH   2  18
ATOM     18  S   UNL     1      -1.722  -0.201   0.252  0.00  0.00    -0.094 S 
BRANCH  18  19
ATOM     19  C   UNL     1      -2.418   0.194  -1.317  0.00  0.00    +0.109 A 
ATOM     20  C   UNL     1      -3.843  -0.001  -1.583  0.00  0.00    +0.032 A 
ATOM     21  C   UNL     1      -4.719  -0.504  -0.618  0.00  0.00    +0.012 A 
ATOM     22  C   UNL     1      -6.039  -0.663  -0.927  0.00  0.00    +0.001 A 
ATOM     23  C   UNL     1      -6.523  -0.331  -2.189  0.00  0.00    +0.002 A 
ATOM     24  C   UNL     1      -5.694   0.163  -3.152  0.00  0.00    +0.028 A 
ATOM     25  C   UNL     1      -4.332   0.339  -2.869  0.00  0.00    +0.076 A 
ATOM     26  N   UNL     1      -3.473   0.820  -3.777  0.00  0.00    -0.225 NA
ATOM     27  C   UNL     1      -2.194   0.978  -3.487  0.00  0.00    +0.197 A 
ATOM     28  N   UNL     1      -1.670   0.683  -2.297  0.00  0.00    -0.218 NA
BRANCH  27  29
ATOM     29  C   UNL     1      -1.300   1.512  -4.531  0.00  0.00    +0.172 A 
ATOM     30  C   UNL     1       0.037   1.731  -4.404  0.00  0.00    +0.053 A 
ATOM     31  C   UNL     1       0.483   2.243  -5.636  0.00  0.00    +0.042 A 
ATOM     32  C   UNL     1      -0.591   2.311  -6.449  0.00  0.00    +0.196 A 
ATOM     33  O   UNL     1      -1.665   1.864  -5.780  0.00  0.00    -0.460 OA
ENDBRANCH  27  29
ENDBRANCH  18  19
ENDBRANCH   2  18
TORSDOF 6
