REMARK  Name = ZINC63696517
REMARK  10 active torsions:
REMARK  status: ('A' for Active; 'I' for Inactive)
REMARK    1  A    between atoms: C_1  and  C_2
REMARK    2  A    between atoms: C_7  and  N_12
REMARK    3  A    between atoms: C_16  and  C_19
REMARK    4  A    between atoms: N_21  and  C_22
REMARK    5  A    between atoms: C_22  and  C_23
REMARK    6  A    between atoms: C_23  and  C_24
REMARK    7  A    between atoms: C_24  and  O_25
REMARK    8  A    between atoms: O_25  and  C_26
REMARK    9  A    between atoms: C_26  and  C_27
REMARK   10  A    between atoms: C_26  and  C_28
REMARK                            x       y       z     vdW  Elec       q    Type
REMARK                         _______ _______ _______ _____ _____    ______ ____
ROOT
ATOM      1  N   UNL     1      -1.125  -5.092   1.948  0.00  0.00    -0.265 NA
ATOM      2  C   UNL     1      -1.043  -6.486   1.492  0.00  0.00    +0.088 C 
ATOM      3  C   UNL     1      -2.226  -7.278   2.054  0.00  0.00    +0.016 C 
ATOM      4  C   UNL     1      -3.534  -6.641   1.576  0.00  0.00    +0.015 C 
ATOM      5  C   UNL     1      -3.572  -5.176   2.022  0.00  0.00    +0.089 C 
ATOM      6  C   UNL     1      -2.350  -4.445   1.461  0.00  0.00    +0.100 C 
ENDROOT
BRANCH   1  13
ATOM      7  C   UNL     1      -0.018   1.503   0.010  0.00  0.00    +0.044 C 
ATOM      8  C   UNL     1       0.002  -0.004   0.002  0.00  0.00    -0.048 A 
ATOM      9  C   UNL     1       0.005  -0.672  -1.235  0.00  0.00    +0.005 A 
ATOM     10  C   UNL     1       0.022  -2.017  -1.335  0.00  0.00    +0.028 A 
ATOM     11  C   UNL     1       0.040  -2.834  -0.114  0.00  0.00    +0.061 A 
ATOM     12  N   UNL     1       0.057  -4.120   0.090  0.00  0.00    -0.351 N 
ATOM     13  C   UNL     1       0.067  -4.335   1.542  0.00  0.00    +0.252 C 
ATOM     14  N   UNL     1       0.053  -3.002   2.159  0.00  0.00    -0.351 N 
ATOM     15  C   UNL     1       0.037  -2.127   1.195  0.00  0.00    +0.061 A 
ATOM     16  C   UNL     1       0.022  -0.657   1.181  0.00  0.00    +0.030 A 
ATOM     17  H   UNL     1       0.062  -4.809  -0.593  0.00  0.00    +0.163 HD
ATOM     18  H   UNL     1       0.055  -2.810   3.109  0.00  0.00    +0.163 HD
ENDBRANCH   1  13
BRANCH   5  19
ATOM     19  C   UNL     1      -4.829  -4.526   1.506  0.00  0.00    +0.217 C 
ATOM     20  O   UNL     1      -4.756  -3.569   0.765  0.00  0.00    -0.275 OA
ATOM     21  N   UNL     1      -6.035  -5.008   1.869  0.00  0.00    -0.315 N 
ATOM     22  H   UNL     1      -6.093  -5.773   2.462  0.00  0.00    +0.149 HD
BRANCH  21  23
ATOM     23  C   UNL     1      -7.257  -4.375   1.367  0.00  0.00    +0.106 C 
BRANCH  23  24
ATOM     24  C   UNL     1      -8.478  -5.110   1.925  0.00  0.00    +0.047 C 
BRANCH  24  25
ATOM     25  C   UNL     1      -9.754  -4.449   1.401  0.00  0.00    +0.161 C 
BRANCH  25  26
ATOM     26  O   UNL     1     -10.894  -5.135   1.923  0.00  0.00    -0.377 OA
BRANCH  26  27
ATOM     27  C   UNL     1     -12.145  -4.595   1.492  0.00  0.00    +0.112 C 
ATOM     28  C   UNL     1     -13.190  -5.711   1.435  0.00  0.00    +0.037 C 
ATOM     29  C   UNL     1     -12.602  -3.518   2.478  0.00  0.00    +0.037 C 
ENDBRANCH  26  27
ENDBRANCH  25  26
ENDBRANCH  24  25
ENDBRANCH  23  24
ENDBRANCH  21  23
ENDBRANCH   5  19
TORSDOF 7
