REMARK  Name = ZINC02134777
REMARK  3 active torsions:
REMARK  status: ('A' for Active; 'I' for Inactive)
REMARK    1  A    between atoms: C_10  and  N_11
REMARK    2  A    between atoms: C_14  and  C_21
REMARK    3  A    between atoms: C_15  and  O_20
REMARK                            x       y       z     vdW  Elec       q    Type
REMARK                         _______ _______ _______ _____ _____    ______ ____
ROOT
ATOM      1  N   UNL     1      -1.188   1.877   0.018  0.00  0.00    -0.228 N 
ATOM      2  C   UNL     1      -0.015   1.215   0.009  0.00  0.00    +0.267 A 
ATOM      3  O   UNL     1       0.002  -0.004   0.002  0.00  0.00    -0.267 OA
ATOM      4  C   UNL     1       1.190   1.939   0.001  0.00  0.00    +0.069 A 
ATOM      5  C   UNL     1       1.145   3.302   0.009  0.00  0.00    +0.201 A 
ATOM      6  N   UNL     1      -0.072   3.936   0.024  0.00  0.00    -0.278 N 
ATOM      7  H   UNL     1      -0.110   4.905   0.030  0.00  0.00    +0.173 HD
ATOM      8  C   UNL     1      -1.213   3.223   0.032  0.00  0.00    +0.337 A 
ATOM      9  O   UNL     1      -2.281   3.802   0.045  0.00  0.00    -0.246 OA
ENDROOT
BRANCH   4  10
ATOM     10  C   UNL     1       2.514   1.219  -0.016  0.00  0.00    +0.018 C 
ATOM     11  C   UNL     1       2.660   0.456  -1.311  0.00  0.00    +0.011 A 
ATOM     12  C   UNL     1       3.133  -0.810  -1.371  0.00  0.00    -0.022 A 
ATOM     13  C   UNL     1       3.127  -1.203  -2.763  0.00  0.00    +0.003 A 
ATOM     14  C   UNL     1       3.498  -2.380  -3.421  0.00  0.00    +0.010 A 
ATOM     15  C   UNL     1       3.356  -2.400  -4.786  0.00  0.00    +0.001 A 
ATOM     16  C   UNL     1       2.869  -1.311  -5.492  0.00  0.00    +0.002 A 
ATOM     17  C   UNL     1       2.494  -0.135  -4.867  0.00  0.00    +0.026 A 
ATOM     18  C   UNL     1       2.627  -0.085  -3.481  0.00  0.00    +0.047 A 
ATOM     19  N   UNL     1       2.356   0.896  -2.570  0.00  0.00    -0.359 N 
ATOM     20  H   UNL     1       2.001   1.773  -2.784  0.00  0.00    +0.166 HD
ATOM     21  C   UNL     1       3.567  -1.594  -0.159  0.00  0.00    +0.018 C 
ATOM     22  C   UNL     1       3.751  -0.608   1.003  0.00  0.00    -0.076 C 
ATOM     23  N   UNL     1       2.561   0.260   1.110  0.00  0.00    +0.388 N 
ATOM     24  H   UNL     1       1.716  -0.323   1.092  0.00  0.00    -0.084 HD
ATOM     25  H   UNL     1       2.600   0.779   1.995  0.00  0.00    -0.084 HD
ENDBRANCH   4  10
BRANCH   1  35
ATOM     26  C   UNL     1      -4.258   0.079  -3.565  0.00  0.00    +0.001 A 
ATOM     27  C   UNL     1      -3.061   0.793  -3.589  0.00  0.00    +0.001 A 
ATOM     28  C   UNL     1      -2.437   1.154  -2.433  0.00  0.00    +0.010 A 
ATOM     29  C   UNL     1      -3.009   0.809  -1.198  0.00  0.00    +0.006 A 
ATOM     30  C   UNL     1      -4.223   0.080  -1.173  0.00  0.00    -0.016 A 
ATOM     31  C   UNL     1      -4.838  -0.276  -2.386  0.00  0.00    +0.008 A 
ATOM     32  C   UNL     1      -4.794  -0.271   0.062  0.00  0.00    +0.008 A 
ATOM     33  C   UNL     1      -4.176   0.086   1.222  0.00  0.00    +0.003 A 
ATOM     34  C   UNL     1      -2.981   0.798   1.209  0.00  0.00    +0.027 A 
ATOM     35  C   UNL     1      -2.389   1.161   0.019  0.00  0.00    +0.062 A 
ENDBRANCH   1  35
BRANCH   5  36
ATOM     36  O   UNL     1       2.287   4.021   0.001  0.00  0.00    -0.493 OA
ATOM     37  H   UNL     1       2.149   4.978   0.008  0.00  0.00    +0.294 HD
ENDBRANCH   5  36
TORSDOF 3
