REMARK  Name = ZINC67562278
REMARK  5 active torsions:
REMARK  status: ('A' for Active; 'I' for Inactive)
REMARK    1  A    between atoms: C_3  and  C_8
REMARK    2  A    between atoms: C_11  and  N_13
REMARK    3  A    between atoms: N_16  and  C_17
REMARK    4  A    between atoms: C_17  and  C_18
REMARK    5  A    between atoms: C_21  and  N_24
REMARK                            x       y       z     vdW  Elec       q    Type
REMARK                         _______ _______ _______ _____ _____    ______ ____
ROOT
ATOM      1  N   UNL     1       4.156   1.058  -2.257  0.00  0.00    -0.296 N 
ATOM      2  C   UNL     1       4.651   1.166  -3.506  0.00  0.00    +0.300 C 
ATOM      3  O   UNL     1       5.446   2.047  -3.771  0.00  0.00    -0.253 OA
ATOM      4  N   UNL     1       4.266   0.297  -4.461  0.00  0.00    -0.295 N 
ATOM      5  H   UNL     1       3.522   0.355  -2.046  0.00  0.00    +0.151 HD
ATOM      6  H   UNL     1       3.632  -0.406  -4.250  0.00  0.00    +0.151 HD
ENDROOT
BRANCH   1   9
ATOM      7  C   UNL     1       3.619   2.235  -0.047  0.00  0.00    +0.041 C 
ATOM      8  C   UNL     1       4.905   1.434   0.164  0.00  0.00    +0.033 C 
ATOM      9  C   UNL     1       4.575   2.003  -1.219  0.00  0.00    +0.082 C 
BRANCH   7  12
ATOM     10  C   UNL     1      -0.077   1.463  -0.056  0.00  0.00    +0.003 A 
ATOM     11  C   UNL     1       1.117   2.159  -0.054  0.00  0.00    +0.004 A 
ATOM     12  C   UNL     1       2.318   1.474  -0.050  0.00  0.00    -0.040 A 
ATOM     13  C   UNL     1       2.326   0.092  -0.048  0.00  0.00    +0.042 A 
ATOM     14  C   UNL     1       1.130  -0.606  -0.051  0.00  0.00    +0.124 A 
ATOM     15  C   UNL     1      -0.072   0.081  -0.054  0.00  0.00    +0.038 A 
ATOM     16  F   UNL     1       1.137  -1.957  -0.050  0.00  0.00    -0.205 F 
ENDBRANCH   7  12
ENDBRANCH   1   9
BRANCH   4  17
ATOM     17  C   UNL     1       4.804   0.414  -5.818  0.00  0.00    +0.141 C 
BRANCH  17  18
ATOM     18  C   UNL     1       4.218  -0.670  -6.686  0.00  0.00    -0.030 A 
ATOM     19  C   UNL     1       4.852  -1.895  -6.783  0.00  0.00    +0.007 A 
ATOM     20  C   UNL     1       4.317  -2.890  -7.578  0.00  0.00    +0.023 A 
ATOM     21  C   UNL     1       3.142  -2.659  -8.280  0.00  0.00    +0.030 A 
ATOM     22  C   UNL     1       2.508  -1.427  -8.181  0.00  0.00    +0.023 A 
ATOM     23  C   UNL     1       3.045  -0.438  -7.380  0.00  0.00    +0.007 A 
BRANCH  21  24
ATOM     24  N   UNL     1       2.599  -3.663  -9.085  0.00  0.00    -0.328 N 
ATOM     25  C   UNL     1       1.297  -3.454  -9.722  0.00  0.00    +0.116 C 
ATOM     26  C   UNL     1       1.475  -3.398 -11.243  0.00  0.00    +0.088 C 
ATOM     27  S   UNL     1       2.272  -4.937 -11.793  0.00  0.00    -0.158 S 
ATOM     28  C   UNL     1       3.760  -5.027 -10.752  0.00  0.00    +0.088 C 
ATOM     29  C   UNL     1       3.341  -4.908  -9.287  0.00  0.00    +0.116 C 
ENDBRANCH  21  24
ENDBRANCH  17  18
ENDBRANCH   4  17
TORSDOF 5
