REMARK  Name = ZINC39016566
REMARK  6 active torsions:
REMARK  status: ('A' for Active; 'I' for Inactive)
REMARK    1  A    between atoms: C_1  and  C_2
REMARK    2  A    between atoms: C_9  and  C_14
REMARK    3  A    between atoms: C_14  and  N_15
REMARK    4  A    between atoms: N_15  and  C_16
REMARK    5  A    between atoms: C_16  and  C_17
REMARK    6  A    between atoms: C_23  and  C_25
REMARK                            x       y       z     vdW  Elec       q    Type
REMARK                         _______ _______ _______ _____ _____    ______ ____
ROOT
ATOM      1  N   UNL     1       1.184  -6.300   3.217  0.00  0.00    -0.290 N 
ATOM      2  C   UNL     1       0.529  -6.702   4.324  0.00  0.00    +0.282 C 
ATOM      3  O   UNL     1       0.324  -7.886   4.513  0.00  0.00    -0.267 OA
ENDROOT
BRANCH   2   4
ATOM      4  C   UNL     1       0.063  -5.711   5.300  0.00  0.00    +0.189 A 
ATOM      5  C   UNL     1      -0.509  -5.984   6.509  0.00  0.00    +0.054 A 
ATOM      6  C   UNL     1      -0.796  -4.748   7.108  0.00  0.00    +0.042 A 
ATOM      7  C   UNL     1      -0.393  -3.786   6.249  0.00  0.00    +0.196 A 
ATOM      8  O   UNL     1       0.129  -4.371   5.163  0.00  0.00    -0.458 OA
ENDBRANCH   2   4
BRANCH   1   9
ATOM      9  C   UNL     1       1.345  -4.871   2.939  0.00  0.00    +0.125 C 
BRANCH   9  18
ATOM     10  C   UNL     1       0.118   1.411  -0.231  0.00  0.00    +0.044 C 
ATOM     11  C   UNL     1       0.065  -0.094  -0.159  0.00  0.00    -0.050 A 
ATOM     12  C   UNL     1      -0.048  -0.830  -1.338  0.00  0.00    +0.005 A 
ATOM     13  C   UNL     1      -0.101  -2.188  -1.352  0.00  0.00    +0.024 A 
ATOM     14  C   UNL     1      -0.042  -2.917  -0.151  0.00  0.00    +0.040 A 
ATOM     15  N   UNL     1      -0.095  -4.249  -0.177  0.00  0.00    -0.284 N 
ATOM     16  C   UNL     1      -0.045  -4.995   0.914  0.00  0.00    +0.226 C 
ATOM     17  O   UNL     1      -0.097  -6.207   0.828  0.00  0.00    -0.275 OA
ATOM     18  C   UNL     1       0.078  -4.335   2.269  0.00  0.00    +0.116 C 
ATOM     19  C   UNL     1       0.139  -2.821   2.304  0.00  0.00    -0.003 C 
ATOM     20  C   UNL     1       0.078  -2.165   1.110  0.00  0.00    -0.007 A 
ATOM     21  C   UNL     1       0.135  -0.704   1.052  0.00  0.00    +0.012 A 
ATOM     22  H   UNL     1      -0.173  -4.692  -1.036  0.00  0.00    +0.155 HD
ENDBRANCH   9  18
ENDBRANCH   1   9
BRANCH   1  23
ATOM     23  C   UNL     1       1.736  -7.293   2.292  0.00  0.00    +0.144 C 
BRANCH  23  24
ATOM     24  C   UNL     1       3.094  -7.731   2.776  0.00  0.00    -0.012 A 
ATOM     25  C   UNL     1       4.236  -7.056   2.371  0.00  0.00    +0.008 A 
ATOM     26  C   UNL     1       5.464  -7.495   2.841  0.00  0.00    +0.020 A 
ATOM     27  C   UNL     1       5.509  -8.582   3.693  0.00  0.00    +0.111 A 
ATOM     28  N   UNL     1       4.403  -9.200   4.058  0.00  0.00    -0.263 NA
ATOM     29  C   UNL     1       3.217  -8.807   3.635  0.00  0.00    +0.115 A 
ENDBRANCH  23  24
ENDBRANCH   1  23
TORSDOF 5
