REMARK  Name = ZINC09663688
REMARK  11 active torsions:
REMARK  status: ('A' for Active; 'I' for Inactive)
REMARK    1  A    between atoms: C_1  and  C_2
REMARK    2  A    between atoms: C_3  and  C_34
REMARK    3  A    between atoms: N_4  and  C_26
REMARK    4  A    between atoms: C_5  and  N_9
REMARK    5  A    between atoms: C_6  and  C_7
REMARK    6  A    between atoms: C_10  and  C_12
REMARK    7  A    between atoms: C_12  and  S_13
REMARK    8  A    between atoms: S_13  and  C_14
REMARK    9  A    between atoms: N_18  and  C_19
REMARK   10  A    between atoms: C_22  and  O_25
REMARK   11  A    between atoms: C_26  and  C_27
REMARK                            x       y       z     vdW  Elec       q    Type
REMARK                         _______ _______ _______ _____ _____    ______ ____
ROOT
ATOM      1  N   UNL     1       1.602   1.901   2.623  0.00  0.00    -0.270 N 
ATOM      2  C   UNL     1       2.020   2.617   3.686  0.00  0.00    +0.229 C 
ATOM      3  O   UNL     1       2.891   3.450   3.551  0.00  0.00    -0.275 OA
ATOM      4  H   UNL     1       0.960   1.183   2.744  0.00  0.00    +0.156 HD
ENDROOT
BRANCH   1   9
ATOM      5  C   UNL     1       4.604   2.411  -1.409  0.00  0.00    +0.047 C 
ATOM      6  C   UNL     1       3.418   2.434  -0.481  0.00  0.00    -0.011 A 
ATOM      7  C   UNL     1       2.186   2.889  -0.764  0.00  0.00    +0.022 A 
ATOM      8  N   UNL     1       1.385   2.740   0.336  0.00  0.00    -0.327 N 
ATOM      9  C   UNL     1       2.090   2.190   1.358  0.00  0.00    +0.124 A 
ATOM     10  C   UNL     1       3.384   1.964   0.909  0.00  0.00    +0.095 A 
ATOM     11  C   UNL     1       1.754   3.470  -2.086  0.00  0.00    +0.064 C 
BRANCH  10  12
ATOM     12  C   UNL     1       4.466   1.393   1.653  0.00  0.00    +0.103 C 
ATOM     13  N   UNL     1       5.325   0.941   2.244  0.00  0.00    -0.191 NA
ENDBRANCH  10  12
BRANCH   8  14
ATOM     14  C   UNL     1      -0.027   3.126   0.403  0.00  0.00    +0.158 C 
BRANCH  14  15
ATOM     15  C   UNL     1      -0.134   4.576   0.799  0.00  0.00    -0.028 A 
ATOM     16  C   UNL     1      -0.212   4.924   2.134  0.00  0.00    +0.008 A 
ATOM     17  C   UNL     1      -0.305   6.253   2.499  0.00  0.00    +0.038 A 
ATOM     18  C   UNL     1      -0.330   7.237   1.525  0.00  0.00    +0.123 A 
ATOM     19  C   UNL     1      -0.257   6.888   0.187  0.00  0.00    +0.038 A 
ATOM     20  C   UNL     1      -0.159   5.558  -0.175  0.00  0.00    +0.008 A 
ATOM     21  F   UNL     1      -0.426   8.537   1.879  0.00  0.00    -0.205 F 
ENDBRANCH  14  15
ENDBRANCH   8  14
ENDBRANCH   1   9
BRANCH   2  22
ATOM     22  C   UNL     1       1.405   2.382   5.042  0.00  0.00    +0.173 C 
BRANCH  22  23
ATOM     23  S   UNL     1       2.171   3.488   6.252  0.00  0.00    -0.075 S 
BRANCH  23  24
ATOM     24  C   UNL     1       1.290   3.014   7.702  0.00  0.00    +0.214 A 
ATOM     25  N   UNL     1       0.350   2.095   7.781  0.00  0.00    -0.101 NA
ATOM     26  N   UNL     1      -0.084   1.999   8.985  0.00  0.00    -0.022 NA
ATOM     27  N   UNL     1       0.532   2.831   9.753  0.00  0.00    -0.038 NA
ATOM     28  N   UNL     1       1.456   3.521   8.949  0.00  0.00    -0.187 N 
BRANCH  28  29
ATOM     29  C   UNL     1       2.354   4.522   9.349  0.00  0.00    +0.070 A 
ATOM     30  C   UNL     1       3.608   4.607   8.759  0.00  0.00    +0.031 A 
ATOM     31  C   UNL     1       4.489   5.595   9.150  0.00  0.00    +0.047 A 
ATOM     32  C   UNL     1       4.127   6.496  10.140  0.00  0.00    +0.117 A 
ATOM     33  C   UNL     1       2.876   6.409  10.734  0.00  0.00    +0.047 A 
ATOM     34  C   UNL     1       1.991   5.425  10.340  0.00  0.00    +0.031 A 
BRANCH  32  35
ATOM     35  O   UNL     1       4.997   7.465  10.528  0.00  0.00    -0.507 OA
ATOM     36  H   UNL     1       5.579   7.204  11.255  0.00  0.00    +0.292 HD
ENDBRANCH  32  35
ENDBRANCH  28  29
ENDBRANCH  23  24
ENDBRANCH  22  23
ENDBRANCH   2  22
TORSDOF 9
