REMARK  Name = ZINC39707882
REMARK  9 active torsions:
REMARK  status: ('A' for Active; 'I' for Inactive)
REMARK    1  A    between atoms: C_1  and  C_2
REMARK    2  A    between atoms: C_2  and  O_3
REMARK    3  A    between atoms: O_3  and  C_4
REMARK    4  A    between atoms: C_8  and  C_11
REMARK    5  A    between atoms: C_9  and  O_10
REMARK    6  A    between atoms: N_12  and  N_13
REMARK    7  A    between atoms: C_14  and  C_16
REMARK    8  A    between atoms: C_19  and  C_21
REMARK    9  A    between atoms: N_25  and  C_26
REMARK                            x       y       z     vdW  Elec       q    Type
REMARK                         _______ _______ _______ _____ _____    ______ ____
ROOT
ATOM      1  N   UNL     1      -6.611  -4.178   0.019  0.00  0.00    -0.202 N 
ATOM      2  C   UNL     1      -7.697  -3.380   0.028  0.00  0.00    +0.280 C 
ATOM      3  O   UNL     1      -7.564  -2.170   0.034  0.00  0.00    -0.267 OA
ATOM      4  H   UNL     1      -6.717  -5.142   0.015  0.00  0.00    +0.178 HD
ENDROOT
BRANCH   2   5
ATOM      5  C   UNL     1      -9.035  -3.968   0.031  0.00  0.00    +0.132 C 
ATOM      6  N   UNL     1      -9.346  -5.241   0.032  0.00  0.00    -0.148 NA
ATOM      7  N   UNL     1     -10.599  -5.477   0.035  0.00  0.00    -0.151 NA
ATOM      8  C   UNL     1     -11.352  -4.393   0.037  0.00  0.00    +0.093 C 
ATOM      9  C   UNL     1     -10.367  -3.236   0.041  0.00  0.00    +0.122 C 
BRANCH   8  10
ATOM     10  C   UNL     1     -12.758  -4.324   0.041  0.00  0.00    +0.065 A 
ATOM     11  C   UNL     1     -13.635  -5.401   0.049  0.00  0.00    +0.029 A 
ATOM     12  C   UNL     1     -14.927  -4.877   0.050  0.00  0.00    +0.020 A 
ATOM     13  C   UNL     1     -14.830  -3.522   0.042  0.00  0.00    +0.086 A 
ATOM     14  N   UNL     1     -13.520  -3.174   0.042  0.00  0.00    -0.349 N 
ATOM     15  C   UNL     1     -12.999  -1.804   0.041  0.00  0.00    +0.149 C 
ENDBRANCH   8  10
ENDBRANCH   2   5
BRANCH   1  17
ATOM     16  C   UNL     1      -4.281  -4.382   0.007  0.00  0.00    +0.142 C 
ATOM     17  N   UNL     1      -5.328  -3.614   0.016  0.00  0.00    -0.187 NA
BRANCH  16  22
ATOM     18  C   UNL     1      -1.498  -1.849   0.006  0.00  0.00    +0.162 A 
ATOM     19  C   UNL     1      -0.388  -2.679  -0.003  0.00  0.00    +0.049 A 
ATOM     20  C   UNL     1      -0.542  -4.054  -0.008  0.00  0.00    +0.004 A 
ATOM     21  C   UNL     1      -1.803  -4.613  -0.005  0.00  0.00    +0.013 A 
ATOM     22  C   UNL     1      -2.932  -3.789   0.004  0.00  0.00    +0.040 A 
ATOM     23  C   UNL     1      -2.775  -2.398   0.016  0.00  0.00    +0.167 A 
BRANCH  23  24
ATOM     24  O   UNL     1      -3.866  -1.587   0.030  0.00  0.00    -0.503 OA
ATOM     25  H   UNL     1      -4.190  -1.348  -0.849  0.00  0.00    +0.292 HD
ENDBRANCH  23  24
BRANCH  18  26
ATOM     26  O   UNL     1      -1.339  -0.499   0.012  0.00  0.00    -0.489 OA
BRANCH  26  28
ATOM     27  C   UNL     1      -0.019   1.526   0.010  0.00  0.00    +0.048 C 
ATOM     28  C   UNL     1       0.002  -0.004   0.002  0.00  0.00    +0.226 C 
ENDBRANCH  26  28
ENDBRANCH  18  26
ENDBRANCH  16  22
ENDBRANCH   1  17
TORSDOF 7
