REMARK  Name = ZINC36308945
REMARK  15 active torsions:
REMARK  status: ('A' for Active; 'I' for Inactive)
REMARK    1  A    between atoms: C_1  and  O_2
REMARK    2  A    between atoms: O_2  and  C_3
REMARK    3  A    between atoms: C_7  and  O_9
REMARK    4  A    between atoms: O_9  and  C_10
REMARK    5  A    between atoms: C_10  and  C_11
REMARK    6  A    between atoms: C_21  and  C_23
REMARK    7  A    between atoms: C_23  and  N_24
REMARK    8  A    between atoms: N_24  and  C_25
REMARK    9  A    between atoms: N_24  and  C_34
REMARK   10  A    between atoms: C_25  and  C_26
REMARK   11  A    between atoms: C_26  and  C_28
REMARK   12  A    between atoms: C_26  and  O_33
REMARK   13  A    between atoms: C_28  and  O_29
REMARK   14  A    between atoms: O_29  and  C_30
REMARK   15  A    between atoms: C_30  and  C_31
REMARK                            x       y       z     vdW  Elec       q    Type
REMARK                         _______ _______ _______ _____ _____    ______ ____
ROOT
ATOM      1  C   UNL     1       1.047  -5.209   2.784  0.00  0.00    +0.144 C 
ATOM      2  C   UNL     1       1.359  -5.346   1.295  0.00  0.00    -0.014 A 
ATOM      3  C   UNL     1       2.594  -5.016   0.740  0.00  0.00    +0.013 A 
ATOM      4  C   UNL     1       2.798  -5.158  -0.590  0.00  0.00    +0.046 A 
ATOM      5  S   UNL     1       1.217  -5.782  -1.139  0.00  0.00    -0.101 S 
ATOM      6  C   UNL     1       0.408  -5.809   0.439  0.00  0.00    -0.004 A 
ATOM      7  C   UNL     1      -0.986  -6.240   0.760  0.00  0.00    +0.061 C 
ATOM      8  C   UNL     1      -1.355  -5.714   2.156  0.00  0.00    +0.113 C 
ATOM      9  N   UNL     1      -0.206  -5.928   3.050  0.00  0.00    -0.292 N 
ATOM     10  C   UNL     1      -0.301  -6.773   4.096  0.00  0.00    +0.200 C 
ATOM     11  O   UNL     1       0.652  -6.944   4.826  0.00  0.00    -0.278 OA
ENDROOT
BRANCH   1  12
ATOM     12  C   UNL     1       0.884  -3.732   3.146  0.00  0.00    +0.256 C 
BRANCH  12  13
ATOM     13  O   UNL     1      -0.096  -3.138   2.292  0.00  0.00    -0.490 OA
BRANCH  13  18
ATOM     14  C   UNL     1      -1.571   0.166   1.886  0.00  0.00    +0.124 A 
ATOM     15  C   UNL     1      -0.901   0.869   2.877  0.00  0.00    +0.046 A 
ATOM     16  C   UNL     1       0.035   0.230   3.667  0.00  0.00    +0.007 A 
ATOM     17  C   UNL     1       0.305  -1.112   3.473  0.00  0.00    +0.046 A 
ATOM     18  C   UNL     1      -0.362  -1.819   2.483  0.00  0.00    +0.124 A 
ATOM     19  C   UNL     1      -1.306  -1.180   1.693  0.00  0.00    +0.091 A 
BRANCH  14  21
ATOM     20  C   UNL     1      -2.714   2.185   1.363  0.00  0.00    +0.277 C 
ATOM     21  O   UNL     1      -2.491   0.796   1.109  0.00  0.00    -0.495 OA
ENDBRANCH  14  21
ENDBRANCH  13  18
ENDBRANCH  12  13
ENDBRANCH   1  12
BRANCH  10  22
ATOM     22  C   UNL     1      -1.592  -7.505   4.359  0.00  0.00    +0.019 C 
BRANCH  22  23
ATOM     23  N   UNL     1      -1.439  -8.357   5.546  0.00  0.00    +0.389 N 
ATOM     24  H   UNL     1      -0.647  -8.969   5.420  0.00  0.00    -0.081 HD
BRANCH  23  25
ATOM     25  C   UNL     1      -1.223  -7.513   6.729  0.00  0.00    -0.068 C 
ATOM     26  C   UNL     1       0.132  -7.616   7.432  0.00  0.00    -0.017 C 
ATOM     27  C   UNL     1      -1.117  -8.213   8.085  0.00  0.00    -0.017 C 
ENDBRANCH  23  25
BRANCH  23  28
ATOM     28  C   UNL     1      -2.655  -9.159   5.732  0.00  0.00    -0.044 C 
BRANCH  28  29
ATOM     29  C   UNL     1      -3.873  -8.235   5.786  0.00  0.00    +0.124 C 
BRANCH  29  30
ATOM     30  O   UNL     1      -3.780  -7.392   6.936  0.00  0.00    -0.391 OA
ATOM     31  H   UNL     1      -3.749  -7.872   7.775  0.00  0.00    +0.210 HD
ENDBRANCH  29  30
BRANCH  29  32
ATOM     32  C   UNL     1      -5.148  -9.076   5.873  0.00  0.00    +0.189 C 
BRANCH  32  33
ATOM     33  O   UNL     1      -6.290  -8.219   5.806  0.00  0.00    -0.373 OA
BRANCH  33  34
ATOM     34  C   UNL     1      -7.540  -8.909   5.878  0.00  0.00    +0.186 C 
BRANCH  34  35
ATOM     35  C   UNL     1      -8.668  -7.913   5.799  0.00  0.00    -0.007 C 
ATOM     36  C   UNL     1      -9.697  -8.150   5.024  0.00  0.00    +0.006 C 
ENDBRANCH  34  35
ENDBRANCH  33  34
ENDBRANCH  32  33
ENDBRANCH  29  32
ENDBRANCH  28  29
ENDBRANCH  23  28
ENDBRANCH  22  23
ENDBRANCH  10  22
TORSDOF 14
