REMARK  Name = ZINC40378472
REMARK  6 active torsions:
REMARK  status: ('A' for Active; 'I' for Inactive)
REMARK    1  A    between atoms: C_1  and  C_2
REMARK    2  A    between atoms: C_4  and  S_19
REMARK    3  A    between atoms: C_6  and  N_9
REMARK    4  A    between atoms: C_7  and  C_8
REMARK    5  A    between atoms: C_10  and  C_12
REMARK    6  A    between atoms: S_19  and  N_22
REMARK                            x       y       z     vdW  Elec       q    Type
REMARK                         _______ _______ _______ _____ _____    ______ ____
ROOT
ATOM      1  C   UNL     1      -0.044   1.494  -0.004  0.00  0.00    +0.044 C 
ATOM      2  C   UNL     1      -0.021  -0.012  -0.007  0.00  0.00    -0.044 A 
ATOM      3  C   UNL     1      -0.024  -0.701  -1.207  0.00  0.00    +0.032 A 
ATOM      4  C   UNL     1      -0.002  -2.083  -1.214  0.00  0.00    +0.107 A 
ATOM      5  C   UNL     1       0.024  -2.781  -0.022  0.00  0.00    +0.052 A 
ATOM      6  C   UNL     1       0.027  -2.093   1.184  0.00  0.00    +0.038 A 
ATOM      7  C   UNL     1       0.010  -0.704   1.188  0.00  0.00    -0.026 A 
ATOM      8  C   UNL     1       0.019   0.047   2.494  0.00  0.00    +0.046 C 
ENDROOT
BRANCH   6   9
ATOM      9  N   UNL     1       0.052  -2.797   2.393  0.00  0.00    -0.284 N 
ATOM     10  C   UNL     1       0.563  -4.044   2.436  0.00  0.00    +0.238 C 
ATOM     11  O   UNL     1       1.091  -4.518   1.452  0.00  0.00    -0.273 OA
ATOM     12  H   UNL     1      -0.298  -2.388   3.200  0.00  0.00    +0.155 HD
BRANCH  10  13
ATOM     13  C   UNL     1       0.477  -4.849   3.707  0.00  0.00    +0.170 C 
ATOM     14  C   UNL     1      -0.955  -5.430   3.845  0.00  0.00    +0.110 C 
ATOM     15  S   UNL     1      -0.534  -7.035   4.647  0.00  0.00    -0.065 S 
ATOM     16  C   UNL     1       1.177  -7.128   4.147  0.00  0.00    +0.273 C 
ATOM     17  O   UNL     1       1.917  -8.091   4.222  0.00  0.00    -0.263 OA
ATOM     18  N   UNL     1       1.472  -5.906   3.667  0.00  0.00    -0.294 N 
ATOM     19  H   UNL     1       2.352  -5.731   3.297  0.00  0.00    +0.150 HD
ENDBRANCH  10  13
ENDBRANCH   6   9
BRANCH   4  20
ATOM     20  S   UNL     1      -0.007  -2.955  -2.745  0.00  0.00    +0.056 S 
ATOM     21  O   UNL     1      -0.534  -4.247  -2.475  0.00  0.00    -0.153 OA
ATOM     22  O   UNL     1      -0.584  -2.083  -3.707  0.00  0.00    -0.153 OA
BRANCH  20  23
ATOM     23  N   UNL     1       1.574  -3.172  -3.190  0.00  0.00    -0.204 NA
ATOM     24  H   UNL     1       1.828  -3.948  -3.713  0.00  0.00    +0.144 HD
ATOM     25  H   UNL     1       2.245  -2.523  -2.927  0.00  0.00    +0.144 HD
ENDBRANCH  20  23
ENDBRANCH   4  20
TORSDOF 4
