REMARK  Name = ZINC13498796
REMARK  11 active torsions:
REMARK  status: ('A' for Active; 'I' for Inactive)
REMARK    1  A    between atoms: C_1  and  C_2
REMARK    2  A    between atoms: C_2  and  C_3
REMARK    3  A    between atoms: C_2  and  C_4
REMARK    4  A    between atoms: C_4  and  C_6
REMARK    5  A    between atoms: C_4  and  N_69
REMARK    6  A    between atoms: N_10  and  C_11
REMARK    7  A    between atoms: C_17  and  C_18
REMARK    8  A    between atoms: C_17  and  N_69
REMARK    9  A    between atoms: C_18  and  O_19
REMARK   10  A    between atoms: C_20  and  C_21
REMARK   11  A    between atoms: C_20  and  N_69
REMARK                            x       y       z     vdW  Elec       q    Type
REMARK                         _______ _______ _______ _____ _____    ______ ____
ROOT
ATOM      1  N   UNL     1      -0.652   2.004   1.764  0.00  0.00    +0.391 N 
ATOM      2  H   UNL     1      -1.595   1.697   2.031  0.00  0.00    -0.080 HD
ENDROOT
BRANCH   1   3
ATOM      3  C   UNL     1      -0.156   1.138   0.674  0.00  0.00    +0.006 C 
BRANCH   3   4
ATOM      4  C   UNL     1       1.349   1.063   0.706  0.00  0.00    +0.139 A 
ATOM      5  N   UNL     1       2.094   0.739   1.735  0.00  0.00    -0.115 NA
ATOM      6  N   UNL     1       3.327   0.787   1.364  0.00  0.00    -0.023 NA
ATOM      7  N   UNL     1       3.388   1.140   0.127  0.00  0.00    -0.044 NA
ATOM      8  N   UNL     1       2.189   1.319  -0.314  0.00  0.00    -0.228 N 
BRANCH   8   9
ATOM      9  C   UNL     1       1.812   1.726  -1.670  0.00  0.00    +0.111 C 
ATOM     10  C   UNL     1       2.325   0.691  -2.673  0.00  0.00    +0.027 C 
ATOM     11  C   UNL     1       1.932   1.115  -4.090  0.00  0.00    +0.002 C 
ATOM     12  C   UNL     1       2.549   2.480  -4.403  0.00  0.00    +0.000 C 
ATOM     13  C   UNL     1       2.036   3.514  -3.400  0.00  0.00    +0.002 C 
ATOM     14  C   UNL     1       2.429   3.090  -1.984  0.00  0.00    +0.027 C 
ENDBRANCH   8   9
ENDBRANCH   3   4
BRANCH   3  16
ATOM     15  C   UNL     1      -0.422  -0.766   2.269  0.00  0.00    +0.006 C 
ATOM     16  C   UNL     1      -0.741  -0.263   0.860  0.00  0.00    -0.024 C 
ATOM     17  C   UNL     1      -2.258  -0.211   0.668  0.00  0.00    +0.006 C 
ENDBRANCH   3  16
ENDBRANCH   1   3
BRANCH   1  18
ATOM     18  C   UNL     1      -0.716   3.408   1.305  0.00  0.00    -0.049 C 
BRANCH  18  19
ATOM     19  C   UNL     1      -1.879   3.551   0.321  0.00  0.00    +0.137 C 
BRANCH  19  20
ATOM     20  O   UNL     1      -3.107   3.251   0.988  0.00  0.00    -0.397 OA
ATOM     21  H   UNL     1      -3.880   3.247   0.407  0.00  0.00    +0.209 HD
ENDBRANCH  19  20
ENDBRANCH  18  19
ENDBRANCH   1  18
BRANCH   1  22
ATOM     22  C   UNL     1       0.238   1.897   2.939  0.00  0.00    -0.036 C 
BRANCH  22  23
ATOM     23  C   UNL     1      -0.475   2.464   4.139  0.00  0.00    +0.001 A 
ATOM     24  C   UNL     1      -1.185   1.642   4.954  0.00  0.00    +0.017 A 
ATOM     25  C   UNL     1      -1.866   2.222   6.110  0.00  0.00    +0.002 A 
ATOM     26  C   UNL     1      -2.614   1.423   6.984  0.00  0.00    +0.059 A 
ATOM     27  C   UNL     1      -3.248   1.998   8.065  0.00  0.00    +0.163 A 
ATOM     28  C   UNL     1      -3.144   3.374   8.292  0.00  0.00    +0.164 A 
ATOM     29  C   UNL     1      -2.405   4.171   7.434  0.00  0.00    +0.075 A 
ATOM     30  C   UNL     1      -1.762   3.607   6.340  0.00  0.00    +0.053 A 
ATOM     31  N   UNL     1      -1.023   4.388   5.474  0.00  0.00    -0.322 N 
ATOM     32  H   UNL     1      -0.951   5.342   5.633  0.00  0.00    +0.169 HD
ATOM     33  C   UNL     1      -0.397   3.844   4.416  0.00  0.00    +0.251 A 
ATOM     34  O   UNL     1       0.251   4.562   3.675  0.00  0.00    -0.268 OA
ATOM     35  O   UNL     1      -3.763   3.949   9.359  0.00  0.00    -0.485 OA
ATOM     36  C   UNL     1      -4.801   3.190   9.987  0.00  0.00    +0.270 C 
ATOM     37  C   UNL     1      -4.294   1.755  10.187  0.00  0.00    +0.270 C 
ATOM     38  O   UNL     1      -3.976   1.209   8.903  0.00  0.00    -0.485 OA
ENDBRANCH  22  23
ENDBRANCH   1  22
TORSDOF 9
