REMARK  Name = ZINC57179598
REMARK  7 active torsions:
REMARK  status: ('A' for Active; 'I' for Inactive)
REMARK    1  A    between atoms: C_1  and  C_2
REMARK    2  A    between atoms: C_2  and  O_3
REMARK    3  A    between atoms: O_3  and  C_4
REMARK    4  A    between atoms: N_14  and  C_15
REMARK    5  A    between atoms: C_15  and  C_16
REMARK    6  A    between atoms: C_16  and  C_17
REMARK    7  A    between atoms: N_19  and  C_20
REMARK                            x       y       z     vdW  Elec       q    Type
REMARK                         _______ _______ _______ _____ _____    ______ ____
ROOT
ATOM      1  C   UNL     1      -1.499  -1.832   0.007  0.00  0.00    +0.403 C 
ATOM      2  O   UNL     1      -0.525  -2.559  -0.002  0.00  0.00    -0.226 OA
ATOM      3  N   UNL     1      -2.737  -2.364   0.016  0.00  0.00    -0.264 N 
ATOM      4  C   UNL     1      -3.924  -1.496   0.021  0.00  0.00    +0.130 C 
ATOM      5  C   UNL     1      -4.815  -1.879  -1.167  0.00  0.00    +0.128 C 
ATOM      6  N   UNL     1      -5.003  -3.337  -1.163  0.00  0.00    -0.283 N 
ATOM      7  C   UNL     1      -3.816  -4.204  -1.167  0.00  0.00    +0.128 C 
ATOM      8  C   UNL     1      -2.925  -3.821   0.015  0.00  0.00    +0.130 C 
ATOM      9  C   UNL     1      -6.241  -3.869  -1.154  0.00  0.00    +0.302 C 
ATOM     10  O   UNL     1      -7.213  -3.145  -1.054  0.00  0.00    -0.253 OA
ATOM     11  N   UNL     1      -6.402  -5.203  -1.256  0.00  0.00    -0.299 N 
ATOM     12  H   UNL     1      -5.627  -5.786  -1.263  0.00  0.00    +0.150 HD
ENDROOT
BRANCH   1  13
ATOM     13  O   UNL     1      -1.341  -0.494   0.009  0.00  0.00    -0.451 OA
BRANCH  13  15
ATOM     14  C   UNL     1      -0.021   1.530   0.002  0.00  0.00    +0.048 C 
ATOM     15  C   UNL     1       0.000   0.000  -0.001  0.00  0.00    +0.230 C 
ENDBRANCH  13  15
ENDBRANCH   1  13
BRANCH  11  16
ATOM     16  C   UNL     1      -7.748  -5.773  -1.357  0.00  0.00    +0.115 C 
BRANCH  16  17
ATOM     17  C   UNL     1      -7.651  -7.296  -1.461  0.00  0.00    +0.114 C 
BRANCH  17  18
ATOM     18  C   UNL     1      -9.035  -7.883  -1.564  0.00  0.00    +0.215 C 
ATOM     19  O   UNL     1     -10.004  -7.154  -1.556  0.00  0.00    -0.276 OA
ATOM     20  N   UNL     1      -9.196  -9.217  -1.666  0.00  0.00    -0.312 N 
ATOM     21  H   UNL     1      -8.421  -9.800  -1.673  0.00  0.00    +0.149 HD
BRANCH  20  22
ATOM     22  C   UNL     1     -10.542  -9.787  -1.767  0.00  0.00    +0.073 C 
ATOM     23  C   UNL     1     -11.123  -9.972  -0.364  0.00  0.00    +0.022 C 
ATOM     24  C   UNL     1     -12.529 -10.567  -0.469  0.00  0.00    +0.002 C 
ATOM     25  C   UNL     1     -12.457 -11.923  -1.174  0.00  0.00    +0.000 C 
ATOM     26  C   UNL     1     -11.876 -11.738  -2.577  0.00  0.00    +0.002 C 
ATOM     27  C   UNL     1     -10.470 -11.143  -2.472  0.00  0.00    +0.022 C 
ENDBRANCH  20  22
ENDBRANCH  17  18
ENDBRANCH  16  17
ENDBRANCH  11  16
TORSDOF 6
