REMARK  Name = ZINC28903859
REMARK  6 active torsions:
REMARK  status: ('A' for Active; 'I' for Inactive)
REMARK    1  A    between atoms: C_1  and  C_2
REMARK    2  A    between atoms: C_4  and  N_15
REMARK    3  A    between atoms: N_5  and  C_7
REMARK    4  A    between atoms: C_16  and  C_18
REMARK    5  A    between atoms: C_18  and  N_19
REMARK    6  A    between atoms: C_23  and  C_26
REMARK                            x       y       z     vdW  Elec       q    Type
REMARK                         _______ _______ _______ _____ _____    ______ ____
ROOT
ATOM      1  C   UNL     1      -2.941   4.607   7.677  0.00  0.00    +0.067 C 
ATOM      2  C   UNL     1      -1.851   3.666   7.234  0.00  0.00    +0.062 A 
ATOM      3  C   UNL     1      -1.625   3.235   5.924  0.00  0.00    +0.068 A 
ATOM      4  C   UNL     1      -0.555   2.394   5.941  0.00  0.00    +0.124 A 
ATOM      5  N   UNL     1      -0.121   2.311   7.220  0.00  0.00    -0.246 N 
ATOM      6  N   UNL     1      -0.951   3.118   8.009  0.00  0.00    -0.175 NA
ENDROOT
BRANCH   5   7
ATOM      7  C   UNL     1       1.016   1.518   7.695  0.00  0.00    +0.132 C 
ATOM      8  C   UNL     1       0.527   0.495   8.733  0.00  0.00    +0.051 C 
ATOM      9  C   UNL     1       1.772  -0.108   9.443  0.00  0.00    +0.168 C 
ATOM     10  S   UNL     1       2.809   1.402   9.643  0.00  0.00    -0.029 S 
ATOM     11  O   UNL     1       2.542   1.981  10.913  0.00  0.00    -0.174 OA
ATOM     12  O   UNL     1       4.149   1.094   9.283  0.00  0.00    -0.174 OA
ATOM     13  C   UNL     1       2.066   2.458   8.335  0.00  0.00    +0.192 C 
ENDBRANCH   5   7
BRANCH   4  14
ATOM     14  N   UNL     1      -0.002   1.741   4.840  0.00  0.00    -0.272 N 
ATOM     15  C   UNL     1      -0.538   1.914   3.615  0.00  0.00    +0.202 C 
ATOM     16  O   UNL     1      -1.501   2.638   3.471  0.00  0.00    -0.278 OA
ATOM     17  H   UNL     1       0.871   1.085   4.970  0.00  0.00    +0.156 HD
BRANCH  15  18
ATOM     18  C   UNL     1       0.059   1.209   2.425  0.00  0.00    +0.019 C 
BRANCH  18  19
ATOM     19  N   UNL     1      -0.700   1.559   1.216  0.00  0.00    +0.386 N 
ATOM     20  C   UNL     1      -2.071   1.038   1.287  0.00  0.00    -0.078 C 
ATOM     21  C   UNL     1      -2.872   1.544   0.085  0.00  0.00    -0.018 C 
ATOM     22  C   UNL     1      -2.194   1.077  -1.207  0.00  0.00    -0.001 C 
ATOM     23  C   UNL     1      -0.752   1.593  -1.232  0.00  0.00    -0.031 C 
ATOM     24  C   UNL     1      -0.013   1.086   0.008  0.00  0.00    -0.075 C 
ATOM     25  C   UNL     1      -0.049   1.081  -2.491  0.00  0.00    +0.005 C 
ATOM     26  H   UNL     1      -0.760   2.656   1.159  0.00  0.00    -0.081 HD
ENDBRANCH  18  19
ENDBRANCH  15  18
ENDBRANCH   4  14
TORSDOF 4
