REMARK  Name = ZINC09500377
REMARK  8 active torsions:
REMARK  status: ('A' for Active; 'I' for Inactive)
REMARK    1  A    between atoms: C_4  and  C_7
REMARK    2  A    between atoms: C_7  and  C_8
REMARK    3  A    between atoms: C_8  and  C_31
REMARK    4  A    between atoms: N_11  and  C_15
REMARK    5  A    between atoms: C_15  and  C_16
REMARK    6  A    between atoms: N_18  and  C_19
REMARK    7  A    between atoms: C_19  and  C_20
REMARK    8  A    between atoms: C_20  and  C_21
REMARK                            x       y       z     vdW  Elec       q    Type
REMARK                         _______ _______ _______ _____ _____    ______ ____
ROOT
ATOM      1  C   UNL     1       2.943   7.545  -0.620  0.00  0.00    +0.142 C 
ATOM      2  C   UNL     1       2.962   6.111  -1.108  0.00  0.00    +0.252 C 
ATOM      3  O   UNL     1       2.962   5.729  -2.259  0.00  0.00    -0.272 OA
ATOM      4  N   UNL     1       2.978   5.348   0.002  0.00  0.00    -0.215 N 
ATOM      5  C   UNL     1       2.979   6.093   1.113  0.00  0.00    +0.310 C 
ATOM      6  O   UNL     1       2.996   5.631   2.237  0.00  0.00    -0.252 OA
ATOM      7  N   UNL     1       2.959   7.412   0.847  0.00  0.00    -0.281 N 
ATOM      8  H   UNL     1       2.955   8.134   1.495  0.00  0.00    +0.152 HD
ENDROOT
BRANCH   1   9
ATOM      9  C   UNL     1       1.692   8.252  -1.074  0.00  0.00    -0.015 A 
ATOM     10  C   UNL     1       1.708   9.013  -2.228  0.00  0.00    +0.006 A 
ATOM     11  C   UNL     1       0.559   9.657  -2.647  0.00  0.00    +0.000 A 
ATOM     12  C   UNL     1      -0.604   9.547  -1.908  0.00  0.00    +0.000 A 
ATOM     13  C   UNL     1      -0.619   8.790  -0.752  0.00  0.00    +0.000 A 
ATOM     14  C   UNL     1       0.529   8.143  -0.335  0.00  0.00    +0.006 A 
ENDBRANCH   1   9
BRANCH   1  15
ATOM     15  C   UNL     1       4.187   8.292  -1.106  0.00  0.00    +0.075 C 
BRANCH  15  19
ATOM     16  C   UNL     1       7.688   6.156   0.092  0.00  0.00    +0.000 A 
ATOM     17  C   UNL     1       7.093   5.882  -1.126  0.00  0.00    +0.000 A 
ATOM     18  C   UNL     1       5.961   6.573  -1.513  0.00  0.00    +0.004 A 
ATOM     19  C   UNL     1       5.422   7.538  -0.683  0.00  0.00    -0.045 A 
ATOM     20  C   UNL     1       6.020   7.817   0.532  0.00  0.00    +0.004 A 
ATOM     21  C   UNL     1       7.150   7.122   0.922  0.00  0.00    +0.000 A 
ENDBRANCH  15  19
ENDBRANCH   1  15
BRANCH   4  22
ATOM     22  C   UNL     1       2.998   3.883  -0.006  0.00  0.00    +0.213 C 
BRANCH  22  23
ATOM     23  C   UNL     1       1.584   3.361   0.005  0.00  0.00    +0.231 C 
ATOM     24  O   UNL     1       0.652   4.137   0.018  0.00  0.00    -0.274 OA
ATOM     25  N   UNL     1       1.356   2.033   0.000  0.00  0.00    -0.314 N 
ATOM     26  H   UNL     1       2.102   1.413  -0.010  0.00  0.00    +0.149 HD
BRANCH  25  27
ATOM     27  C   UNL     1      -0.019   1.526   0.010  0.00  0.00    +0.109 C 
BRANCH  27  28
ATOM     28  C   UNL     1       0.002  -0.004   0.002  0.00  0.00    +0.056 C 
BRANCH  28  29
ATOM     29  C   UNL     1      -1.412  -0.526   0.013  0.00  0.00    -0.021 A 
ATOM     30  C   UNL     1      -2.116  -0.902   1.092  0.00  0.00    +0.087 A 
ATOM     31  N   UNL     1      -3.364  -1.317   0.713  0.00  0.00    -0.360 N 
ATOM     32  H   UNL     1      -4.053  -1.634   1.318  0.00  0.00    +0.165 HD
ATOM     33  C   UNL     1      -3.493  -1.225  -0.654  0.00  0.00    +0.047 A 
ATOM     34  C   UNL     1      -2.276  -0.725  -1.153  0.00  0.00    +0.003 A 
ATOM     35  C   UNL     1      -2.116  -0.524  -2.525  0.00  0.00    +0.010 A 
ATOM     36  C   UNL     1      -3.143  -0.815  -3.378  0.00  0.00    +0.001 A 
ATOM     37  C   UNL     1      -4.345  -1.309  -2.891  0.00  0.00    +0.002 A 
ATOM     38  C   UNL     1      -4.525  -1.514  -1.540  0.00  0.00    +0.026 A 
ENDBRANCH  28  29
ENDBRANCH  27  28
ENDBRANCH  25  27
ENDBRANCH  22  23
ENDBRANCH   4  22
TORSDOF 8
