REMARK  Name = ZINC35936890
REMARK  7 active torsions:
REMARK  status: ('A' for Active; 'I' for Inactive)
REMARK    1  A    between atoms: C_1  and  C_2
REMARK    2  A    between atoms: C_2  and  C_3
REMARK    3  A    between atoms: C_2  and  C_4
REMARK    4  A    between atoms: C_4  and  C_5
REMARK    5  A    between atoms: C_9  and  C_14
REMARK    6  A    between atoms: C_18  and  O_20
REMARK    7  A    between atoms: O_20  and  C_21
REMARK                            x       y       z     vdW  Elec       q    Type
REMARK                         _______ _______ _______ _____ _____    ______ ____
ROOT
ATOM      1  C   UNL     1      -0.542   0.888  -1.143  0.00  0.00    +0.135 A 
ATOM      2  N   UNL     1      -1.049   2.104  -1.226  0.00  0.00    -0.216 NA
ATOM      3  C   UNL     1      -1.782   2.470  -2.275  0.00  0.00    +0.138 A 
ATOM      4  C   UNL     1      -2.005   1.531  -3.293  0.00  0.00    +0.108 A 
ATOM      5  C   UNL     1      -2.731   1.541  -4.567  0.00  0.00    +0.126 A 
ATOM      6  N   UNL     1      -2.587   0.355  -5.101  0.00  0.00    -0.075 NA
ATOM      7  O   UNL     1      -1.798  -0.453  -4.250  0.00  0.00    -0.334 OA
ATOM      8  C   UNL     1      -1.446   0.249  -3.161  0.00  0.00    +0.264 A 
ATOM      9  N   UNL     1      -0.722  -0.022  -2.078  0.00  0.00    -0.195 NA
ATOM     10  N   UNL     1      -2.311   3.743  -2.358  0.00  0.00    -0.318 N 
ATOM     11  C   UNL     1      -3.479   4.131  -1.552  0.00  0.00    +0.087 C 
ATOM     12  C   UNL     1      -3.157   5.445  -0.831  0.00  0.00    -0.063 C 
ATOM     13  N   UNL     1      -2.737   6.451  -1.814  0.00  0.00    +0.381 N 
ATOM     14  C   UNL     1      -1.482   6.034  -2.454  0.00  0.00    -0.063 C 
ATOM     15  C   UNL     1      -1.718   4.751  -3.251  0.00  0.00    +0.087 C 
ATOM     16  H   UNL     1      -3.454   6.553  -2.517  0.00  0.00    -0.086 HD
ATOM     17  H   UNL     1      -2.598   7.336  -1.350  0.00  0.00    -0.086 HD
ENDROOT
BRANCH   5  18
ATOM     18  C   UNL     1      -3.487   2.680  -5.142  0.00  0.00    +0.008 A 
ATOM     19  C   UNL     1      -4.422   3.362  -4.364  0.00  0.00    +0.010 A 
ATOM     20  C   UNL     1      -5.124   4.422  -4.901  0.00  0.00    +0.004 A 
ATOM     21  C   UNL     1      -4.904   4.810  -6.209  0.00  0.00    +0.046 A 
ATOM     22  C   UNL     1      -3.976   4.136  -6.991  0.00  0.00    +0.129 A 
ATOM     23  C   UNL     1      -3.262   3.075  -6.458  0.00  0.00    +0.056 A 
BRANCH  22  24
ATOM     24  O   UNL     1      -3.764   4.521  -8.277  0.00  0.00    -0.456 OA
BRANCH  24  25
ATOM     25  C   UNL     1      -2.809   3.866  -8.989  0.00  0.00    +0.128 A 
ATOM     26  C   UNL     1      -3.072   2.608  -9.512  0.00  0.00    +0.046 A 
ATOM     27  C   UNL     1      -2.100   1.946 -10.236  0.00  0.00    +0.004 A 
ATOM     28  C   UNL     1      -0.866   2.535 -10.439  0.00  0.00    +0.000 A 
ATOM     29  C   UNL     1      -0.601   3.789  -9.919  0.00  0.00    +0.004 A 
ATOM     30  C   UNL     1      -1.571   4.458  -9.199  0.00  0.00    +0.046 A 
ENDBRANCH  24  25
ENDBRANCH  22  24
ENDBRANCH   5  18
BRANCH   1  31
ATOM     31  C   UNL     1       0.280   0.528   0.067  0.00  0.00    +0.079 C 
BRANCH  31  33
ATOM     32  C   UNL     1       1.907   2.376  -0.358  0.00  0.00    +0.007 C 
ATOM     33  C   UNL     1       1.750   0.863  -0.197  0.00  0.00    -0.010 C 
ATOM     34  C   UNL     1       2.601   0.384   0.980  0.00  0.00    +0.007 C 
ENDBRANCH  31  33
ENDBRANCH   1  31
TORSDOF 5
