REMARK  Name = ZINC05352206
REMARK  8 active torsions:
REMARK  status: ('A' for Active; 'I' for Inactive)
REMARK    1  A    between atoms: C_1  and  N_51
REMARK    2  A    between atoms: C_2  and  N_51
REMARK    3  A    between atoms: C_3  and  C_4
REMARK    4  A    between atoms: C_3  and  N_51
REMARK    5  A    between atoms: C_4  and  C_5
REMARK    6  A    between atoms: C_5  and  N_6
REMARK    7  A    between atoms: C_12  and  C_22
REMARK    8  A    between atoms: C_17  and  O_21
REMARK                            x       y       z     vdW  Elec       q    Type
REMARK                         _______ _______ _______ _____ _____    ______ ____
ROOT
ATOM      1  N   UNL     1       1.105  -0.707  -1.774  0.00  0.00    -0.318 N 
ATOM      2  C   UNL     1       0.781  -1.121  -3.025  0.00  0.00    +0.204 A 
ATOM      3  N   UNL     1       1.693  -1.484  -3.880  0.00  0.00    -0.202 NA
ATOM      4  C   UNL     1       3.004  -1.481  -3.573  0.00  0.00    +0.229 A 
ATOM      5  C   UNL     1       3.408  -1.083  -2.335  0.00  0.00    +0.066 A 
ATOM      6  C   UNL     1       2.432  -0.680  -1.393  0.00  0.00    +0.115 A 
ATOM      7  C   UNL     1       4.862  -1.063  -1.954  0.00  0.00    +0.091 C 
ATOM      8  C   UNL     1       5.666  -1.905  -2.908  0.00  0.00    +0.007 A 
ATOM      9  C   UNL     1       6.938  -2.316  -2.549  0.00  0.00    +0.012 A 
ATOM     10  C   UNL     1       7.688  -3.089  -3.412  0.00  0.00    +0.046 A 
ATOM     11  C   UNL     1       7.167  -3.457  -4.645  0.00  0.00    +0.120 A 
ATOM     12  C   UNL     1       5.894  -3.047  -5.007  0.00  0.00    +0.092 A 
ATOM     13  C   UNL     1       5.140  -2.269  -4.138  0.00  0.00    +0.138 A 
ATOM     14  O   UNL     1       3.898  -1.875  -4.506  0.00  0.00    -0.437 OA
ATOM     15  H   UNL     1       2.174   0.003   0.522  0.00  0.00    +0.157 HD
ATOM     16  N   UNL     1       2.851  -0.294  -0.181  0.00  0.00    -0.384 N 
ATOM     17  H   UNL     1       3.853  -0.297   0.040  0.00  0.00    +0.157 HD
ENDROOT
BRANCH   7  18
ATOM     18  C   UNL     1       5.368   0.355  -1.993  0.00  0.00    -0.035 A 
ATOM     19  C   UNL     1       5.325   1.073  -3.174  0.00  0.00    +0.004 A 
ATOM     20  C   UNL     1       5.785   2.375  -3.208  0.00  0.00    +0.000 A 
ATOM     21  C   UNL     1       6.297   2.958  -2.064  0.00  0.00    +0.000 A 
ATOM     22  C   UNL     1       6.345   2.240  -0.884  0.00  0.00    +0.000 A 
ATOM     23  C   UNL     1       5.881   0.938  -0.849  0.00  0.00    +0.004 A 
ENDBRANCH   7  18
BRANCH  11  24
ATOM     24  O   UNL     1       7.904  -4.219  -5.495  0.00  0.00    -0.507 OA
ATOM     25  H   UNL     1       7.779  -5.171  -5.380  0.00  0.00    +0.292 HD
ENDBRANCH  11  24
BRANCH   1  26
ATOM     26  C   UNL     1       0.057  -0.298  -0.836  0.00  0.00    +0.123 C 
BRANCH  26  27
ATOM     27  C   UNL     1      -0.113   1.221  -0.891  0.00  0.00    +0.003 C 
BRANCH  27  28
ATOM     28  C   UNL     1      -1.207   1.648   0.089  0.00  0.00    -0.078 C 
BRANCH  28  31
ATOM     29  C   UNL     1      -1.887   3.532  -1.272  0.00  0.00    -0.097 C 
ATOM     30  C   UNL     1      -2.237   3.580   1.123  0.00  0.00    -0.097 C 
ATOM     31  N   UNL     1      -1.344   3.119   0.039  0.00  0.00    +0.376 N 
ATOM     32  H   UNL     1      -0.418   3.545   0.166  0.00  0.00    -0.083 HD
ENDBRANCH  28  31
ENDBRANCH  27  28
ENDBRANCH  26  27
ENDBRANCH   1  26
TORSDOF 6
