REMARK  Name = ZINC24034258
REMARK  6 active torsions:
REMARK  status: ('A' for Active; 'I' for Inactive)
REMARK    1  A    between atoms: C_1  and  O_2
REMARK    2  A    between atoms: O_2  and  C_3
REMARK    3  A    between atoms: C_7  and  C_13
REMARK    4  A    between atoms: C_8  and  O_9
REMARK    5  A    between atoms: O_9  and  C_10
REMARK    6  A    between atoms: N_24  and  C_25
REMARK                            x       y       z     vdW  Elec       q    Type
REMARK                         _______ _______ _______ _____ _____    ______ ____
ROOT
ATOM      1  C   UNL     1      -1.294   3.398  -0.509  0.00  0.00    +0.201 C 
ATOM      2  N   UNL     1      -0.087   4.034   0.031  0.00  0.00    -0.321 N 
ATOM      3  C   UNL     1       1.145   3.428  -0.193  0.00  0.00    +0.041 A 
ATOM      4  C   UNL     1       2.317   4.162  -0.257  0.00  0.00    +0.024 A 
ATOM      5  C   UNL     1       3.521   3.512  -0.453  0.00  0.00    +0.002 A 
ATOM      6  C   UNL     1       3.564   2.133  -0.583  0.00  0.00    +0.001 A 
ATOM      7  C   UNL     1       2.404   1.388  -0.526  0.00  0.00    +0.015 A 
ATOM      8  C   UNL     1       1.183   2.030  -0.341  0.00  0.00    +0.058 A 
ATOM      9  C   UNL     1      -0.084   1.281  -0.278  0.00  0.00    +0.254 C 
ATOM     10  O   UNL     1      -0.076   0.066  -0.226  0.00  0.00    -0.270 OA
ATOM     11  N   UNL     1      -1.253   1.953  -0.284  0.00  0.00    -0.244 N 
ATOM     12  H   UNL     1      -0.167   4.972   0.600  0.00  0.00    +0.148 HD
ENDROOT
BRANCH  11  13
ATOM     13  C   UNL     1      -2.448   1.257  -0.067  0.00  0.00    +0.042 A 
ATOM     14  C   UNL     1      -2.888   0.325  -0.998  0.00  0.00    +0.027 A 
ATOM     15  C   UNL     1      -4.068  -0.362  -0.786  0.00  0.00    +0.051 A 
ATOM     16  C   UNL     1      -4.815  -0.124   0.357  0.00  0.00    +0.166 A 
ATOM     17  C   UNL     1      -4.376   0.810   1.293  0.00  0.00    +0.168 A 
ATOM     18  C   UNL     1      -3.191   1.494   1.081  0.00  0.00    +0.073 A 
ATOM     19  O   UNL     1      -5.278   0.859   2.316  0.00  0.00    -0.453 OA
ATOM     20  C   UNL     1      -6.060  -0.344   2.198  0.00  0.00    +0.466 C 
ATOM     21  O   UNL     1      -5.992  -0.660   0.795  0.00  0.00    -0.453 OA
ENDBRANCH  11  13
BRANCH   1  26
ATOM     22  C   UNL     1      -2.682   3.898  -3.995  0.00  0.00    +0.162 A 
ATOM     23  C   UNL     1      -1.524   4.149  -4.714  0.00  0.00    +0.049 A 
ATOM     24  C   UNL     1      -0.300   4.156  -4.073  0.00  0.00    +0.004 A 
ATOM     25  C   UNL     1      -0.227   3.918  -2.713  0.00  0.00    +0.011 A 
ATOM     26  C   UNL     1      -1.378   3.662  -1.990  0.00  0.00    +0.037 A 
ATOM     27  C   UNL     1      -2.608   3.653  -2.627  0.00  0.00    +0.175 A 
BRANCH  22  29
ATOM     28  C   UNL     1      -3.886   4.150  -6.030  0.00  0.00    +0.277 C 
ATOM     29  O   UNL     1      -3.887   3.891  -4.625  0.00  0.00    -0.491 OA
ENDBRANCH  22  29
BRANCH  27  30
ATOM     30  O   UNL     1      -3.742   3.407  -1.917  0.00  0.00    -0.430 OA
BRANCH  30  31
ATOM     31  C   UNL     1      -4.481   4.542  -1.461  0.00  0.00    +0.541 C 
ATOM     32  F   UNL     1      -3.639   5.383  -0.726  0.00  0.00    -0.166 F 
ATOM     33  F   UNL     1      -4.991   5.239  -2.562  0.00  0.00    -0.166 F 
ENDBRANCH  30  31
ENDBRANCH  27  30
ENDBRANCH   1  26
TORSDOF 5
