REMARK  Name = ZINC03095137
REMARK  11 active torsions:
REMARK  status: ('A' for Active; 'I' for Inactive)
REMARK    1  A    between atoms: C_1  and  C_2
REMARK    2  A    between atoms: C_4  and  C_34
REMARK    3  A    between atoms: C_5  and  N_9
REMARK    4  A    between atoms: C_6  and  C_8
REMARK    5  A    between atoms: C_10  and  C_12
REMARK    6  A    between atoms: C_12  and  C_14
REMARK    7  A    between atoms: C_12  and  S_15
REMARK    8  A    between atoms: S_15  and  C_16
REMARK    9  A    between atoms: C_21  and  N_25
REMARK   10  A    between atoms: C_26  and  C_27
REMARK   11  A    between atoms: C_32  and  O_33
REMARK                            x       y       z     vdW  Elec       q    Type
REMARK                         _______ _______ _______ _____ _____    ______ ____
ROOT
ATOM      1  C   UNL     1       6.747   9.675   0.452  0.00  0.00    +0.136 A 
ATOM      2  N   UNL     1       6.912   8.372   0.494  0.00  0.00    -0.233 NA
ATOM      3  C   UNL     1       5.874   7.509   0.513  0.00  0.00    +0.080 A 
ATOM      4  C   UNL     1       5.918   6.094   0.556  0.00  0.00    +0.031 A 
ATOM      5  C   UNL     1       4.778   5.358   0.571  0.00  0.00    +0.030 A 
ATOM      6  C   UNL     1       3.515   5.965   0.543  0.00  0.00    +0.065 A 
ATOM      7  C   UNL     1       3.435   7.360   0.494  0.00  0.00    +0.045 A 
ATOM      8  C   UNL     1       4.588   8.098   0.485  0.00  0.00    +0.042 A 
ATOM      9  S   UNL     1       4.967   9.833   0.434  0.00  0.00    -0.061 S 
ENDROOT
BRANCH   6  10
ATOM     10  N   UNL     1       2.379   5.204   0.557  0.00  0.00    -0.255 NA
ATOM     11  C   UNL     1       2.287   4.154  -0.210  0.00  0.00    +0.123 C 
BRANCH  11  12
ATOM     12  C   UNL     1       1.065   3.336  -0.194  0.00  0.00    +0.034 A 
ATOM     13  C   UNL     1       0.963   2.209  -1.016  0.00  0.00    +0.013 A 
ATOM     14  C   UNL     1      -0.185   1.447  -0.996  0.00  0.00    +0.001 A 
ATOM     15  C   UNL     1      -1.241   1.795  -0.169  0.00  0.00    +0.004 A 
ATOM     16  C   UNL     1      -1.151   2.902   0.652  0.00  0.00    +0.046 A 
ATOM     17  C   UNL     1      -0.004   3.681   0.645  0.00  0.00    +0.125 A 
BRANCH  17  18
ATOM     18  O   UNL     1       0.083   4.772   1.448  0.00  0.00    -0.506 OA
ATOM     19  H   UNL     1      -0.234   5.588   1.038  0.00  0.00    +0.292 HD
ENDBRANCH  17  18
ENDBRANCH  11  12
ENDBRANCH   6  10
BRANCH   1  20
ATOM     20  S   UNL     1       7.969  10.944   0.421  0.00  0.00    -0.086 S 
BRANCH  20  21
ATOM     21  C   UNL     1       9.471   9.934   0.464  0.00  0.00    +0.136 C 
ATOM     22  C   UNL     1       9.563   9.103  -0.817  0.00  0.00    +0.029 C 
BRANCH  21  24
ATOM     23  N   UNL     1      11.849  10.337   1.014  0.00  0.00    -0.284 N 
ATOM     24  C   UNL     1      10.677  10.832   0.569  0.00  0.00    +0.230 C 
ATOM     25  O   UNL     1      10.593  11.999   0.252  0.00  0.00    -0.274 OA
ATOM     26  H   UNL     1      11.899   9.422   1.334  0.00  0.00    +0.155 HD
BRANCH  23  31
ATOM     27  C   UNL     1      16.488  13.602   1.022  0.00  0.00    +0.044 C 
ATOM     28  C   UNL     1      15.255  12.735   1.020  0.00  0.00    -0.050 A 
ATOM     29  C   UNL     1      14.505  12.605  -0.134  0.00  0.00    +0.008 A 
ATOM     30  C   UNL     1      13.375  11.811  -0.139  0.00  0.00    -0.029 A 
ATOM     31  C   UNL     1      12.993  11.142   1.016  0.00  0.00    +0.039 A 
ATOM     32  C   UNL     1      13.746  11.279   2.175  0.00  0.00    -0.029 A 
ATOM     33  C   UNL     1      14.878  12.070   2.172  0.00  0.00    +0.008 A 
ATOM     34  C   UNL     1      13.331  10.560   3.433  0.00  0.00    +0.045 C 
ATOM     35  C   UNL     1      12.557  11.671  -1.397  0.00  0.00    +0.045 C 
ENDBRANCH  23  31
ENDBRANCH  21  24
ENDBRANCH  20  21
ENDBRANCH   1  20
TORSDOF 7
