REMARK  Name = ZINC19500045
REMARK  9 active torsions:
REMARK  status: ('A' for Active; 'I' for Inactive)
REMARK    1  A    between atoms: C_1  and  C_2
REMARK    2  A    between atoms: C_2  and  C_3
REMARK    3  A    between atoms: C_3  and  C_5
REMARK    4  A    between atoms: C_3  and  N_6
REMARK    5  A    between atoms: C_9  and  C_17
REMARK    6  A    between atoms: C_11  and  C_13
REMARK    7  A    between atoms: N_20  and  C_23
REMARK    8  A    between atoms: C_23  and  C_24
REMARK    9  A    between atoms: C_30  and  O_32
REMARK                            x       y       z     vdW  Elec       q    Type
REMARK                         _______ _______ _______ _____ _____    ______ ____
ROOT
ATOM      1  N   UNL     1       0.634  -1.958  -1.325  0.00  0.00    -0.240 N 
ATOM      2  C   UNL     1       0.056  -2.671  -2.341  0.00  0.00    +0.163 A 
ATOM      3  C   UNL     1       0.195  -4.033  -2.007  0.00  0.00    +0.085 A 
ATOM      4  C   UNL     1      -0.311  -5.005  -2.875  0.00  0.00    -0.027 A 
ATOM      5  C   UNL     1      -0.928  -4.588  -4.026  0.00  0.00    +0.037 A 
ATOM      6  C   UNL     1      -1.032  -3.230  -4.295  0.00  0.00    +0.146 A 
ATOM      7  N   UNL     1      -0.551  -2.326  -3.470  0.00  0.00    -0.223 NA
ATOM      8  C   UNL     1       0.895  -4.075  -0.724  0.00  0.00    +0.241 A 
ATOM      9  N   UNL     1       1.137  -2.844  -0.367  0.00  0.00    -0.131 NA
ENDROOT
BRANCH   4  10
ATOM     10  C   UNL     1      -0.182  -6.472  -2.555  0.00  0.00    +0.016 C 
ATOM     11  C   UNL     1       0.608  -7.171  -3.665  0.00  0.00    -0.011 C 
ATOM     12  C   UNL     1       0.666  -8.673  -3.374  0.00  0.00    -0.078 C 
ATOM     13  N   UNL     1      -0.695  -9.218  -3.321  0.00  0.00    +0.382 N 
ATOM     14  C   UNL     1      -1.436  -8.604  -2.213  0.00  0.00    -0.078 C 
ATOM     15  C   UNL     1      -1.575  -7.100  -2.460  0.00  0.00    -0.011 C 
ATOM     16  H   UNL     1      -1.169  -9.022  -4.191  0.00  0.00    -0.081 HD
BRANCH  13  17
ATOM     17  C   UNL     1      -0.631 -10.672  -3.119  0.00  0.00    -0.043 C 
BRANCH  17  18
ATOM     18  C   UNL     1      -2.021 -11.251  -3.188  0.00  0.00    -0.061 A 
ATOM     19  C   UNL     1      -2.801 -11.360  -2.047  0.00  0.00    +0.021 A 
ATOM     20  C   UNL     1      -4.071 -11.896  -2.149  0.00  0.00    +0.111 A 
ATOM     21  N   UNL     1      -4.541 -12.300  -3.312  0.00  0.00    -0.263 NA
ATOM     22  C   UNL     1      -3.827 -12.212  -4.417  0.00  0.00    +0.111 A 
ATOM     23  C   UNL     1      -2.551 -11.681  -4.394  0.00  0.00    +0.021 A 
ENDBRANCH  17  18
ENDBRANCH  13  17
ENDBRANCH   4  10
BRANCH   6  24
ATOM     24  C   UNL     1      -1.711  -2.782  -5.563  0.00  0.00    +0.434 C 
ATOM     25  F   UNL     1      -3.078  -2.606  -5.322  0.00  0.00    -0.164 F 
ATOM     26  F   UNL     1      -1.153  -1.571  -5.988  0.00  0.00    -0.164 F 
ATOM     27  F   UNL     1      -1.534  -3.751  -6.556  0.00  0.00    -0.164 F 
ENDBRANCH   6  24
BRANCH   1  28
ATOM     28  C   UNL     1       0.718  -0.497  -1.257  0.00  0.00    +0.106 C 
ATOM     29  C   UNL     1       2.187  -0.073  -1.207  0.00  0.00    +0.032 C 
BRANCH  28  31
ATOM     30  C   UNL     1      -0.019   1.526   0.010  0.00  0.00    +0.006 C 
ATOM     31  C   UNL     1       0.002  -0.004   0.002  0.00  0.00    +0.023 C 
ENDBRANCH  28  31
ENDBRANCH   1  28
BRANCH   8  32
ATOM     32  O   UNL     1       1.238  -5.194  -0.033  0.00  0.00    -0.491 OA
ATOM     33  H   UNL     1       2.111  -5.543  -0.256  0.00  0.00    +0.294 HD
ENDBRANCH   8  32
TORSDOF 7
