REMARK  Name = ZINC32624080
REMARK  10 active torsions:
REMARK  status: ('A' for Active; 'I' for Inactive)
REMARK    1  A    between atoms: C_1  and  C_2
REMARK    2  A    between atoms: C_2  and  C_3
REMARK    3  A    between atoms: C_3  and  O_4
REMARK    4  A    between atoms: O_4  and  C_5
REMARK    5  A    between atoms: C_8  and  C_11
REMARK    6  A    between atoms: C_11  and  C_13
REMARK    7  A    between atoms: C_15  and  C_27
REMARK    8  A    between atoms: C_21  and  C_22
REMARK    9  A    between atoms: C_21  and  O_26
REMARK   10  A    between atoms: C_30  and  C_32
REMARK                            x       y       z     vdW  Elec       q    Type
REMARK                         _______ _______ _______ _____ _____    ______ ____
ROOT
ATOM      1  C   UNL     1       2.472   4.316   0.001  0.00  0.00    +0.147 C 
ATOM      2  C   UNL     1       2.897   4.592  -1.445  0.00  0.00    +0.156 C 
ATOM      3  N   UNL     1       1.907   5.466  -2.077  0.00  0.00    -0.289 N 
ATOM      4  C   UNL     1       1.192   6.345  -1.359  0.00  0.00    +0.302 C 
ATOM      5  O   UNL     1       0.390   7.054  -1.935  0.00  0.00    -0.253 OA
ATOM      6  N   UNL     1       1.327   6.472  -0.031  0.00  0.00    -0.264 N 
ATOM      7  C   UNL     1       2.284   5.654   0.723  0.00  0.00    +0.243 C 
ATOM      8  H   UNL     1       1.738   5.410  -3.163  0.00  0.00    +0.151 HD
ATOM      9  H   UNL     1       0.700   7.209   0.493  0.00  0.00    +0.153 HD
ENDROOT
BRANCH   2  10
ATOM     10  C   UNL     1       4.244   5.268  -1.453  0.00  0.00    +0.127 A 
ATOM     11  C   UNL     1       5.425   4.663  -1.685  0.00  0.00    +0.047 A 
ATOM     12  C   UNL     1       6.421   5.656  -1.603  0.00  0.00    +0.050 A 
ATOM     13  C   UNL     1       5.787   6.823  -1.313  0.00  0.00    +0.135 A 
ATOM     14  O   UNL     1       4.467   6.573  -1.226  0.00  0.00    -0.458 OA
BRANCH  13  15
ATOM     15  C   UNL     1       6.435   8.139  -1.127  0.00  0.00    +0.020 A 
ATOM     16  C   UNL     1       7.821   8.260  -1.239  0.00  0.00    +0.012 A 
ATOM     17  C   UNL     1       8.420   9.491  -1.069  0.00  0.00    +0.003 A 
ATOM     18  C   UNL     1       7.651  10.604  -0.776  0.00  0.00    +0.038 A 
ATOM     19  C   UNL     1       6.275  10.491  -0.658  0.00  0.00    +0.124 A 
ATOM     20  C   UNL     1       5.663   9.264  -0.831  0.00  0.00    +0.050 A 
ATOM     21  F   UNL     1       5.531  11.581  -0.371  0.00  0.00    -0.205 F 
ENDBRANCH  13  15
ENDBRANCH   2  10
BRANCH   7  22
ATOM     22  C   UNL     1       1.751   5.403   2.135  0.00  0.00    +0.436 C 
ATOM     23  F   UNL     1       2.663   4.615   2.845  0.00  0.00    -0.166 F 
ATOM     24  F   UNL     1       1.580   6.625   2.793  0.00  0.00    -0.166 F 
ATOM     25  F   UNL     1       0.522   4.739   2.058  0.00  0.00    -0.166 F 
ENDBRANCH   7  22
BRANCH   1  26
ATOM     26  C   UNL     1       1.174   3.550   0.009  0.00  0.00    +0.173 C 
ATOM     27  O   UNL     1       0.118   4.146   0.022  0.00  0.00    -0.292 OA
BRANCH  26  31
ATOM     28  C   UNL     1       1.214  -0.685  -0.014  0.00  0.00    +0.121 A 
ATOM     29  C   UNL     1       0.002  -0.004   0.002  0.00  0.00    +0.046 A 
ATOM     30  C   UNL     1      -0.017   1.367   0.010  0.00  0.00    +0.015 A 
ATOM     31  C   UNL     1       1.188   2.081   0.002  0.00  0.00    +0.018 A 
ATOM     32  C   UNL     1       2.406   1.390  -0.013  0.00  0.00    +0.015 A 
ATOM     33  C   UNL     1       2.414   0.019  -0.021  0.00  0.00    +0.046 A 
BRANCH  28  34
ATOM     34  O   UNL     1       1.227  -2.042  -0.021  0.00  0.00    -0.492 OA
BRANCH  34  35
ATOM     35  C   UNL     1       2.507  -2.679  -0.037  0.00  0.00    +0.229 C 
BRANCH  35  37
ATOM     36  C   UNL     1       3.690  -4.879  -0.061  0.00  0.00    +0.007 C 
ATOM     37  C   UNL     1       2.321  -4.197  -0.043  0.00  0.00    +0.038 C 
ENDBRANCH  35  37
ENDBRANCH  34  35
ENDBRANCH  28  34
ENDBRANCH  26  31
ENDBRANCH   1  26
BRANCH   7  38
ATOM     38  O   UNL     1       3.538   6.336   0.799  0.00  0.00    -0.364 OA
ATOM     39  H   UNL     1       3.600   7.320   1.287  0.00  0.00    +0.212 HD
ENDBRANCH   7  38
TORSDOF 9
