REMARK  Name = ZINC08813031
REMARK  7 active torsions:
REMARK  status: ('A' for Active; 'I' for Inactive)
REMARK    1  A    between atoms: C_4  and  N_7
REMARK    2  A    between atoms: C_12  and  C_13
REMARK    3  A    between atoms: C_12  and  N_67
REMARK    4  A    between atoms: C_13  and  N_14
REMARK    5  A    between atoms: C_15  and  C_17
REMARK    6  A    between atoms: N_28  and  C_30
REMARK    7  A    between atoms: C_30  and  C_31
REMARK                            x       y       z     vdW  Elec       q    Type
REMARK                         _______ _______ _______ _____ _____    ______ ____
ROOT
ATOM      1  N   UNL     1      -5.063   3.274  -1.139  0.00  0.00    -0.317 N 
ATOM      2  C   UNL     1      -3.849   3.058  -0.594  0.00  0.00    +0.220 C 
ATOM      3  O   UNL     1      -3.750   2.811   0.589  0.00  0.00    -0.275 OA
ATOM      4  H   UNL     1      -5.141   3.471  -2.085  0.00  0.00    +0.149 HD
ENDROOT
BRANCH   2   5
ATOM      5  C   UNL     1      -2.614   3.124  -1.455  0.00  0.00    +0.122 C 
ATOM      6  C   UNL     1      -1.465   2.250  -0.855  0.00  0.00    +0.155 C 
ATOM      7  C   UNL     1      -0.290   2.323  -1.837  0.00  0.00    +0.004 C 
ATOM      8  C   UNL     1       0.246   3.545  -1.726  0.00  0.00    +0.008 C 
ATOM      9  C   UNL     1      -0.617   4.218  -0.720  0.00  0.00    +0.116 C 
ATOM     10  C   UNL     1      -1.992   4.531  -1.419  0.00  0.00    +0.127 C 
ATOM     11  C   UNL     1      -2.611   5.471  -0.423  0.00  0.00    +0.223 C 
ATOM     12  O   UNL     1      -3.800   5.653  -0.276  0.00  0.00    -0.275 OA
ATOM     13  N   UNL     1      -1.627   6.088   0.284  0.00  0.00    -0.294 N 
ATOM     14  C   UNL     1      -0.300   5.526  -0.065  0.00  0.00    +0.148 C 
ATOM     15  O   UNL     1      -0.983   3.157   0.202  0.00  0.00    -0.359 OA
BRANCH  13  16
ATOM     16  C   UNL     1      -1.847   7.159   1.259  0.00  0.00    +0.144 C 
BRANCH  16  17
ATOM     17  C   UNL     1      -1.783   8.494   0.562  0.00  0.00    -0.012 A 
ATOM     18  C   UNL     1      -0.632   9.256   0.632  0.00  0.00    +0.006 A 
ATOM     19  C   UNL     1      -0.573  10.478  -0.011  0.00  0.00    +0.000 A 
ATOM     20  C   UNL     1      -1.667  10.943  -0.716  0.00  0.00    +0.001 A 
ATOM     21  C   UNL     1      -2.820  10.184  -0.783  0.00  0.00    +0.020 A 
ATOM     22  C   UNL     1      -2.879   8.958  -0.143  0.00  0.00    +0.046 A 
ATOM     23 CL   UNL     1      -4.326   8.004  -0.227  0.00  0.00    -0.083 Cl
ENDBRANCH  16  17
ENDBRANCH  13  16
ENDBRANCH   2   5
BRANCH   1  24
ATOM     24  C   UNL     1      -6.263   3.210  -0.301  0.00  0.00    +0.085 C 
BRANCH  24  25
ATOM     25  C   UNL     1      -7.499   3.491  -1.159  0.00  0.00    -0.060 C 
BRANCH  25  31
ATOM     26  N   UNL     1     -11.318   2.546   0.379  0.00  0.00    -0.333 N 
ATOM     27  C   UNL     1     -11.093   3.911  -0.116  0.00  0.00    +0.086 C 
ATOM     28  C   UNL     1      -9.879   3.920  -1.048  0.00  0.00    -0.060 C 
ATOM     29  C   UNL     1      -8.927   2.061   0.175  0.00  0.00    -0.060 C 
ATOM     30  C   UNL     1     -10.141   2.053   1.107  0.00  0.00    +0.086 C 
ATOM     31  N   UNL     1      -8.699   3.443  -0.297  0.00  0.00    +0.383 N 
ATOM     32  H   UNL     1      -8.551   4.053   0.515  0.00  0.00    -0.082 HD
BRANCH  26  36
ATOM     33  C   UNL     1     -14.729   2.365   2.760  0.00  0.00    +0.000 A 
ATOM     34  C   UNL     1     -13.984   1.222   2.534  0.00  0.00    +0.002 A 
ATOM     35  C   UNL     1     -12.852   1.279   1.745  0.00  0.00    +0.023 A 
ATOM     36  C   UNL     1     -12.463   2.485   1.177  0.00  0.00    +0.030 A 
ATOM     37  C   UNL     1     -13.211   3.632   1.410  0.00  0.00    +0.023 A 
ATOM     38  C   UNL     1     -14.345   3.567   2.196  0.00  0.00    +0.002 A 
ENDBRANCH  26  36
ENDBRANCH  25  31
ENDBRANCH  24  25
ENDBRANCH   1  24
TORSDOF 7
