REMARK  Name = ZINC38673737
REMARK  7 active torsions:
REMARK  status: ('A' for Active; 'I' for Inactive)
REMARK    1  A    between atoms: C_3  and  S_25
REMARK    2  A    between atoms: C_6  and  C_7
REMARK    3  A    between atoms: N_9  and  C_10
REMARK    4  A    between atoms: C_10  and  C_11
REMARK    5  A    between atoms: C_11  and  C_13
REMARK    6  A    between atoms: C_11  and  N_18
REMARK    7  A    between atoms: S_25  and  N_28
REMARK                            x       y       z     vdW  Elec       q    Type
REMARK                         _______ _______ _______ _____ _____    ______ ____
ROOT
ATOM      1  C   UNL     1      -0.846  -0.996   0.691  0.00  0.00    +0.244 C 
ATOM      2  O   UNL     1      -1.830  -0.305   0.870  0.00  0.00    -0.270 OA
ATOM      3  N   UNL     1      -0.984  -2.287   0.331  0.00  0.00    -0.313 N 
ATOM      4  H   UNL     1      -0.198  -2.837   0.189  0.00  0.00    +0.149 HD
ENDROOT
BRANCH   1  10
ATOM      5  C   UNL     1       0.650   0.919   1.242  0.00  0.00    +0.015 A 
ATOM      6  C   UNL     1       1.912   1.451   1.406  0.00  0.00    +0.029 A 
ATOM      7  C   UNL     1       3.031   0.663   1.202  0.00  0.00    +0.106 A 
ATOM      8  C   UNL     1       2.893  -0.663   0.832  0.00  0.00    +0.029 A 
ATOM      9  C   UNL     1       1.636  -1.208   0.664  0.00  0.00    +0.015 A 
ATOM     10  C   UNL     1       0.504  -0.418   0.869  0.00  0.00    +0.037 A 
BRANCH   7  11
ATOM     11  S   UNL     1       4.639   1.351   1.414  0.00  0.00    +0.061 S 
ATOM     12  O   UNL     1       5.526   0.560   0.634  0.00  0.00    -0.153 OA
ATOM     13  O   UNL     1       4.508   2.754   1.230  0.00  0.00    -0.153 OA
BRANCH  11  14
ATOM     14  N   UNL     1       5.066   1.120   2.997  0.00  0.00    -0.177 NA
ATOM     15  C   UNL     1       4.738   2.126   4.016  0.00  0.00    +0.109 C 
ATOM     16  C   UNL     1       3.980   1.442   5.158  0.00  0.00    +0.017 C 
ATOM     17  C   UNL     1       4.806   0.265   5.680  0.00  0.00    +0.003 C 
ATOM     18  C   UNL     1       5.011  -0.755   4.558  0.00  0.00    +0.017 C 
ATOM     19  C   UNL     1       5.776  -0.099   3.410  0.00  0.00    +0.109 C 
ENDBRANCH  11  14
ENDBRANCH   7  11
ENDBRANCH   1  10
BRANCH   3  20
ATOM     20  C   UNL     1      -2.321  -2.859   0.155  0.00  0.00    +0.094 C 
BRANCH  20  21
ATOM     21  C   UNL     1      -2.202  -4.358  -0.125  0.00  0.00    -0.020 C 
BRANCH  21  22
ATOM     22  N   UNL     1      -1.292  -4.574  -1.258  0.00  0.00    +0.385 N 
ATOM     23  C   UNL     1      -1.844  -3.891  -2.445  0.00  0.00    -0.078 C 
ATOM     24  C   UNL     1      -0.707  -3.585  -3.387  0.00  0.00    -0.019 C 
ATOM     25  C   UNL     1      -0.566  -4.669  -4.472  0.00  0.00    -0.002 C 
ATOM     26  C   UNL     1      -0.768  -6.085  -3.895  0.00  0.00    -0.002 C 
ATOM     27  C   UNL     1      -0.101  -6.260  -2.555  0.00  0.00    -0.019 C 
ATOM     28  C   UNL     1      -1.120  -5.947  -1.440  0.00  0.00    -0.078 C 
ATOM     29  H   UNL     1      -0.398  -4.162  -1.038  0.00  0.00    -0.081 HD
ENDBRANCH  21  22
BRANCH  21  30
ATOM     30  C   UNL     1      -1.658  -5.056   1.095  0.00  0.00    -0.052 A 
ATOM     31  C   UNL     1      -2.506  -5.727   1.956  0.00  0.00    +0.009 A 
ATOM     32  C   UNL     1      -1.984  -6.343   3.045  0.00  0.00    +0.045 A 
ATOM     33  S   UNL     1      -0.244  -5.982   2.875  0.00  0.00    -0.105 S 
ATOM     34  C   UNL     1      -0.329  -5.039   1.362  0.00  0.00    +0.047 A 
ENDBRANCH  21  30
ENDBRANCH  20  21
ENDBRANCH   3  20
TORSDOF 7
