REMARK  Name = ZINC09477800
REMARK  11 active torsions:
REMARK  status: ('A' for Active; 'I' for Inactive)
REMARK    1  A    between atoms: C_1  and  C_2
REMARK    2  A    between atoms: C_2  and  C_3
REMARK    3  A    between atoms: C_3  and  C_5
REMARK    4  A    between atoms: C_3  and  S_15
REMARK    5  A    between atoms: N_7  and  C_8
REMARK    6  A    between atoms: C_11  and  C_14
REMARK    7  A    between atoms: S_15  and  C_16
REMARK    8  A    between atoms: C_19  and  C_28
REMARK    9  A    between atoms: N_20  and  C_21
REMARK   10  A    between atoms: C_26  and  C_27
REMARK   11  A    between atoms: N_32  and  C_33
REMARK                            x       y       z     vdW  Elec       q    Type
REMARK                         _______ _______ _______ _____ _____    ______ ____
ROOT
ATOM      1  C   UNL     1       1.932  -3.566   0.160  0.00  0.00    +0.197 A 
ATOM      2  N   UNL     1       3.107  -3.042   0.428  0.00  0.00    -0.122 NA
ATOM      3  N   UNL     1       3.044  -1.759   0.373  0.00  0.00    -0.126 NA
ATOM      4  C   UNL     1       1.819  -1.381   0.075  0.00  0.00    +0.186 A 
ATOM      5  N   UNL     1       1.069  -2.529  -0.074  0.00  0.00    -0.269 N 
ENDROOT
BRANCH   4   6
ATOM      6  C   UNL     1       1.343   0.002  -0.075  0.00  0.00    +0.091 A 
ATOM      7  C   UNL     1       0.049   0.380  -0.287  0.00  0.00    +0.078 A 
ATOM      8  C   UNL     1       0.018   1.782  -0.373  0.00  0.00    +0.153 A 
ATOM      9  C   UNL     1       1.320   2.233  -0.208  0.00  0.00    +0.088 A 
ATOM     10  N   UNL     1       2.128   1.133  -0.025  0.00  0.00    -0.338 N 
ATOM     11  C   UNL     1       3.577   1.161   0.187  0.00  0.00    +0.149 C 
ATOM     12  C   UNL     1       1.268   3.644  -0.302  0.00  0.00    +0.067 A 
ATOM     13  C   UNL     1      -0.017   3.980  -0.505  0.00  0.00    +0.198 A 
ATOM     14  O   UNL     1      -0.768   2.865  -0.551  0.00  0.00    -0.461 OA
ENDBRANCH   4   6
BRANCH   5  15
ATOM     15  C   UNL     1      -0.292  -2.616  -0.399  0.00  0.00    +0.053 A 
ATOM     16  C   UNL     1      -0.685  -2.714  -1.727  0.00  0.00    +0.026 A 
ATOM     17  C   UNL     1      -2.027  -2.800  -2.044  0.00  0.00    +0.002 A 
ATOM     18  C   UNL     1      -2.978  -2.788  -1.040  0.00  0.00    +0.000 A 
ATOM     19  C   UNL     1      -2.590  -2.691   0.283  0.00  0.00    +0.005 A 
ATOM     20  C   UNL     1      -1.249  -2.610   0.607  0.00  0.00    -0.026 A 
ATOM     21  C   UNL     1      -0.826  -2.511   2.050  0.00  0.00    +0.046 C 
ENDBRANCH   5  15
BRANCH   1  22
ATOM     22  S   UNL     1       1.541  -5.283   0.113  0.00  0.00    -0.073 S 
BRANCH  22  23
ATOM     23  C   UNL     1       3.186  -5.988   0.382  0.00  0.00    +0.140 C 
BRANCH  23  24
ATOM     24  C   UNL     1       3.653  -5.657   1.776  0.00  0.00    +0.227 C 
ATOM     25  O   UNL     1       2.842  -5.430   2.649  0.00  0.00    -0.275 OA
ATOM     26  N   UNL     1       4.971  -5.612   2.053  0.00  0.00    -0.312 N 
ATOM     27  H   UNL     1       5.620  -5.793   1.355  0.00  0.00    +0.149 HD
BRANCH  26  28
ATOM     28  C   UNL     1       5.424  -5.289   3.408  0.00  0.00    +0.073 C 
ATOM     29  C   UNL     1       5.486  -3.770   3.578  0.00  0.00    +0.022 C 
ATOM     30  C   UNL     1       6.466  -3.183   2.559  0.00  0.00    +0.005 C 
ATOM     31  C   UNL     1       7.856  -3.779   2.787  0.00  0.00    -0.014 C 
ATOM     32  C   UNL     1       7.794  -5.298   2.618  0.00  0.00    +0.005 C 
ATOM     33  C   UNL     1       6.815  -5.885   3.636  0.00  0.00    +0.022 C 
ATOM     34  C   UNL     1       8.836  -3.192   1.768  0.00  0.00    +0.007 C 
ENDBRANCH  26  28
ENDBRANCH  23  24
BRANCH  23  36
ATOM     35  C   UNL     1       2.788  -7.845  -1.241  0.00  0.00    +0.005 C 
ATOM     36  C   UNL     1       3.124  -7.507   0.213  0.00  0.00    +0.020 C 
ENDBRANCH  23  36
ENDBRANCH  22  23
ENDBRANCH   1  22
TORSDOF 7
