REMARK  Name = ZINC63743275
REMARK  4 active torsions:
REMARK  status: ('A' for Active; 'I' for Inactive)
REMARK    1  A    between atoms: C_6  and  S_26
REMARK    2  A    between atoms: C_8  and  C_11
REMARK    3  A    between atoms: C_11  and  C_12
REMARK    4  A    between atoms: S_26  and  C_27
REMARK                            x       y       z     vdW  Elec       q    Type
REMARK                         _______ _______ _______ _____ _____    ______ ____
ROOT
ATOM      1  C   UNL     1       2.717  -0.606   3.321  0.00  0.00    +0.001 A 
ATOM      2  C   UNL     1       3.485   0.445   2.801  0.00  0.00    +0.002 A 
ATOM      3  C   UNL     1       3.634   0.653   1.475  0.00  0.00    +0.026 A 
ATOM      4  C   UNL     1       3.002  -0.209   0.537  0.00  0.00    +0.044 A 
ATOM      5  N   UNL     1       2.993  -0.216  -0.774  0.00  0.00    -0.369 N 
ATOM      6  C   UNL     1       2.168  -1.341  -1.230  0.00  0.00    +0.170 C 
ATOM      7  C   UNL     1       1.671  -2.026   0.024  0.00  0.00    -0.019 C 
ATOM      8  C   UNL     1       2.185  -1.327   1.062  0.00  0.00    +0.000 A 
ATOM      9  C   UNL     1       2.074  -1.483   2.517  0.00  0.00    +0.010 A 
ATOM     10  H   UNL     1       3.454   0.417  -1.346  0.00  0.00    +0.161 HD
ENDROOT
BRANCH   7  11
ATOM     11  C   UNL     1       0.782  -3.240   0.101  0.00  0.00    +0.130 C 
BRANCH  11  12
ATOM     12  C   UNL     1      -0.661  -2.812   0.016  0.00  0.00    +0.220 C 
ATOM     13  O   UNL     1      -0.938  -1.648  -0.181  0.00  0.00    -0.275 OA
ATOM     14  N   UNL     1      -1.643  -3.724   0.160  0.00  0.00    -0.298 N 
ATOM     15  C   UNL     1      -1.323  -5.137   0.405  0.00  0.00    +0.127 C 
ATOM     16  C   UNL     1      -2.039  -5.587   1.685  0.00  0.00    +0.127 C 
ATOM     17  N   UNL     1      -3.450  -5.185   1.599  0.00  0.00    -0.297 N 
ATOM     18  C   UNL     1      -3.770  -3.772   1.354  0.00  0.00    +0.127 C 
ATOM     19  C   UNL     1      -3.055  -3.321   0.080  0.00  0.00    +0.127 C 
ATOM     20  C   UNL     1      -4.459  -6.121   1.747  0.00  0.00    +0.218 A 
ATOM     21  N   UNL     1      -4.139  -7.387   1.972  0.00  0.00    -0.223 NA
ATOM     22  C   UNL     1      -5.079  -8.306   2.118  0.00  0.00    +0.116 A 
ATOM     23  C   UNL     1      -6.410  -7.931   2.033  0.00  0.00    +0.039 A 
ATOM     24  C   UNL     1      -6.710  -6.599   1.796  0.00  0.00    +0.116 A 
ATOM     25  N   UNL     1      -5.722  -5.729   1.665  0.00  0.00    -0.223 NA
ENDBRANCH  11  12
ENDBRANCH   7  11
BRANCH   6  26
ATOM     26  S   UNL     1       3.168  -2.489  -2.217  0.00  0.00    -0.096 S 
BRANCH  26  27
ATOM     27  C   UNL     1       2.593  -2.246  -3.865  0.00  0.00    +0.010 A 
ATOM     28  C   UNL     1       3.125  -1.227  -4.645  0.00  0.00    +0.017 A 
ATOM     29  C   UNL     1       2.673  -1.040  -5.936  0.00  0.00    +0.039 A 
ATOM     30  C   UNL     1       1.690  -1.866  -6.453  0.00  0.00    +0.123 A 
ATOM     31  C   UNL     1       1.157  -2.883  -5.678  0.00  0.00    +0.039 A 
ATOM     32  C   UNL     1       1.610  -3.078  -4.388  0.00  0.00    +0.017 A 
ATOM     33  F   UNL     1       1.249  -1.681  -7.717  0.00  0.00    -0.205 F 
ENDBRANCH  26  27
ENDBRANCH   6  26
TORSDOF 4
