REMARK  Name = ZINC34318963
REMARK  12 active torsions:
REMARK  status: ('A' for Active; 'I' for Inactive)
REMARK    1  A    between atoms: C_1  and  C_2
REMARK    2  A    between atoms: C_2  and  O_4
REMARK    3  A    between atoms: O_4  and  C_5
REMARK    4  A    between atoms: C_5  and  C_6
REMARK    5  A    between atoms: C_8  and  O_27
REMARK    6  A    between atoms: C_10  and  O_23
REMARK    7  A    between atoms: C_12  and  N_15
REMARK    8  A    between atoms: C_18  and  C_21
REMARK    9  A    between atoms: O_23  and  C_24
REMARK   10  A    between atoms: C_24  and  C_26
REMARK   11  A    between atoms: O_27  and  C_28
REMARK   12  A    between atoms: C_28  and  C_30
REMARK                            x       y       z     vdW  Elec       q    Type
REMARK                         _______ _______ _______ _____ _____    ______ ____
ROOT
ATOM      1  C   UNL     1      -2.463  -2.721   0.011  0.00  0.00    +0.203 C 
ATOM      2  C   UNL     1      -2.392  -4.268   0.073  0.00  0.00    +0.253 C 
ATOM      3  C   UNL     1      -3.747  -4.680  -0.551  0.00  0.00    +0.269 C 
ATOM      4  C   UNL     1      -4.179  -3.445  -1.364  0.00  0.00    +0.266 C 
ATOM      5  O   UNL     1      -3.137  -2.461  -1.239  0.00  0.00    -0.342 OA
ENDROOT
BRANCH   4   6
ATOM      6  N   UNL     1      -4.358  -3.812  -2.771  0.00  0.00    -0.294 N 
ATOM      7  C   UNL     1      -3.431  -3.690  -3.756  0.00  0.00    +0.203 A 
ATOM      8  N   UNL     1      -3.941  -4.115  -4.876  0.00  0.00    -0.224 NA
ATOM      9  C   UNL     1      -5.216  -4.527  -4.653  0.00  0.00    +0.171 A 
ATOM     10  C   UNL     1      -5.482  -4.343  -3.327  0.00  0.00    +0.120 A 
ATOM     11  I   UNL     1      -7.275  -4.787  -2.339  0.00  0.00    -0.021 I 
BRANCH   9  12
ATOM     12  C   UNL     1      -6.115  -5.061  -5.631  0.00  0.00    +0.122 C 
ATOM     13  N   UNL     1      -6.829  -5.485  -6.407  0.00  0.00    -0.189 NA
ENDBRANCH   9  12
ENDBRANCH   4   6
BRANCH   1  14
ATOM     14  C   UNL     1      -1.057  -2.117   0.001  0.00  0.00    +0.267 C 
BRANCH  14  15
ATOM     15  O   UNL     1      -1.151  -0.691   0.009  0.00  0.00    -0.462 OA
BRANCH  15  17
ATOM     16  C   UNL     1      -0.018   1.503   0.010  0.00  0.00    +0.136 C 
ATOM     17  C   UNL     1       0.002  -0.004   0.002  0.00  0.00    +0.304 C 
ATOM     18  O   UNL     1       1.056  -0.594  -0.011  0.00  0.00    -0.251 OA
ENDBRANCH  15  17
ENDBRANCH  14  15
ENDBRANCH   1  14
BRANCH   3  19
ATOM     19  O   UNL     1      -3.579  -5.812  -1.407  0.00  0.00    -0.453 OA
BRANCH  19  20
ATOM     20  C   UNL     1      -4.623  -6.648  -1.524  0.00  0.00    +0.304 C 
ATOM     21  O   UNL     1      -5.645  -6.426  -0.920  0.00  0.00    -0.251 OA
ATOM     22  C   UNL     1      -4.520  -7.863  -2.409  0.00  0.00    +0.136 C 
ENDBRANCH  19  20
ENDBRANCH   3  19
BRANCH   2  23
ATOM     23  O   UNL     1      -1.299  -4.760  -0.706  0.00  0.00    -0.455 OA
BRANCH  23  24
ATOM     24  C   UNL     1      -0.127  -4.927  -0.074  0.00  0.00    +0.304 C 
ATOM     25  O   UNL     1      -0.031  -4.664   1.101  0.00  0.00    -0.251 OA
ATOM     26  C   UNL     1       1.070  -5.442  -0.831  0.00  0.00    +0.136 C 
ENDBRANCH  23  24
ENDBRANCH   2  23
TORSDOF 9
