REMARK  Name = ZINC13471190
REMARK  8 active torsions:
REMARK  status: ('A' for Active; 'I' for Inactive)
REMARK    1  A    between atoms: C_1  and  C_2
REMARK    2  A    between atoms: C_2  and  C_3
REMARK    3  A    between atoms: C_6  and  N_9
REMARK    4  A    between atoms: N_9  and  C_10
REMARK    5  A    between atoms: C_10  and  N_12
REMARK    6  A    between atoms: N_12  and  C_13
REMARK    7  A    between atoms: N_22  and  C_23
REMARK    8  A    between atoms: C_23  and  C_24
REMARK                            x       y       z     vdW  Elec       q    Type
REMARK                         _______ _______ _______ _____ _____    ______ ____
ROOT
ATOM      1  C   UNL     1      -8.028  -2.624  -2.357  0.00  0.00    +0.069 C 
ATOM      2  C   UNL     1      -8.569  -1.260  -2.795  0.00  0.00    +0.007 C 
ATOM      3  C   UNL     1      -9.460  -1.452  -4.032  0.00  0.00    -0.066 C 
ATOM      4  C   UNL     1      -8.689  -2.338  -5.038  0.00  0.00    -0.017 C 
ATOM      5  C   UNL     1      -9.058  -3.786  -4.652  0.00  0.00    -0.017 C 
ATOM      6  C   UNL     1     -10.019  -3.643  -3.449  0.00  0.00    -0.066 C 
ATOM      7  C   UNL     1      -9.190  -3.600  -2.155  0.00  0.00    +0.007 C 
ATOM      8  N   UNL     1     -10.624  -2.278  -3.613  0.00  0.00    +0.388 N 
ATOM      9  H   UNL     1     -11.005  -1.939  -2.742  0.00  0.00    -0.080 HD
ENDROOT
BRANCH   1  10
ATOM     10  N   UNL     1      -7.292  -2.475  -1.099  0.00  0.00    -0.324 N 
ATOM     11  H   UNL     1      -7.738  -2.643  -0.254  0.00  0.00    +0.148 HD
BRANCH  10  12
ATOM     12  C   UNL     1      -5.996  -2.105  -1.115  0.00  0.00    +0.135 C 
ATOM     13  S   UNL     1      -5.210  -1.808  -2.607  0.00  0.00    -0.019 S 
BRANCH  12  14
ATOM     14  N   UNL     1      -5.320  -1.968   0.042  0.00  0.00    -0.297 N 
ATOM     15  H   UNL     1      -5.740  -2.213   0.882  0.00  0.00    +0.154 HD
BRANCH  14  19
ATOM     16  C   UNL     1      -1.424  -0.493   0.017  0.00  0.00    -0.048 A 
ATOM     17  C   UNL     1      -2.386   0.086  -0.791  0.00  0.00    +0.005 A 
ATOM     18  C   UNL     1      -3.679  -0.401  -0.785  0.00  0.00    +0.023 A 
ATOM     19  C   UNL     1      -4.011  -1.473   0.033  0.00  0.00    +0.033 A 
ATOM     20  C   UNL     1      -3.043  -2.051   0.843  0.00  0.00    +0.023 A 
ATOM     21  C   UNL     1      -1.751  -1.563   0.828  0.00  0.00    +0.005 A 
BRANCH  16  23
ATOM     22  C   UNL     1       0.800  -0.690  -1.062  0.00  0.00    +0.009 C 
ATOM     23  C   UNL     1      -0.015   0.041   0.007  0.00  0.00    +0.032 C 
ENDBRANCH  16  23
ENDBRANCH  14  19
ENDBRANCH  12  14
ENDBRANCH  10  12
ENDBRANCH   1  10
BRANCH   8  24
ATOM     24  C   UNL     1     -11.653  -2.291  -4.661  0.00  0.00    -0.002 C 
BRANCH  24  25
ATOM     25  C   UNL     1     -12.868  -3.031  -4.162  0.00  0.00    +0.089 A 
ATOM     26  C   UNL     1     -13.913  -2.483  -3.517  0.00  0.00    +0.042 A 
ATOM     27  C   UNL     1     -14.818  -3.532  -3.237  0.00  0.00    +0.041 A 
ATOM     28  C   UNL     1     -14.272  -4.659  -3.728  0.00  0.00    +0.195 A 
ATOM     29  O   UNL     1     -13.093  -4.349  -4.292  0.00  0.00    -0.470 OA
ENDBRANCH  24  25
ENDBRANCH   8  24
TORSDOF 7
