REMARK  Name = ZINC09053573
REMARK  5 active torsions:
REMARK  status: ('A' for Active; 'I' for Inactive)
REMARK    1  A    between atoms: C_1  and  C_2
REMARK    2  A    between atoms: C_8  and  C_9
REMARK    3  A    between atoms: C_8  and  N_55
REMARK    4  A    between atoms: C_10  and  O_31
REMARK    5  A    between atoms: C_17  and  C_18
REMARK                            x       y       z     vdW  Elec       q    Type
REMARK                         _______ _______ _______ _____ _____    ______ ____
ROOT
ATOM      1  C   UNL     1      -0.490   2.516   0.477  0.00  0.00    +0.020 A 
ATOM      2  C   UNL     1       0.185   3.052   1.561  0.00  0.00    +0.122 A 
ATOM      3  C   UNL     1      -0.492   3.351   2.740  0.00  0.00    +0.046 A 
ATOM      4  C   UNL     1      -1.835   3.118   2.838  0.00  0.00    +0.019 A 
ATOM      5  C   UNL     1      -2.528   2.578   1.754  0.00  0.00    +0.068 A 
ATOM      6  C   UNL     1      -1.856   2.278   0.558  0.00  0.00    +0.144 A 
ATOM      7  O   UNL     1      -2.731   1.776  -0.341  0.00  0.00    -0.451 OA
ATOM      8  C   UNL     1      -3.987   1.714   0.160  0.00  0.00    +0.176 C 
ATOM      9  C   UNL     1      -5.088   1.259  -0.492  0.00  0.00    +0.061 C 
ATOM     10  C   UNL     1      -3.941   2.216   1.540  0.00  0.00    +0.231 C 
ATOM     11  O   UNL     1      -4.865   2.320   2.328  0.00  0.00    -0.283 OA
ENDROOT
BRANCH   9  12
ATOM     12  C   UNL     1      -5.007   0.907  -1.914  0.00  0.00    +0.022 A 
ATOM     13  C   UNL     1      -3.902   1.306  -2.676  0.00  0.00    +0.027 A 
ATOM     14  C   UNL     1      -3.831   0.968  -4.010  0.00  0.00    +0.019 A 
ATOM     15  C   UNL     1      -4.855   0.246  -4.603  0.00  0.00    +0.024 A 
ATOM     16  C   UNL     1      -5.955  -0.150  -3.865  0.00  0.00    +0.022 A 
ATOM     17  C   UNL     1      -6.040   0.173  -2.521  0.00  0.00    +0.136 A 
ATOM     18  O   UNL     1      -7.109  -0.218  -1.782  0.00  0.00    -0.465 OA
ATOM     19  C   UNL     1      -8.276  -0.631  -2.500  0.00  0.00    +0.395 C 
ATOM     20  O   UNL     1      -7.879  -1.541  -3.533  0.00  0.00    -0.339 OA
ATOM     21  C   UNL     1      -7.060  -0.928  -4.533  0.00  0.00    +0.202 C 
ATOM     22 BR   UNL     1      -2.335   1.498  -5.037  0.00  0.00    -0.050 Br
ENDBRANCH   9  12
BRANCH   2  23
ATOM     23  O   UNL     1       1.519   3.288   1.473  0.00  0.00    -0.506 OA
ATOM     24  H   UNL     1       1.742   4.171   1.147  0.00  0.00    +0.292 HD
ENDBRANCH   2  23
BRANCH   1  25
ATOM     25  C   UNL     1       0.256   2.197  -0.793  0.00  0.00    -0.035 C 
BRANCH  25  32
ATOM     26  C   UNL     1       0.163   0.586  -3.099  0.00  0.00    -0.013 C 
ATOM     27  C   UNL     1       1.253   0.380  -2.045  0.00  0.00    -0.071 C 
ATOM     28  C   UNL     1       1.628  -1.102  -1.982  0.00  0.00    -0.016 C 
ATOM     29  C   UNL     1       2.705  -1.306  -0.913  0.00  0.00    -0.003 C 
ATOM     30  C   UNL     1       2.179  -0.800   0.433  0.00  0.00    -0.019 C 
ATOM     31  C   UNL     1       1.788   0.674   0.300  0.00  0.00    -0.078 C 
ATOM     32  N   UNL     1       0.732   0.800  -0.727  0.00  0.00    +0.384 N 
ATOM     33  H   UNL     1      -0.055   0.192  -0.471  0.00  0.00    -0.081 HD
ENDBRANCH  25  32
ENDBRANCH   1  25
TORSDOF 4
