REMARK  Name = ZINC58457203
REMARK  7 active torsions:
REMARK  status: ('A' for Active; 'I' for Inactive)
REMARK    1  A    between atoms: C_1  and  S_2
REMARK    2  A    between atoms: S_2  and  C_3
REMARK    3  A    between atoms: C_3  and  C_4
REMARK    4  A    between atoms: C_4  and  C_5
REMARK    5  A    between atoms: C_5  and  C_7
REMARK    6  A    between atoms: C_5  and  N_24
REMARK    7  A    between atoms: N_9  and  C_10
REMARK                            x       y       z     vdW  Elec       q    Type
REMARK                         _______ _______ _______ _____ _____    ______ ____
ROOT
ATOM      1  C   UNL     1       4.023  -3.584   2.207  0.00  0.00    +0.238 C 
ATOM      2  O   UNL     1       5.140  -4.057   2.218  0.00  0.00    -0.273 OA
ATOM      3  N   UNL     1       2.947  -4.394   2.250  0.00  0.00    -0.284 N 
ATOM      4  H   UNL     1       2.057  -4.015   2.318  0.00  0.00    +0.155 HD
ENDROOT
BRANCH   3   5
ATOM      5  C   UNL     1       3.114  -5.784   2.196  0.00  0.00    +0.037 A 
ATOM      6  C   UNL     1       2.240  -6.616   2.882  0.00  0.00    +0.027 A 
ATOM      7  C   UNL     1       2.403  -7.987   2.829  0.00  0.00    +0.051 A 
ATOM      8  C   UNL     1       3.439  -8.536   2.091  0.00  0.00    +0.167 A 
ATOM      9  C   UNL     1       4.318  -7.704   1.401  0.00  0.00    +0.169 A 
ATOM     10  C   UNL     1       4.151  -6.330   1.451  0.00  0.00    +0.073 A 
ATOM     11  O   UNL     1       5.240  -8.479   0.757  0.00  0.00    -0.447 OA
ATOM     12  C   UNL     1       5.153  -9.770   1.377  0.00  0.00    +0.254 C 
ATOM     13  O   UNL     1       3.811  -9.834   1.880  0.00  0.00    -0.448 OA
ATOM     14  C   UNL     1       6.155  -9.877   2.521  0.00  0.00    +0.093 C 
ATOM     15  C   UNL     1       7.578  -9.771   1.966  0.00  0.00    +0.008 C 
ATOM     16  C   UNL     1       7.814 -10.894   0.954  0.00  0.00    +0.000 C 
ATOM     17  C   UNL     1       6.815 -10.763  -0.198  0.00  0.00    +0.008 C 
ATOM     18  C   UNL     1       5.389 -10.871   0.349  0.00  0.00    +0.093 C 
ENDBRANCH   3   5
BRANCH   1  19
ATOM     19  C   UNL     1       3.839  -2.089   2.145  0.00  0.00    +0.161 C 
BRANCH  19  20
ATOM     20  N   UNL     1       5.063  -1.467   1.636  0.00  0.00    -0.288 N 
ATOM     21  C   UNL     1       6.225  -1.624   2.300  0.00  0.00    +0.298 C 
ATOM     22  O   UNL     1       6.257  -2.283   3.322  0.00  0.00    -0.253 OA
ATOM     23  N   UNL     1       7.352  -1.052   1.832  0.00  0.00    -0.313 N 
ATOM     24  H   UNL     1       5.038  -0.941   0.821  0.00  0.00    +0.151 HD
ATOM     25  H   UNL     1       7.327  -0.526   1.017  0.00  0.00    +0.146 HD
ATOM     26  H   UNL     1       8.188  -1.165   2.310  0.00  0.00    +0.146 HD
ENDBRANCH  19  20
BRANCH  19  27
ATOM     27  C   UNL     1       3.539  -1.554   3.547  0.00  0.00    +0.042 C 
BRANCH  27  28
ATOM     28  C   UNL     1       3.229  -0.058   3.466  0.00  0.00    +0.071 C 
BRANCH  28  30
ATOM     29  C   UNL     1       2.531   2.338   4.861  0.00  0.00    +0.084 C 
ATOM     30  S   UNL     1       2.873   0.577   5.128  0.00  0.00    -0.164 S 
ENDBRANCH  28  30
ENDBRANCH  27  28
ENDBRANCH  19  27
ENDBRANCH   1  19
TORSDOF 6
