REMARK  Name = ZINC24046527
REMARK  5 active torsions:
REMARK  status: ('A' for Active; 'I' for Inactive)
REMARK    1  A    between atoms: C_3  and  C_6
REMARK    2  A    between atoms: C_9  and  C_24
REMARK    3  A    between atoms: C_12  and  C_14
REMARK    4  A    between atoms: C_14  and  O_15
REMARK    5  A    between atoms: O_15  and  C_16
REMARK                            x       y       z     vdW  Elec       q    Type
REMARK                         _______ _______ _______ _____ _____    ______ ____
ROOT
ATOM      1  C   UNL     1       5.048   8.594  -0.003  0.00  0.00    +0.173 C 
ATOM      2  C   UNL     1       4.642  10.081   0.009  0.00  0.00    +0.093 C 
ATOM      3  C   UNL     1       3.131  10.047   0.023  0.00  0.00    +0.104 C 
ATOM      4  N   UNL     1       2.728   8.820   0.015  0.00  0.00    -0.178 NA
ATOM      5  N   UNL     1       3.759   7.883   0.006  0.00  0.00    -0.179 N 
ATOM      6  C   UNL     1       3.602   6.545   0.001  0.00  0.00    +0.273 C 
ATOM      7  O   UNL     1       4.575   5.820  -0.012  0.00  0.00    -0.270 OA
ENDROOT
BRANCH   1  10
ATOM      8  C   UNL     1       7.460   7.789  -2.671  0.00  0.00    +0.041 A 
ATOM      9  C   UNL     1       7.157   8.077  -1.320  0.00  0.00    +0.046 A 
ATOM     10  C   UNL     1       5.827   8.263  -1.250  0.00  0.00    +0.128 A 
ATOM     11  O   UNL     1       5.310   8.098  -2.478  0.00  0.00    -0.466 OA
ATOM     12  C   UNL     1       6.296   7.816  -3.345  0.00  0.00    +0.195 A 
ENDBRANCH   1  10
BRANCH   3  13
ATOM     13  C   UNL     1       2.258  11.225   0.037  0.00  0.00    +0.150 A 
ATOM     14  C   UNL     1       0.893  11.211   0.050  0.00  0.00    +0.051 A 
ATOM     15  C   UNL     1       0.475  12.555   0.060  0.00  0.00    +0.042 A 
ATOM     16  C   UNL     1       1.589  13.316   0.053  0.00  0.00    +0.196 A 
ATOM     17  O   UNL     1       2.663  12.511   0.045  0.00  0.00    -0.462 OA
ENDBRANCH   3  13
BRANCH   6  18
ATOM     18  C   UNL     1       2.218   5.948   0.011  0.00  0.00    +0.326 C 
BRANCH  18  19
ATOM     19  O   UNL     1       2.314   4.523   0.003  0.00  0.00    -0.483 OA
BRANCH  19  20
ATOM     20  C   UNL     1       1.147   3.826   0.011  0.00  0.00    +0.124 A 
ATOM     21  C   UNL     1      -0.065   4.501   0.026  0.00  0.00    +0.065 A 
ATOM     22  C   UNL     1      -1.250   3.790   0.033  0.00  0.00    +0.046 A 
ATOM     23  C   UNL     1      -1.229   2.407   0.021  0.00  0.00    +0.040 A 
ATOM     24  C   UNL     1      -0.021   1.732   0.012  0.00  0.00    +0.046 A 
ATOM     25  C   UNL     1       1.167   2.439   0.004  0.00  0.00    +0.065 A 
ATOM     26 CL   UNL     1       0.002  -0.004   0.002  0.00  0.00    -0.083 Cl
ATOM     27 CL   UNL     1      -2.767   4.634   0.051  0.00  0.00    -0.083 Cl
ENDBRANCH  19  20
ENDBRANCH  18  19
ENDBRANCH   6  18
TORSDOF 5
