REMARK  Name = ZINC14142051
REMARK  5 active torsions:
REMARK  status: ('A' for Active; 'I' for Inactive)
REMARK    1  A    between atoms: C_1  and  C_2
REMARK    2  A    between atoms: C_2  and  C_3
REMARK    3  A    between atoms: C_2  and  C_4
REMARK    4  A    between atoms: C_2  and  C_5
REMARK    5  A    between atoms: C_8  and  C_9
REMARK                            x       y       z     vdW  Elec       q    Type
REMARK                         _______ _______ _______ _____ _____    ______ ____
ROOT
ATOM      1  C   UNL     1      -2.162   1.102   1.255  0.00  0.00    +0.206 C 
ATOM      2  N   UNL     1      -2.661   0.345   0.332  0.00  0.00    -0.209 NA
ATOM      3  C   UNL     1      -3.953   0.033   0.658  0.00  0.00    +0.152 C 
ATOM      4  C   UNL     1      -4.830  -0.752  -0.058  0.00  0.00    +0.043 C 
ATOM      5  C   UNL     1      -4.207   0.719   1.936  0.00  0.00    +0.364 C 
ATOM      6  O   UNL     1      -5.235   0.715   2.587  0.00  0.00    -0.243 OA
ATOM      7  O   UNL     1      -3.051   1.353   2.230  0.00  0.00    -0.406 OA
ENDROOT
BRANCH   4   8
ATOM      8  C   UNL     1      -4.445  -1.267  -1.374  0.00  0.00    -0.019 A 
ATOM      9  C   UNL     1      -3.144  -1.065  -1.856  0.00  0.00    +0.012 A 
ATOM     10  C   UNL     1      -2.786  -1.555  -3.091  0.00  0.00    +0.050 A 
ATOM     11  C   UNL     1      -3.712  -2.241  -3.870  0.00  0.00    +0.162 A 
ATOM     12  C   UNL     1      -5.008  -2.444  -3.400  0.00  0.00    +0.163 A 
ATOM     13  C   UNL     1      -5.377  -1.960  -2.159  0.00  0.00    +0.057 A 
ATOM     14  O   UNL     1      -5.922  -3.121  -4.148  0.00  0.00    -0.485 OA
ATOM     15  C   UNL     1      -5.630  -3.270  -5.541  0.00  0.00    +0.270 C 
ATOM     16  C   UNL     1      -4.167  -3.712  -5.681  0.00  0.00    +0.270 C 
ATOM     17  O   UNL     1      -3.336  -2.706  -5.091  0.00  0.00    -0.485 OA
ENDBRANCH   4   8
BRANCH   1  19
ATOM     18  C   UNL     1      -0.037   1.150  -0.024  0.00  0.00    +0.020 C 
ATOM     19  C   UNL     1      -0.755   1.642   1.235  0.00  0.00    +0.039 C 
ATOM     20  C   UNL     1      -0.003   1.153   2.475  0.00  0.00    +0.020 C 
ATOM     21  C   UNL     1      -0.796   3.172   1.234  0.00  0.00    +0.020 C 
ENDBRANCH   1  19
TORSDOF 2
