REMARK  Name = ZINC63588880
REMARK  9 active torsions:
REMARK  status: ('A' for Active; 'I' for Inactive)
REMARK    1  A    between atoms: C_1  and  C_2
REMARK    2  A    between atoms: C_2  and  C_4
REMARK    3  A    between atoms: C_2  and  O_27
REMARK    4  A    between atoms: C_4  and  N_6
REMARK    5  A    between atoms: N_8  and  C_9
REMARK    6  A    between atoms: N_15  and  C_16
REMARK    7  A    between atoms: C_16  and  C_17
REMARK    8  A    between atoms: C_17  and  C_18
REMARK    9  A    between atoms: O_27  and  C_28
REMARK                            x       y       z     vdW  Elec       q    Type
REMARK                         _______ _______ _______ _____ _____    ______ ____
ROOT
ATOM      1  N   UNL     1      -2.648  -0.329  -0.827  0.00  0.00    -0.144 NA
ATOM      2  C   UNL     1      -3.724  -0.677  -1.522  0.00  0.00    +0.194 C 
ATOM      3  N   UNL     1      -4.867   0.062  -1.425  0.00  0.00    -0.328 N 
ATOM      4  N   UNL     1      -3.688  -1.772  -2.331  0.00  0.00    -0.357 N 
ATOM      5  H   UNL     1      -2.899  -2.337  -2.348  0.00  0.00    +0.162 HD
ATOM      6  H   UNL     1      -5.731  -0.377  -1.443  0.00  0.00    +0.169 HD
ENDROOT
BRANCH   3   7
ATOM      7  C   UNL     1      -4.791   1.454  -1.301  0.00  0.00    +0.042 A 
ATOM      8  C   UNL     1      -3.614   2.118  -1.619  0.00  0.00    +0.026 A 
ATOM      9  C   UNL     1      -3.543   3.492  -1.495  0.00  0.00    +0.002 A 
ATOM     10  C   UNL     1      -4.642   4.205  -1.055  0.00  0.00    +0.000 A 
ATOM     11  C   UNL     1      -5.816   3.547  -0.738  0.00  0.00    +0.002 A 
ATOM     12  C   UNL     1      -5.896   2.174  -0.865  0.00  0.00    +0.026 A 
ENDBRANCH   3   7
BRANCH   1  13
ATOM     13  C   UNL     1      -2.770   0.464   0.236  0.00  0.00    +0.280 C 
ATOM     14  O   UNL     1      -3.873   0.777   0.637  0.00  0.00    -0.270 OA
BRANCH  13  16
ATOM     15  C   UNL     1      -0.788  -0.202   1.570  0.00  0.00    +0.062 C 
ATOM     16  C   UNL     1      -1.539   0.973   0.940  0.00  0.00    +0.258 C 
BRANCH  16  17
ATOM     17  O   UNL     1      -1.922   1.896   1.962  0.00  0.00    -0.480 OA
BRANCH  17  18
ATOM     18  C   UNL     1      -0.999   2.819   2.338  0.00  0.00    +0.122 A 
ATOM     19  C   UNL     1       0.279   2.784   1.798  0.00  0.00    +0.045 A 
ATOM     20  C   UNL     1       1.215   3.724   2.181  0.00  0.00    +0.004 A 
ATOM     21  C   UNL     1       0.881   4.700   3.102  0.00  0.00    +0.000 A 
ATOM     22  C   UNL     1      -0.392   4.737   3.641  0.00  0.00    +0.004 A 
ATOM     23  C   UNL     1      -1.334   3.803   3.257  0.00  0.00    +0.045 A 
ENDBRANCH  17  18
ENDBRANCH  16  17
ENDBRANCH  13  16
ENDBRANCH   1  13
BRANCH   4  24
ATOM     24  C   UNL     1      -4.840  -2.098  -3.176  0.00  0.00    +0.120 C 
BRANCH  24  25
ATOM     25  C   UNL     1      -4.585  -3.423  -3.897  0.00  0.00    +0.054 C 
BRANCH  25  26
ATOM     26  C   UNL     1      -5.715  -3.699  -4.854  0.00  0.00    -0.040 C 
ATOM     27  C   UNL     1      -5.767  -3.376  -6.167  0.00  0.00    -0.001 A 
ATOM     28  C   UNL     1      -4.823  -2.696  -7.061  0.00  0.00    +0.010 A 
ATOM     29  C   UNL     1      -5.164  -2.512  -8.357  0.00  0.00    +0.001 A 
ATOM     30  C   UNL     1      -6.393  -2.953  -8.866  0.00  0.00    +0.002 A 
ATOM     31  C   UNL     1      -7.312  -3.586  -8.106  0.00  0.00    +0.026 A 
ATOM     32  C   UNL     1      -7.059  -3.833  -6.728  0.00  0.00    +0.043 A 
ATOM     33  N   UNL     1      -7.777  -4.416  -5.800  0.00  0.00    -0.380 N 
ATOM     34  C   UNL     1      -7.019  -4.400  -4.543  0.00  0.00    +0.144 C 
ATOM     35  H   UNL     1      -8.660  -4.797  -5.923  0.00  0.00    +0.160 HD
ENDBRANCH  25  26
ENDBRANCH  24  25
ENDBRANCH   4  24
TORSDOF 8
