REMARK  Name = ZINC61639801
REMARK  5 active torsions:
REMARK  status: ('A' for Active; 'I' for Inactive)
REMARK    1  A    between atoms: C_6  and  O_7
REMARK    2  A    between atoms: O_7  and  C_8
REMARK    3  A    between atoms: C_8  and  C_9
REMARK    4  A    between atoms: C_13  and  N_15
REMARK    5  A    between atoms: N_15  and  N_16
REMARK                            x       y       z     vdW  Elec       q    Type
REMARK                         _______ _______ _______ _____ _____    ______ ____
ROOT
ATOM      1  C   UNL     1      -2.454  -2.722   0.012  0.00  0.00    +0.099 A 
ATOM      2  C   UNL     1      -3.070  -2.994   1.218  0.00  0.00    +0.066 A 
ATOM      3  C   UNL     1      -4.346  -3.543   1.221  0.00  0.00    +0.025 A 
ATOM      4  C   UNL     1      -4.957  -3.800   0.007  0.00  0.00    +0.046 A 
ATOM      5  C   UNL     1      -4.277  -3.502  -1.169  0.00  0.00    +0.133 A 
ATOM      6  N   UNL     1      -3.063  -2.974  -1.131  0.00  0.00    -0.231 NA
ATOM      7 CL   UNL     1      -2.259  -2.651   2.714  0.00  0.00    -0.082 Cl
ENDROOT
BRANCH   5   8
ATOM      8  N   UNL     1      -4.879  -3.757  -2.397  0.00  0.00    -0.268 N 
ATOM      9  H   UNL     1      -5.769  -4.140  -2.430  0.00  0.00    +0.167 HD
BRANCH   8  10
ATOM     10  N   UNL     1      -4.217  -3.466  -3.556  0.00  0.00    -0.255 NA
ATOM     11  H   UNL     1      -4.776  -3.704  -4.361  0.00  0.00    +0.140 HD
ATOM     12  H   UNL     1      -3.940  -2.496  -3.581  0.00  0.00    +0.140 HD
ENDBRANCH   8  10
ENDBRANCH   5   8
BRANCH   1  13
ATOM     13  C   UNL     1      -1.070  -2.126   0.001  0.00  0.00    +0.286 C 
BRANCH  13  14
ATOM     14  O   UNL     1      -1.165  -0.701   0.010  0.00  0.00    -0.486 OA
BRANCH  14  20
ATOM     15  C   UNL     1      -0.017   1.383   0.010  0.00  0.00    +0.046 A 
ATOM     16  C   UNL     1       1.171   2.089   0.002  0.00  0.00    +0.018 A 
ATOM     17  C   UNL     1       2.378   1.414  -0.013  0.00  0.00    +0.014 A 
ATOM     18  C   UNL     1       2.399   0.031  -0.021  0.00  0.00    +0.018 A 
ATOM     19  C   UNL     1       1.214  -0.679  -0.014  0.00  0.00    +0.046 A 
ATOM     20  C   UNL     1       0.002  -0.004   0.002  0.00  0.00    +0.121 A 
ATOM     21  I   UNL     1       4.177   2.487  -0.025  0.00  0.00    -0.044 I 
ENDBRANCH  14  20
ENDBRANCH  13  14
ENDBRANCH   1  13
TORSDOF 5
