REMARK  Name = ZINC09861337
REMARK  4 active torsions:
REMARK  status: ('A' for Active; 'I' for Inactive)
REMARK    1  A    between atoms: C_1  and  C_2
REMARK    2  A    between atoms: C_2  and  C_3
REMARK    3  A    between atoms: C_2  and  C_4
REMARK    4  A    between atoms: C_16  and  C_18
REMARK                            x       y       z     vdW  Elec       q    Type
REMARK                         _______ _______ _______ _____ _____    ______ ____
ROOT
ATOM      1  C   UNL     1       2.601   4.383   0.967  0.00  0.00    +0.223 C 
ATOM      2  O   UNL     1       3.579   5.100   0.991  0.00  0.00    -0.275 OA
ATOM      3  N   UNL     1       2.322   3.661  -0.137  0.00  0.00    -0.258 N 
ATOM      4  C   UNL     1       1.194   2.840  -0.154  0.00  0.00    +0.058 A 
ATOM      5  C   UNL     1      -0.086   3.369  -0.114  0.00  0.00    +0.025 A 
ATOM      6  C   UNL     1      -1.175   2.522  -0.213  0.00  0.00    +0.002 A 
ATOM      7  C   UNL     1      -0.992   1.157  -0.349  0.00  0.00    +0.002 A 
ATOM      8  C   UNL     1       0.284   0.622  -0.356  0.00  0.00    +0.025 A 
ATOM      9  C   UNL     1       1.375   1.468  -0.253  0.00  0.00    +0.053 A 
ATOM     10  N   UNL     1       2.680   0.996  -0.192  0.00  0.00    -0.316 N 
ATOM     11  C   UNL     1       3.644   1.250  -1.114  0.00  0.00    +0.017 C 
ATOM     12  C   UNL     1       3.913   2.463  -1.627  0.00  0.00    +0.037 C 
ATOM     13  C   UNL     1       3.197   3.748  -1.286  0.00  0.00    +0.147 C 
ATOM     14  C   UNL     1       4.940   2.617  -2.588  0.00  0.00    +0.163 C 
ATOM     15  O   UNL     1       5.179   3.729  -3.017  0.00  0.00    -0.292 OA
ATOM     16  C   UNL     1       5.745   1.459  -3.096  0.00  0.00    +0.080 C 
ATOM     17  C   UNL     1       4.890   0.190  -2.998  0.00  0.00    +0.014 C 
ATOM     18  C   UNL     1       4.451   0.036  -1.543  0.00  0.00    +0.051 C 
ATOM     19  H   UNL     1       2.921   0.441   0.567  0.00  0.00    +0.152 HD
ENDROOT
BRANCH  13  20
ATOM     20  C   UNL     1       2.378   4.169  -2.479  0.00  0.00    -0.021 A 
ATOM     21  C   UNL     1       2.666   5.354  -3.131  0.00  0.00    +0.007 A 
ATOM     22  C   UNL     1       1.916   5.741  -4.225  0.00  0.00    +0.022 A 
ATOM     23  C   UNL     1       0.876   4.944  -4.668  0.00  0.00    +0.059 A 
ATOM     24  C   UNL     1       0.588   3.757  -4.016  0.00  0.00    +0.060 A 
ATOM     25  C   UNL     1       1.343   3.368  -2.924  0.00  0.00    +0.027 A 
ATOM     26 CL   UNL     1      -0.717   2.755  -4.571  0.00  0.00    -0.082 Cl
ATOM     27 CL   UNL     1      -0.067   5.430  -6.042  0.00  0.00    -0.082 Cl
ENDBRANCH  13  20
BRANCH   1  29
ATOM     28  C   UNL     1       1.651   2.857   2.675  0.00  0.00    +0.017 C 
ATOM     29  C   UNL     1       1.697   4.301   2.170  0.00  0.00    +0.069 C 
ATOM     30  C   UNL     1       2.235   5.211   3.275  0.00  0.00    +0.017 C 
ENDBRANCH   1  29
TORSDOF 2
