REMARK  Name = ZINC52306205
REMARK  6 active torsions:
REMARK  status: ('A' for Active; 'I' for Inactive)
REMARK    1  A    between atoms: C_1  and  C_2
REMARK    2  A    between atoms: C_2  and  C_3
REMARK    3  A    between atoms: C_3  and  C_4
REMARK    4  A    between atoms: C_6  and  S_16
REMARK    5  A    between atoms: N_7  and  C_9
REMARK    6  A    between atoms: S_16  and  N_19
REMARK                            x       y       z     vdW  Elec       q    Type
REMARK                         _______ _______ _______ _____ _____    ______ ____
ROOT
ATOM      1  C   UNL     1      -1.274  -2.050   0.080  0.00  0.00    +0.065 A 
ATOM      2  C   UNL     1      -1.869  -2.882   1.035  0.00  0.00    +0.074 A 
ATOM      3  C   UNL     1      -1.823  -4.152   0.569  0.00  0.00    +0.197 A 
ATOM      4  N   UNL     1      -1.219  -4.124  -0.641  0.00  0.00    -0.213 N 
ATOM      5  N   UNL     1      -0.889  -2.792  -0.927  0.00  0.00    -0.170 NA
ENDROOT
BRANCH   4   6
ATOM      6  C   UNL     1      -0.972  -5.231  -1.465  0.00  0.00    +0.068 A 
ATOM      7  C   UNL     1      -1.952  -6.197  -1.645  0.00  0.00    +0.029 A 
ATOM      8  C   UNL     1      -1.706  -7.286  -2.458  0.00  0.00    +0.017 A 
ATOM      9  C   UNL     1      -0.483  -7.414  -3.092  0.00  0.00    +0.018 A 
ATOM     10  C   UNL     1       0.496  -6.453  -2.914  0.00  0.00    +0.017 A 
ATOM     11  C   UNL     1       0.253  -5.359  -2.107  0.00  0.00    +0.029 A 
ATOM     12 BR   UNL     1      -0.148  -8.907  -4.204  0.00  0.00    -0.050 Br
ENDBRANCH   4   6
BRANCH   3  13
ATOM     13  S   UNL     1      -2.439  -5.583   1.390  0.00  0.00    +0.073 S 
ATOM     14  O   UNL     1      -3.785  -5.748   0.965  0.00  0.00    -0.152 OA
ATOM     15  O   UNL     1      -1.459  -6.599   1.226  0.00  0.00    -0.152 OA
BRANCH  13  16
ATOM     16  N   UNL     1      -2.493  -5.235   3.008  0.00  0.00    -0.202 NA
ATOM     17  H   UNL     1      -2.210  -4.363   3.326  0.00  0.00    +0.144 HD
ATOM     18  H   UNL     1      -2.808  -5.902   3.638  0.00  0.00    +0.144 HD
ENDBRANCH  13  16
ENDBRANCH   3  13
BRANCH   1  19
ATOM     19  C   UNL     1      -1.110  -0.556   0.190  0.00  0.00    +0.057 C 
BRANCH  19  21
ATOM     20  C   UNL     1       0.530   1.327   0.111  0.00  0.00    +0.004 C 
ATOM     21  C   UNL     1       0.363  -0.190  -0.000  0.00  0.00    +0.003 C 
ENDBRANCH  19  21
ENDBRANCH   1  19
TORSDOF 5
