REMARK  Name = ZINC65381763
REMARK  6 active torsions:
REMARK  status: ('A' for Active; 'I' for Inactive)
REMARK    1  A    between atoms: C_1  and  C_2
REMARK    2  A    between atoms: C_7  and  N_8
REMARK    3  A    between atoms: N_8  and  C_9
REMARK    4  A    between atoms: N_8  and  C_10
REMARK    5  A    between atoms: N_11  and  C_12
REMARK    6  A    between atoms: N_15  and  C_18
REMARK                            x       y       z     vdW  Elec       q    Type
REMARK                         _______ _______ _______ _____ _____    ______ ____
ROOT
ATOM      1  C   UNL     1      -0.123  -4.871  -1.244  0.00  0.00    +0.070 C 
ATOM      2  C   UNL     1       1.236  -4.887  -1.952  0.00  0.00    +0.003 C 
ATOM      3  C   UNL     1       1.127  -5.715  -3.234  0.00  0.00    -0.077 C 
ATOM      4  N   UNL     1       0.732  -7.089  -2.901  0.00  0.00    +0.382 N 
ATOM      5  C   UNL     1      -0.602  -7.088  -2.287  0.00  0.00    -0.077 C 
ATOM      6  C   UNL     1      -0.560  -6.313  -0.969  0.00  0.00    +0.003 C 
ATOM      7  H   UNL     1       1.398  -7.483  -2.254  0.00  0.00    -0.081 HD
ENDROOT
BRANCH   1  15
ATOM      8  C   UNL     1      -0.542   1.404   0.085  0.00  0.00    +0.049 C 
ATOM      9  C   UNL     1      -0.397  -0.096   0.069  0.00  0.00    +0.005 A 
ATOM     10  C   UNL     1      -0.502  -0.804  -1.112  0.00  0.00    +0.092 A 
ATOM     11  N   UNL     1      -0.370  -2.122  -1.092  0.00  0.00    -0.334 N 
ATOM     12  C   UNL     1      -0.139  -2.766   0.043  0.00  0.00    +0.195 A 
ATOM     13  N   UNL     1      -0.032  -2.124   1.196  0.00  0.00    -0.201 NA
ATOM     14  C   UNL     1      -0.148  -0.801   1.249  0.00  0.00    +0.129 A 
ATOM     15  N   UNL     1      -0.007  -4.143   0.022  0.00  0.00    -0.312 N 
ATOM     16  H   UNL     1       0.162  -4.627   0.846  0.00  0.00    +0.149 HD
ATOM     17  H   UNL     1      -0.443  -2.622  -1.920  0.00  0.00    +0.168 HD
BRANCH  14  18
ATOM     18  N   UNL     1      -0.030  -0.133   2.456  0.00  0.00    -0.321 N 
ATOM     19  C   UNL     1      -1.195   0.007   3.333  0.00  0.00    +0.130 C 
ATOM     20  C   UNL     1       1.260   0.435   2.856  0.00  0.00    +0.130 C 
ENDBRANCH  14  18
ENDBRANCH   1  15
BRANCH   4  21
ATOM     21  C   UNL     1       0.705  -7.900  -4.125  0.00  0.00    -0.066 C 
ATOM     22  C   UNL     1       2.090  -7.889  -4.765  0.00  0.00    +0.007 C 
ATOM     23  C   UNL     1       2.022  -8.496  -6.169  0.00  0.00    +0.164 C 
ATOM     24  S   UNL     1       1.515 -10.236  -6.034  0.00  0.00    -0.031 S 
ATOM     25  O   UNL     1       1.183 -10.713  -7.331  0.00  0.00    -0.174 OA
ATOM     26  O   UNL     1       2.489 -10.932  -5.268  0.00  0.00    -0.174 OA
ATOM     27  C   UNL     1      -0.012 -10.111  -5.056  0.00  0.00    +0.164 C 
ATOM     28  C   UNL     1       0.283  -9.324  -3.776  0.00  0.00    +0.007 C 
ENDBRANCH   4  21
TORSDOF 3
