REMARK  Name = ZINC29897844
REMARK  6 active torsions:
REMARK  status: ('A' for Active; 'I' for Inactive)
REMARK    1  A    between atoms: N_11  and  C_15
REMARK    2  A    between atoms: C_15  and  C_16
REMARK    3  A    between atoms: N_18  and  C_19
REMARK    4  A    between atoms: C_19  and  C_20
REMARK    5  A    between atoms: C_20  and  C_22
REMARK    6  A    between atoms: C_20  and  N_27
REMARK                            x       y       z     vdW  Elec       q    Type
REMARK                         _______ _______ _______ _____ _____    ______ ____
ROOT
ATOM      1  C   UNL     1      -0.026   6.319   1.079  0.00  0.00    +0.232 C 
ATOM      2  O   UNL     1      -0.452   5.537   1.902  0.00  0.00    -0.274 OA
ATOM      3  N   UNL     1       0.586   7.451   1.478  0.00  0.00    -0.315 N 
ATOM      4  H   UNL     1       0.972   8.161   0.732  0.00  0.00    +0.149 HD
ENDROOT
BRANCH   1   5
ATOM      5  C   UNL     1      -0.181   6.025  -0.391  0.00  0.00    +0.227 C 
BRANCH   5  16
ATOM      6  C   UNL     1      -4.612   5.079  -0.440  0.00  0.00    +0.002 A 
ATOM      7  C   UNL     1      -4.996   3.782  -0.620  0.00  0.00    +0.009 A 
ATOM      8  C   UNL     1      -4.007   2.798  -0.782  0.00  0.00    -0.014 A 
ATOM      9  C   UNL     1      -4.298   1.438  -0.975  0.00  0.00    +0.009 A 
ATOM     10  C   UNL     1      -3.281   0.542  -1.125  0.00  0.00    +0.003 A 
ATOM     11  C   UNL     1      -1.942   0.949  -1.092  0.00  0.00    +0.029 A 
ATOM     12  C   UNL     1      -1.640   2.248  -0.910  0.00  0.00    +0.118 A 
ATOM     13  C   UNL     1      -2.655   3.199  -0.757  0.00  0.00    +0.031 A 
ATOM     14  C   UNL     1      -2.260   4.522  -0.568  0.00  0.00    +0.061 A 
ATOM     15  C   UNL     1      -3.277   5.463  -0.412  0.00  0.00    +0.025 A 
ATOM     16  N   UNL     1      -0.873   4.745  -0.562  0.00  0.00    -0.194 N 
ATOM     17  S   UNL     1      -0.177   3.238  -0.796  0.00  0.00    +0.076 S 
ATOM     18  O   UNL     1       0.496   2.881   0.404  0.00  0.00    -0.150 OA
ATOM     19  O   UNL     1       0.446   3.239  -2.074  0.00  0.00    -0.150 OA
ENDBRANCH   5  16
ENDBRANCH   1   5
BRANCH   3  20
ATOM     20  C   UNL     1       0.737   7.738   2.907  0.00  0.00    +0.096 C 
BRANCH  20  21
ATOM     21  C   UNL     1       1.344   9.130   3.087  0.00  0.00    +0.016 C 
BRANCH  21  22
ATOM     22  N   UNL     1       2.593   9.223   2.320  0.00  0.00    +0.387 N 
ATOM     23  C   UNL     1       3.556   8.204   2.758  0.00  0.00    -0.078 C 
ATOM     24  C   UNL     1       4.784   8.235   1.845  0.00  0.00    -0.019 C 
ATOM     25  C   UNL     1       5.422   9.626   1.902  0.00  0.00    -0.004 C 
ATOM     26  C   UNL     1       4.384  10.672   1.488  0.00  0.00    -0.019 C 
ATOM     27  C   UNL     1       3.168  10.571   2.411  0.00  0.00    -0.078 C 
ATOM     28  H   UNL     1       2.358   9.030   1.263  0.00  0.00    -0.081 HD
ENDBRANCH  21  22
BRANCH  21  29
ATOM     29  C   UNL     1       0.372  10.170   2.591  0.00  0.00    +0.093 A 
ATOM     30  C   UNL     1      -0.447  10.912   3.358  0.00  0.00    +0.043 A 
ATOM     31  C   UNL     1      -1.178  11.750   2.486  0.00  0.00    +0.041 A 
ATOM     32  C   UNL     1      -0.763  11.470   1.238  0.00  0.00    +0.195 A 
ATOM     33  O   UNL     1       0.180  10.517   1.308  0.00  0.00    -0.469 OA
ENDBRANCH  21  29
ENDBRANCH  20  21
ENDBRANCH   3  20
TORSDOF 6
