REMARK  Name = ZINC27691611
REMARK  10 active torsions:
REMARK  status: ('A' for Active; 'I' for Inactive)
REMARK    1  A    between atoms: C_1  and  C_2
REMARK    2  A    between atoms: C_2  and  C_4
REMARK    3  A    between atoms: C_2  and  N_20
REMARK    4  A    between atoms: C_4  and  C_5
REMARK    5  A    between atoms: N_8  and  C_16
REMARK    6  A    between atoms: C_16  and  C_17
REMARK    7  A    between atoms: C_17  and  C_19
REMARK    8  A    between atoms: C_21  and  C_23
REMARK    9  A    between atoms: C_33  and  C_35
REMARK   10  A    between atoms: C_33  and  C_36
REMARK                            x       y       z     vdW  Elec       q    Type
REMARK                         _______ _______ _______ _____ _____    ______ ____
ROOT
ATOM      1  C   UNL     1       4.819   4.643   2.440  0.00  0.00    +0.028 C 
ATOM      2  C   UNL     1       3.860   3.923   1.490  0.00  0.00    +0.070 C 
ENDROOT
BRANCH   2   3
ATOM      3  N   UNL     1       3.969   4.507   0.151  0.00  0.00    -0.312 N 
ATOM      4  C   UNL     1       4.925   4.078  -0.696  0.00  0.00    +0.221 C 
ATOM      5  O   UNL     1       5.696   3.207  -0.349  0.00  0.00    -0.275 OA
ATOM      6  H   UNL     1       3.270   5.297  -0.163  0.00  0.00    +0.149 HD
BRANCH   4   7
ATOM      7  C   UNL     1       5.037   4.678  -2.073  0.00  0.00    +0.129 C 
ATOM      8  C   UNL     1       5.629   3.655  -3.070  0.00  0.00    +0.137 C 
ATOM      9  C   UNL     1       7.076   4.092  -3.211  0.00  0.00    +0.308 C 
ATOM     10  O   UNL     1       8.022   3.377  -3.440  0.00  0.00    -0.251 OA
ATOM     11  O   UNL     1       7.108   5.426  -3.033  0.00  0.00    -0.457 OA
ATOM     12  C   UNL     1       6.075   5.815  -2.088  0.00  0.00    +0.130 C 
ATOM     13  C   UNL     1       5.410   7.117  -2.536  0.00  0.00    +0.077 C 
ATOM     14  C   UNL     1       6.436   8.253  -2.474  0.00  0.00    +0.164 C 
ATOM     15  O   UNL     1       6.961   8.345  -1.147  0.00  0.00    -0.374 OA
ATOM     16  C   UNL     1       7.646   7.171  -0.706  0.00  0.00    +0.068 C 
ATOM     17  C   UNL     1       6.673   5.989  -0.693  0.00  0.00    +0.083 C 
ATOM     18  C   UNL     1       8.805   6.868  -1.659  0.00  0.00    +0.041 C 
ATOM     19  C   UNL     1       8.191   7.399   0.705  0.00  0.00    +0.041 C 
ENDBRANCH   4   7
ENDBRANCH   2   3
BRANCH   2  20
ATOM     20  C   UNL     1       2.425   4.079   1.999  0.00  0.00    +0.031 C 
BRANCH  20  21
ATOM     21  C   UNL     1       1.483   3.240   1.133  0.00  0.00    +0.040 C 
ATOM     22  C   UNL     1       1.302   3.883  -0.261  0.00  0.00    +0.113 C 
ATOM     23  N   UNL     1      -0.116   3.596  -0.568  0.00  0.00    -0.325 N 
ATOM     24  C   UNL     1      -0.804   3.485   0.647  0.00  0.00    +0.034 A 
ATOM     25  C   UNL     1       0.077   3.257   1.698  0.00  0.00    -0.021 A 
ATOM     26  C   UNL     1      -0.394   3.099   2.984  0.00  0.00    +0.021 A 
ATOM     27  C   UNL     1      -1.753   3.173   3.239  0.00  0.00    +0.018 A 
ATOM     28  C   UNL     1      -2.637   3.406   2.201  0.00  0.00    +0.017 A 
ATOM     29  C   UNL     1      -2.170   3.561   0.912  0.00  0.00    +0.024 A 
ATOM     30 BR   UNL     1      -2.399   2.957   5.003  0.00  0.00    -0.050 Br
BRANCH  23  31
ATOM     31  C   UNL     1      -0.697   4.653  -1.407  0.00  0.00    +0.135 C 
BRANCH  31  32
ATOM     32  C   UNL     1      -0.401   5.998  -0.797  0.00  0.00    -0.063 C 
ATOM     33  C   UNL     1       0.640   6.685  -1.199  0.00  0.00    +0.009 C 
ATOM     34  C   UNL     1      -1.302   6.554   0.276  0.00  0.00    +0.040 C 
ENDBRANCH  31  32
ENDBRANCH  23  31
ENDBRANCH  20  21
ENDBRANCH   2  20
TORSDOF 6
