REMARK  Name = ZINC59238656
REMARK  11 active torsions:
REMARK  status: ('A' for Active; 'I' for Inactive)
REMARK    1  A    between atoms: C_1  and  C_2
REMARK    2  A    between atoms: C_3  and  C_24
REMARK    3  A    between atoms: C_4  and  C_10
REMARK    4  A    between atoms: C_13  and  O_16
REMARK    5  A    between atoms: O_16  and  C_17
REMARK    6  A    between atoms: C_17  and  C_18
REMARK    7  A    between atoms: N_26  and  C_27
REMARK    8  A    between atoms: C_29  and  O_36
REMARK    9  A    between atoms: C_32  and  O_33
REMARK   10  A    between atoms: O_33  and  C_34
REMARK   11  A    between atoms: O_36  and  C_37
REMARK                            x       y       z     vdW  Elec       q    Type
REMARK                         _______ _______ _______ _____ _____    ______ ____
ROOT
ATOM      1  C   UNL     1      -0.042   1.792   0.382  0.00  0.00    +0.061 C 
ATOM      2  C   UNL     1       0.059   0.309   0.133  0.00  0.00    +0.017 C 
ATOM      3  C   UNL     1      -1.067  -0.412  -0.048  0.00  0.00    +0.056 C 
ATOM      4  C   UNL     1      -0.920  -1.899  -0.297  0.00  0.00    +0.139 C 
ATOM      5  N   UNL     1       0.450  -2.440  -0.321  0.00  0.00    -0.315 N 
ATOM      6  C   UNL     1       1.477  -1.591  -0.123  0.00  0.00    +0.135 C 
ATOM      7  S   UNL     1       3.075  -2.204  -0.149  0.00  0.00    -0.019 S 
ATOM      8  N   UNL     1       1.290  -0.282   0.087  0.00  0.00    -0.300 N 
ATOM      9  H   UNL     1       0.608  -3.384  -0.476  0.00  0.00    +0.149 HD
ATOM     10  H   UNL     1       2.071   0.278   0.219  0.00  0.00    +0.154 HD
ENDROOT
BRANCH   4  11
ATOM     11  C   UNL     1      -1.687  -2.628   0.776  0.00  0.00    -0.022 A 
ATOM     12  C   UNL     1      -1.173  -2.709   2.057  0.00  0.00    +0.009 A 
ATOM     13  C   UNL     1      -1.874  -3.377   3.043  0.00  0.00    +0.046 A 
ATOM     14  C   UNL     1      -3.095  -3.966   2.746  0.00  0.00    +0.121 A 
ATOM     15  C   UNL     1      -3.608  -3.883   1.460  0.00  0.00    +0.046 A 
ATOM     16  C   UNL     1      -2.906  -3.210   0.479  0.00  0.00    +0.009 A 
BRANCH  14  17
ATOM     17  O   UNL     1      -3.786  -4.624   3.714  0.00  0.00    -0.487 OA
BRANCH  17  18
ATOM     18  C   UNL     1      -5.035  -5.206   3.337  0.00  0.00    +0.264 C 
BRANCH  18  19
ATOM     19  C   UNL     1      -5.653  -5.888   4.531  0.00  0.00    -0.010 A 
ATOM     20  C   UNL     1      -5.370  -7.215   4.791  0.00  0.00    +0.007 A 
ATOM     21  C   UNL     1      -5.936  -7.841   5.887  0.00  0.00    +0.000 A 
ATOM     22  C   UNL     1      -6.785  -7.138   6.721  0.00  0.00    +0.000 A 
ATOM     23  C   UNL     1      -7.067  -5.810   6.461  0.00  0.00    +0.000 A 
ATOM     24  C   UNL     1      -6.497  -5.184   5.369  0.00  0.00    +0.007 A 
ENDBRANCH  18  19
ENDBRANCH  17  18
ENDBRANCH  14  17
ENDBRANCH   4  11
BRANCH   3  25
ATOM     25  C   UNL     1      -2.344   0.201  -0.006  0.00  0.00    +0.248 C 
ATOM     26  O   UNL     1      -2.914   0.490  -1.042  0.00  0.00    -0.270 OA
ATOM     27  N   UNL     1      -2.926   0.463   1.180  0.00  0.00    -0.279 N 
ATOM     28  H   UNL     1      -2.457   0.265   2.006  0.00  0.00    +0.155 HD
BRANCH  27  29
ATOM     29  C   UNL     1      -4.210   1.022   1.221  0.00  0.00    +0.079 A 
ATOM     30  C   UNL     1      -4.944   1.164   0.053  0.00  0.00    +0.074 A 
ATOM     31  C   UNL     1      -6.214   1.718   0.096  0.00  0.00    +0.140 A 
ATOM     32  C   UNL     1      -6.751   2.130   1.308  0.00  0.00    +0.086 A 
ATOM     33  C   UNL     1      -6.021   1.990   2.474  0.00  0.00    +0.071 A 
ATOM     34  C   UNL     1      -4.754   1.432   2.437  0.00  0.00    +0.143 A 
ATOM     35 CL   UNL     1      -8.342   2.824   1.359  0.00  0.00    -0.080 Cl
BRANCH  34  36
ATOM     36  O   UNL     1      -4.039   1.289   3.585  0.00  0.00    -0.493 OA
ATOM     37  C   UNL     1      -4.659   1.730   4.795  0.00  0.00    +0.277 C 
ENDBRANCH  34  36
BRANCH  31  38
ATOM     38  O   UNL     1      -6.934   1.858  -1.049  0.00  0.00    -0.494 OA
ATOM     39  C   UNL     1      -6.319   1.413  -2.260  0.00  0.00    +0.277 C 
ENDBRANCH  31  38
ENDBRANCH  27  29
ENDBRANCH   3  25
TORSDOF 8
