REMARK  Name = ZINC33937165
REMARK  13 active torsions:
REMARK  status: ('A' for Active; 'I' for Inactive)
REMARK    1  A    between atoms: C_1  and  C_2
REMARK    2  A    between atoms: C_2  and  C_3
REMARK    3  A    between atoms: C_3  and  C_5
REMARK    4  A    between atoms: C_3  and  N_17
REMARK    5  A    between atoms: N_9  and  C_10
REMARK    6  A    between atoms: C_10  and  C_11
REMARK    7  A    between atoms: N_17  and  C_18
REMARK    8  A    between atoms: N_17  and  C_24
REMARK    9  A    between atoms: C_18  and  C_19
REMARK   10  A    between atoms: C_24  and  C_25
REMARK   11  A    between atoms: C_29  and  O_37
REMARK   12  A    between atoms: O_37  and  C_38
REMARK   13  A    between atoms: C_38  and  C_39
REMARK                            x       y       z     vdW  Elec       q    Type
REMARK                         _______ _______ _______ _____ _____    ______ ____
ROOT
ATOM      1  N   UNL     1       2.759  -0.006   0.647  0.00  0.00    +0.392 N 
ATOM      2  H   UNL     1       2.987  -0.531  -0.184  0.00  0.00    -0.080 HD
ENDROOT
BRANCH   1   3
ATOM      3  C   UNL     1       1.322  -0.130   0.924  0.00  0.00    +0.003 C 
BRANCH   3   4
ATOM      4  C   UNL     1       0.974   0.684   2.144  0.00  0.00    +0.138 A 
ATOM      5  N   UNL     1       1.649   0.740   3.267  0.00  0.00    -0.115 NA
ATOM      6  N   UNL     1       1.031   1.543   4.063  0.00  0.00    -0.023 NA
ATOM      7  N   UNL     1      -0.020   2.000   3.478  0.00  0.00    -0.044 NA
ATOM      8  N   UNL     1      -0.088   1.498   2.291  0.00  0.00    -0.228 N 
BRANCH   8   9
ATOM      9  C   UNL     1      -1.127   1.763   1.292  0.00  0.00    +0.178 C 
BRANCH   9  10
ATOM     10  C   UNL     1      -2.331   0.858   1.558  0.00  0.00    +0.140 C 
ATOM     11  C   UNL     1      -3.478   1.184   0.568  0.00  0.00    +0.035 C 
ATOM     12  C   UNL     1      -4.248  -0.164   0.554  0.00  0.00    +0.031 C 
ATOM     13  C   UNL     1      -3.110  -1.194   0.718  0.00  0.00    +0.160 C 
ATOM     14  O   UNL     1      -1.990  -0.514   1.301  0.00  0.00    -0.375 OA
ENDBRANCH   9  10
ENDBRANCH   8   9
ENDBRANCH   3   4
BRANCH   3  16
ATOM     15  C   UNL     1       1.261  -2.413  -0.088  0.00  0.00    +0.002 C 
ATOM     16  C   UNL     1       0.976  -1.599   1.175  0.00  0.00    -0.011 C 
ENDBRANCH   3  16
ENDBRANCH   1   3
BRANCH   1  17
ATOM     17  C   UNL     1       3.097   1.409   0.441  0.00  0.00    -0.034 C 
BRANCH  17  18
ATOM     18  C   UNL     1       2.429   1.908  -0.814  0.00  0.00    -0.027 A 
ATOM     19  C   UNL     1       1.256   2.574  -0.950  0.00  0.00    +0.009 A 
ATOM     20  C   UNL     1       0.834   2.938  -2.215  0.00  0.00    +0.008 A 
ATOM     21  C   UNL     1       1.606   2.618  -3.282  0.00  0.00    +0.045 A 
ATOM     22  S   UNL     1       2.980   1.782  -2.507  0.00  0.00    -0.103 S 
ENDBRANCH  17  18
ENDBRANCH   1  17
BRANCH   1  23
ATOM     23  C   UNL     1       3.525  -0.532   1.785  0.00  0.00    -0.036 C 
BRANCH  23  24
ATOM     24  C   UNL     1       4.992  -0.538   1.443  0.00  0.00    +0.001 A 
ATOM     25  C   UNL     1       5.782   0.492   1.835  0.00  0.00    +0.017 A 
ATOM     26  C   UNL     1       7.203   0.456   1.488  0.00  0.00    +0.002 A 
ATOM     27  C   UNL     1       8.066   1.491   1.867  0.00  0.00    +0.055 A 
ATOM     28  C   UNL     1       9.401   1.425   1.522  0.00  0.00    +0.121 A 
ATOM     29  C   UNL     1       9.889   0.337   0.802  0.00  0.00    +0.047 A 
ATOM     30  C   UNL     1       9.050  -0.687   0.424  0.00  0.00    +0.030 A 
ATOM     31  C   UNL     1       7.701  -0.641   0.760  0.00  0.00    +0.049 A 
ATOM     32  N   UNL     1       6.844  -1.658   0.391  0.00  0.00    -0.322 N 
ATOM     33  H   UNL     1       7.188  -2.414  -0.111  0.00  0.00    +0.169 HD
ATOM     34  C   UNL     1       5.541  -1.619   0.720  0.00  0.00    +0.251 A 
ATOM     35  O   UNL     1       4.815  -2.537   0.381  0.00  0.00    -0.268 OA
BRANCH  28  36
ATOM     36  O   UNL     1      10.243   2.428   1.887  0.00  0.00    -0.492 OA
BRANCH  36  37
ATOM     37  C   UNL     1      11.613   2.298   1.500  0.00  0.00    +0.225 C 
ATOM     38  C   UNL     1      12.401   3.512   1.996  0.00  0.00    +0.048 C 
ENDBRANCH  36  37
ENDBRANCH  28  36
ENDBRANCH  23  24
ENDBRANCH   1  23
TORSDOF 11
