REMARK  Name = ZINC40802656
REMARK  8 active torsions:
REMARK  status: ('A' for Active; 'I' for Inactive)
REMARK    1  A    between atoms: C_5  and  N_9
REMARK    2  A    between atoms: N_9  and  C_10
REMARK    3  A    between atoms: C_10  and  C_11
REMARK    4  A    between atoms: C_11  and  N_12
REMARK    5  A    between atoms: N_16  and  C_17
REMARK    6  A    between atoms: C_17  and  C_18
REMARK    7  A    between atoms: C_18  and  N_19
REMARK    8  A    between atoms: N_19  and  C_20
REMARK                            x       y       z     vdW  Elec       q    Type
REMARK                         _______ _______ _______ _____ _____    ______ ____
ROOT
ATOM      1  N   UNL     1       6.019  -4.952  -0.081  0.00  0.00    -0.371 N 
ATOM      2  C   UNL     1       6.058  -6.253  -0.088  0.00  0.00    +0.106 C 
ATOM      3  N   UNL     1       4.963  -7.094  -0.088  0.00  0.00    -0.285 N 
ATOM      4  C   UNL     1       5.385  -8.409  -0.097  0.00  0.00    +0.127 C 
ATOM      5  N   UNL     1       4.612  -9.457  -0.100  0.00  0.00    -0.267 NA
ATOM      6  C   UNL     1       6.863  -8.425  -0.105  0.00  0.00    +0.025 A 
ATOM      7  C   UNL     1       7.282  -7.082  -0.104  0.00  0.00    +0.023 A 
ATOM      8  C   UNL     1       8.639  -6.783  -0.115  0.00  0.00    +0.012 A 
ATOM      9  C   UNL     1       9.567  -7.808  -0.129  0.00  0.00    +0.001 A 
ATOM     10  C   UNL     1       9.155  -9.129  -0.133  0.00  0.00    +0.001 A 
ATOM     11  C   UNL     1       7.808  -9.442  -0.115  0.00  0.00    +0.012 A 
ATOM     12  H   UNL     1       4.037  -6.805  -0.082  0.00  0.00    +0.155 HD
ATOM     13  H   UNL     1       6.845  -4.442  -0.087  0.00  0.00    +0.161 HD
ENDROOT
BRANCH   1  14
ATOM     14  C   UNL     1       4.729  -4.258  -0.065  0.00  0.00    +0.132 C 
BRANCH  14  15
ATOM     15  C   UNL     1       4.964  -2.746  -0.060  0.00  0.00    +0.122 C 
BRANCH  15  16
ATOM     16  N   UNL     1       3.674  -2.052  -0.044  0.00  0.00    -0.342 N 
ATOM     17  H   UNL     1       2.849  -2.562  -0.038  0.00  0.00    +0.146 HD
BRANCH  16  22
ATOM     18  C   UNL     1      -0.017   1.389   0.010  0.00  0.00    +0.001 A 
ATOM     19  C   UNL     1       1.141   2.105   0.003  0.00  0.00    +0.008 A 
ATOM     20  C   UNL     1       2.375   1.433  -0.013  0.00  0.00    -0.016 A 
ATOM     21  C   UNL     1       2.393   0.016  -0.021  0.00  0.00    +0.003 A 
ATOM     22  C   UNL     1       3.632  -0.659  -0.036  0.00  0.00    +0.035 A 
ATOM     23  C   UNL     1       4.801   0.071  -0.044  0.00  0.00    +0.023 A 
ATOM     24  C   UNL     1       4.770   1.463  -0.035  0.00  0.00    +0.002 A 
ATOM     25  C   UNL     1       3.589   2.140  -0.021  0.00  0.00    +0.008 A 
ATOM     26  C   UNL     1       1.179  -0.689  -0.013  0.00  0.00    +0.010 A 
ATOM     27  C   UNL     1       0.002  -0.004   0.002  0.00  0.00    +0.001 A 
ENDBRANCH  16  22
ENDBRANCH  15  16
ENDBRANCH  14  15
ENDBRANCH   1  14
BRANCH   5  28
ATOM     28  C   UNL     1       3.156  -9.293  -0.093  0.00  0.00    +0.162 C 
BRANCH  28  29
ATOM     29  C   UNL     1       2.575  -9.834  -1.401  0.00  0.00    +0.125 C 
BRANCH  29  30
ATOM     30  N   UNL     1       1.119  -9.670  -1.393  0.00  0.00    -0.342 N 
ATOM     31  H   UNL     1       0.681  -9.268  -0.627  0.00  0.00    +0.146 HD
BRANCH  30  32
ATOM     32  C   UNL     1       0.365 -10.092  -2.486  0.00  0.00    +0.035 A 
ATOM     33  C   UNL     1      -1.037  -9.932  -2.488  0.00  0.00    +0.003 A 
ATOM     34  C   UNL     1      -1.784 -10.368  -3.610  0.00  0.00    -0.016 A 
ATOM     35  C   UNL     1      -1.116 -10.952  -4.701  0.00  0.00    +0.008 A 
ATOM     36  C   UNL     1       0.238 -11.093  -4.672  0.00  0.00    +0.002 A 
ATOM     37  C   UNL     1       0.983 -10.665  -3.577  0.00  0.00    +0.023 A 
ATOM     38  C   UNL     1      -3.180 -10.209  -3.612  0.00  0.00    +0.008 A 
ATOM     39  C   UNL     1      -3.795  -9.640  -2.539  0.00  0.00    +0.001 A 
ATOM     40  C   UNL     1      -3.060  -9.211  -1.436  0.00  0.00    +0.001 A 
ATOM     41  C   UNL     1      -1.705  -9.349  -1.400  0.00  0.00    +0.010 A 
ENDBRANCH  30  32
ENDBRANCH  29  30
ENDBRANCH  28  29
ENDBRANCH   5  28
TORSDOF 8
