REMARK  Name = ZINC38894153
REMARK  8 active torsions:
REMARK  status: ('A' for Active; 'I' for Inactive)
REMARK    1  A    between atoms: C_5  and  C_7
REMARK    2  A    between atoms: C_7  and  C_8
REMARK    3  A    between atoms: C_8  and  C_9
REMARK    4  A    between atoms: C_9  and  N_10
REMARK    5  A    between atoms: C_11  and  C_13
REMARK    6  A    between atoms: N_18  and  C_20
REMARK    7  A    between atoms: C_20  and  C_21
REMARK    8  A    between atoms: C_23  and  C_26
REMARK                            x       y       z     vdW  Elec       q    Type
REMARK                         _______ _______ _______ _____ _____    ______ ____
ROOT
ATOM      1  C   UNL     1       1.724  -6.561   4.423  0.00  0.00    +0.058 C 
ATOM      2  C   UNL     1       0.542  -6.074   5.266  0.00  0.00    +0.009 C 
ATOM      3  C   UNL     1       0.657  -6.660   6.676  0.00  0.00    -0.018 C 
ATOM      4  C   UNL     1       0.714  -8.186   6.585  0.00  0.00    -0.078 C 
ATOM      5  N   UNL     1       1.880  -8.590   5.789  0.00  0.00    +0.386 N 
ATOM      6  C   UNL     1       1.742  -8.091   4.415  0.00  0.00    -0.065 C 
ATOM      7  H   UNL     1       2.717  -8.206   6.202  0.00  0.00    -0.081 HD
ENDROOT
BRANCH   1   9
ATOM      8  N   UNL     1       1.537  -4.727   2.774  0.00  0.00    -0.315 N 
ATOM      9  C   UNL     1       1.579  -6.053   3.011  0.00  0.00    +0.214 C 
ATOM     10  O   UNL     1       1.500  -6.837   2.089  0.00  0.00    -0.276 OA
ATOM     11  H   UNL     1       1.600  -4.100   3.511  0.00  0.00    +0.149 HD
BRANCH   8  12
ATOM     12  C   UNL     1       1.396  -4.232   1.402  0.00  0.00    +0.104 C 
BRANCH  12  13
ATOM     13  C   UNL     1       1.376  -2.702   1.411  0.00  0.00    +0.023 C 
BRANCH  13  14
ATOM     14  C   UNL     1       1.229  -2.186  -0.022  0.00  0.00    +0.038 C 
BRANCH  14  19
ATOM     15  C   UNL     1      -0.017   1.378   0.010  0.00  0.00    +0.000 A 
ATOM     16  C   UNL     1       1.171   2.086   0.002  0.00  0.00    +0.001 A 
ATOM     17  C   UNL     1       2.377   1.412  -0.013  0.00  0.00    +0.020 A 
ATOM     18  C   UNL     1       2.397   0.029  -0.021  0.00  0.00    +0.044 A 
ATOM     19  C   UNL     1       1.208  -0.679  -0.013  0.00  0.00    -0.029 A 
ATOM     20  C   UNL     1       0.002  -0.004   0.002  0.00  0.00    +0.005 A 
ATOM     21 CL   UNL     1       3.912  -0.818  -0.041  0.00  0.00    -0.083 Cl
ENDBRANCH  14  19
ENDBRANCH  13  14
ENDBRANCH  12  13
ENDBRANCH   8  12
ENDBRANCH   1   9
BRANCH   5  22
ATOM     22  C   UNL     1       1.974 -10.055   5.769  0.00  0.00    +0.022 C 
BRANCH  22  23
ATOM     23  C   UNL     1       2.248 -10.560   7.162  0.00  0.00    +0.211 A 
ATOM     24  N   UNL     1       1.347 -10.889   8.044  0.00  0.00    -0.193 NA
ATOM     25  C   UNL     1       1.942 -11.296   9.180  0.00  0.00    +0.202 A 
ATOM     26  N   UNL     1       3.240 -11.226   9.021  0.00  0.00    -0.056 NA
ATOM     27  O   UNL     1       3.459 -10.751   7.701  0.00  0.00    -0.340 OA
BRANCH  25  28
ATOM     28  C   UNL     1       1.243 -11.749  10.408  0.00  0.00    +0.023 A 
ATOM     29  C   UNL     1      -0.150 -11.783  10.447  0.00  0.00    +0.014 A 
ATOM     30  C   UNL     1      -0.795 -12.205  11.591  0.00  0.00    +0.039 A 
ATOM     31  C   UNL     1      -0.061 -12.596  12.699  0.00  0.00    +0.123 A 
ATOM     32  C   UNL     1       1.323 -12.564  12.665  0.00  0.00    +0.039 A 
ATOM     33  C   UNL     1       1.977 -12.148  11.523  0.00  0.00    +0.014 A 
ATOM     34  F   UNL     1      -0.698 -13.009  13.817  0.00  0.00    -0.205 F 
ENDBRANCH  25  28
ENDBRANCH  22  23
ENDBRANCH   5  22
TORSDOF 8
