REMARK  Name = ZINC36579458
REMARK  16 active torsions:
REMARK  status: ('A' for Active; 'I' for Inactive)
REMARK    1  A    between atoms: C_1  and  C_2
REMARK    2  A    between atoms: C_2  and  C_3
REMARK    3  A    between atoms: C_2  and  C_4
REMARK    4  A    between atoms: C_2  and  N_5
REMARK    5  A    between atoms: C_6  and  C_8
REMARK    6  A    between atoms: C_8  and  C_10
REMARK    7  A    between atoms: C_8  and  N_17
REMARK    8  A    between atoms: C_15  and  O_16
REMARK    9  A    between atoms: N_17  and  C_36
REMARK   10  A    between atoms: C_18  and  C_20
REMARK   11  A    between atoms: C_26  and  O_28
REMARK   12  A    between atoms: O_28  and  C_29
REMARK   13  A    between atoms: C_29  and  C_30
REMARK   14  A    between atoms: C_36  and  C_37
REMARK   15  A    between atoms: C_36  and  C_38
REMARK   16  A    between atoms: C_36  and  C_39
REMARK                            x       y       z     vdW  Elec       q    Type
REMARK                         _______ _______ _______ _____ _____    ______ ____
ROOT
ATOM      1  N   UNL     1       3.742   0.419  -3.144  0.00  0.00    -0.279 N 
ATOM      2  C   UNL     1       5.050   0.108  -3.234  0.00  0.00    +0.238 C 
ATOM      3  O   UNL     1       5.476  -0.884  -2.682  0.00  0.00    -0.274 OA
ENDROOT
BRANCH   2   4
ATOM      4  C   UNL     1       5.982   0.992  -4.022  0.00  0.00    +0.165 C 
ATOM      5  C   UNL     1       6.845   1.834  -3.059  0.00  0.00    +0.033 C 
ATOM      6  C   UNL     1       8.230   1.852  -3.758  0.00  0.00    +0.021 C 
ATOM      7  C   UNL     1       8.281   0.435  -4.382  0.00  0.00    +0.112 C 
ATOM      8  N   UNL     1       6.897   0.165  -4.823  0.00  0.00    -0.256 N 
ATOM      9  C   UNL     1       6.532  -0.694  -5.795  0.00  0.00    +0.404 C 
ATOM     10  O   UNL     1       5.357  -0.836  -6.071  0.00  0.00    -0.226 OA
BRANCH   9  11
ATOM     11  O   UNL     1       7.469  -1.397  -6.459  0.00  0.00    -0.445 OA
BRANCH  11  12
ATOM     12  C   UNL     1       7.010  -2.289  -7.476  0.00  0.00    +0.269 C 
BRANCH  12  13
ATOM     13  C   UNL     1       8.191  -2.983  -8.106  0.00  0.00    -0.010 A 
ATOM     14  C   UNL     1       8.821  -2.420  -9.200  0.00  0.00    +0.007 A 
ATOM     15  C   UNL     1       9.904  -3.056  -9.777  0.00  0.00    +0.000 A 
ATOM     16  C   UNL     1      10.358  -4.255  -9.260  0.00  0.00    +0.000 A 
ATOM     17  C   UNL     1       9.729  -4.817  -8.165  0.00  0.00    +0.000 A 
ATOM     18  C   UNL     1       8.648  -4.179  -7.585  0.00  0.00    +0.007 A 
ENDBRANCH  12  13
ENDBRANCH  11  12
ENDBRANCH   9  11
ENDBRANCH   2   4
BRANCH   1  19
ATOM     19  C   UNL     1       3.203   1.548  -3.907  0.00  0.00    +0.030 C 
ATOM     20  C   UNL     1       1.707   1.691  -3.619  0.00  0.00    +0.031 C 
ATOM     21  C   UNL     1       3.927   2.832  -3.499  0.00  0.00    +0.031 C 
ATOM     22  C   UNL     1       3.412   1.298  -5.402  0.00  0.00    +0.031 C 
ENDBRANCH   1  19
BRANCH   1  23
ATOM     23  C   UNL     1       2.859  -0.370  -2.281  0.00  0.00    +0.196 C 
BRANCH  23  24
ATOM     24  C   UNL     1       3.425  -0.412  -0.886  0.00  0.00    +0.023 A 
ATOM     25  C   UNL     1       4.029  -1.563  -0.419  0.00  0.00    +0.009 A 
ATOM     26  C   UNL     1       4.549  -1.602   0.862  0.00  0.00    +0.001 A 
ATOM     27  C   UNL     1       4.466  -0.489   1.678  0.00  0.00    +0.004 A 
ATOM     28  C   UNL     1       3.864   0.665   1.216  0.00  0.00    +0.046 A 
ATOM     29  C   UNL     1       3.346   0.708  -0.071  0.00  0.00    +0.122 A 
BRANCH  29  30
ATOM     30  O   UNL     1       2.759   1.844  -0.530  0.00  0.00    -0.506 OA
ATOM     31  H   UNL     1       1.826   1.930  -0.287  0.00  0.00    +0.292 HD
ENDBRANCH  29  30
ENDBRANCH  23  24
BRANCH  23  33
ATOM     32  N   UNL     1       1.844  -2.626  -2.306  0.00  0.00    -0.309 N 
ATOM     33  C   UNL     1       2.751  -1.772  -2.822  0.00  0.00    +0.239 C 
ATOM     34  O   UNL     1       3.480  -2.133  -3.721  0.00  0.00    -0.273 OA
ATOM     35  H   UNL     1       1.310  -2.361  -1.540  0.00  0.00    +0.149 HD
BRANCH  32  37
ATOM     36  C   UNL     1       2.984  -4.726  -2.829  0.00  0.00    +0.031 C 
ATOM     37  C   UNL     1       1.666  -3.953  -2.901  0.00  0.00    +0.026 C 
ATOM     38  C   UNL     1       1.242  -3.803  -4.363  0.00  0.00    +0.031 C 
ATOM     39  C   UNL     1       0.585  -4.715  -2.132  0.00  0.00    +0.031 C 
ENDBRANCH  32  37
ENDBRANCH  23  33
ENDBRANCH   1  23
TORSDOF 10
