REMARK  Name = ZINC05120896
REMARK  7 active torsions:
REMARK  status: ('A' for Active; 'I' for Inactive)
REMARK    1  A    between atoms: C_1  and  N_2
REMARK    2  A    between atoms: N_2  and  C_3
REMARK    3  A    between atoms: N_2  and  C_4
REMARK    4  A    between atoms: C_7  and  C_10
REMARK    5  A    between atoms: C_10  and  C_11
REMARK    6  A    between atoms: C_13  and  O_28
REMARK    7  A    between atoms: C_16  and  O_17
REMARK                            x       y       z     vdW  Elec       q    Type
REMARK                         _______ _______ _______ _____ _____    ______ ____
ROOT
ATOM      1  C   UNL     1       1.172   3.443   0.010  0.00  0.00    +0.003 A 
ATOM      2  C   UNL     1       1.181   2.067   0.002  0.00  0.00    +0.053 A 
ATOM      3  C   UNL     1      -0.016   1.352   0.009  0.00  0.00    +0.129 A 
ATOM      4  C   UNL     1      -1.235   2.035   0.019  0.00  0.00    +0.078 A 
ATOM      5  C   UNL     1      -1.243   3.445   0.033  0.00  0.00    +0.078 A 
ATOM      6  C   UNL     1      -0.034   4.143   0.026  0.00  0.00    +0.132 A 
ATOM      7  C   UNL     1      -2.523   4.175   0.049  0.00  0.00    +0.198 C 
ATOM      8  O   UNL     1      -2.530   5.390   0.057  0.00  0.00    -0.286 OA
ATOM      9  C   UNL     1      -3.798   3.426   0.056  0.00  0.00    +0.033 A 
ATOM     10  C   UNL     1      -5.011   4.108   0.071  0.00  0.00    +0.012 A 
ATOM     11  C   UNL     1      -6.200   3.400   0.077  0.00  0.00    +0.001 A 
ATOM     12  C   UNL     1      -6.191   2.016   0.068  0.00  0.00    +0.001 A 
ATOM     13  C   UNL     1      -4.994   1.323   0.054  0.00  0.00    +0.012 A 
ATOM     14  C   UNL     1      -3.789   2.021   0.048  0.00  0.00    +0.033 A 
ATOM     15  C   UNL     1      -2.505   1.289   0.032  0.00  0.00    +0.198 C 
ATOM     16  O   UNL     1      -2.497   0.073   0.024  0.00  0.00    -0.286 OA
ENDROOT
BRANCH   6  17
ATOM     17  O   UNL     1      -0.032   5.499   0.034  0.00  0.00    -0.506 OA
ATOM     18  H   UNL     1      -0.040   5.898  -0.846  0.00  0.00    +0.292 HD
ENDBRANCH   6  17
BRANCH   3  19
ATOM     19  O   UNL     1       0.002  -0.004   0.002  0.00  0.00    -0.506 OA
ATOM     20  H   UNL     1       0.016  -0.402   0.883  0.00  0.00    +0.292 HD
ENDBRANCH   3  19
BRANCH   1  21
ATOM     21  C   UNL     1       2.476   4.199   0.002  0.00  0.00    +0.074 C 
BRANCH  21  25
ATOM     22  C   UNL     1       3.570   5.195   4.012  0.00  0.00    +0.029 A 
ATOM     23  C   UNL     1       3.993   3.996   3.452  0.00  0.00    +0.023 A 
ATOM     24  C   UNL     1       3.638   3.678   2.156  0.00  0.00    +0.006 A 
ATOM     25  C   UNL     1       2.861   4.550   1.416  0.00  0.00    -0.043 A 
ATOM     26  C   UNL     1       2.443   5.747   1.968  0.00  0.00    +0.006 A 
ATOM     27  C   UNL     1       2.790   6.069   3.266  0.00  0.00    +0.023 A 
BRANCH  22  29
ATOM     28  C   UNL     1       4.749   4.596   6.108  0.00  0.00    +0.129 C 
ATOM     29  N   UNL     1       3.927   5.520   5.323  0.00  0.00    -0.336 N 
ATOM     30  C   UNL     1       3.479   6.784   5.912  0.00  0.00    +0.129 C 
ENDBRANCH  22  29
ENDBRANCH  21  25
ENDBRANCH   1  21
TORSDOF 5
