REMARK  Name = ZINC15946342
REMARK  7 active torsions:
REMARK  status: ('A' for Active; 'I' for Inactive)
REMARK    1  A    between atoms: C_1  and  C_2
REMARK    2  A    between atoms: C_6  and  C_9
REMARK    3  A    between atoms: C_7  and  O_8
REMARK    4  A    between atoms: N_18  and  C_21
REMARK    5  A    between atoms: C_21  and  C_22
REMARK    6  A    between atoms: C_21  and  C_23
REMARK    7  A    between atoms: C_24  and  O_26
REMARK                            x       y       z     vdW  Elec       q    Type
REMARK                         _______ _______ _______ _____ _____    ______ ____
ROOT
ATOM      1  C   UNL     1       0.082  -2.980   2.560  0.00  0.00    +0.227 C 
ATOM      2  N   UNL     1      -0.487  -4.319   2.325  0.00  0.00    -0.313 N 
ATOM      3  C   UNL     1      -1.860  -4.410   2.337  0.00  0.00    +0.080 A 
ATOM      4  C   UNL     1      -2.657  -3.490   3.032  0.00  0.00    +0.067 A 
ATOM      5  C   UNL     1      -4.086  -3.708   2.941  0.00  0.00    -0.027 A 
ATOM      6  C   UNL     1      -4.448  -4.783   2.200  0.00  0.00    -0.021 A 
ATOM      7  S   UNL     1      -2.920  -5.478   1.639  0.00  0.00    -0.080 S 
ATOM      8  C   UNL     1      -5.846  -5.247   1.940  0.00  0.00    -0.035 C 
ATOM      9  N   UNL     1      -6.740  -4.592   2.912  0.00  0.00    +0.384 N 
ATOM     10  C   UNL     1      -6.491  -3.145   2.915  0.00  0.00    -0.073 C 
ATOM     11  C   UNL     1      -5.152  -2.841   3.596  0.00  0.00    +0.018 C 
ATOM     12  C   UNL     1      -1.961  -2.412   3.781  0.00  0.00    +0.220 C 
ATOM     13  N   UNL     1      -0.690  -2.236   3.548  0.00  0.00    -0.223 NA
ATOM     14  H   UNL     1       0.076  -5.094   2.169  0.00  0.00    +0.149 HD
ATOM     15  H   UNL     1      -6.566  -4.965   3.833  0.00  0.00    -0.081 HD
ENDROOT
BRANCH   1  21
ATOM     16  C   UNL     1       0.098   1.384   0.092  0.00  0.00    +0.047 C 
ATOM     17  C   UNL     1       0.095  -0.123   0.080  0.00  0.00    -0.008 A 
ATOM     18  C   UNL     1       0.099  -0.805  -1.121  0.00  0.00    +0.022 A 
ATOM     19  C   UNL     1       0.097  -2.188  -1.132  0.00  0.00    +0.019 A 
ATOM     20  C   UNL     1       0.091  -2.891   0.059  0.00  0.00    +0.026 A 
ATOM     21  C   UNL     1       0.088  -2.213   1.263  0.00  0.00    +0.037 A 
ATOM     22  C   UNL     1       0.096  -0.826   1.276  0.00  0.00    +0.127 A 
ATOM     23 BR   UNL     1       0.101  -3.119  -2.778  0.00  0.00    -0.050 Br
BRANCH  22  24
ATOM     24  O   UNL     1       0.098  -0.157   2.459  0.00  0.00    -0.506 OA
ATOM     25  H   UNL     1      -0.785   0.038   2.802  0.00  0.00    +0.292 HD
ENDBRANCH  22  24
ENDBRANCH   1  21
BRANCH   9  26
ATOM     26  C   UNL     1      -8.138  -4.847   2.539  0.00  0.00    -0.074 C 
ATOM     27  C   UNL     1      -8.364  -6.354   2.405  0.00  0.00    -0.014 C 
ATOM     28  C   UNL     1      -9.065  -4.287   3.620  0.00  0.00    -0.014 C 
ENDBRANCH   9  26
BRANCH  12  29
ATOM     29  O   UNL     1      -2.624  -1.639   4.672  0.00  0.00    -0.492 OA
ATOM     30  H   UNL     1      -2.072  -0.971   5.100  0.00  0.00    +0.294 HD
ENDBRANCH  12  29
TORSDOF 4
