REMARK  Name = ZINC36203050
REMARK  10 active torsions:
REMARK  status: ('A' for Active; 'I' for Inactive)
REMARK    1  A    between atoms: C_3  and  C_8
REMARK    2  A    between atoms: C_8  and  N_9
REMARK    3  A    between atoms: N_9  and  C_10
REMARK    4  A    between atoms: N_9  and  C_28
REMARK    5  A    between atoms: C_10  and  C_11
REMARK    6  A    between atoms: C_14  and  C_16
REMARK    7  A    between atoms: C_16  and  C_17
REMARK    8  A    between atoms: C_16  and  C_22
REMARK    9  A    between atoms: C_16  and  O_27
REMARK   10  A    between atoms: C_28  and  C_29
REMARK                            x       y       z     vdW  Elec       q    Type
REMARK                         _______ _______ _______ _____ _____    ______ ____
ROOT
ATOM      1  C   UNL     1       5.921   3.784   2.829  0.00  0.00    +0.089 A 
ATOM      2  C   UNL     1       6.918   3.079   3.394  0.00  0.00    +0.043 A 
ATOM      3  C   UNL     1       7.107   3.608   4.692  0.00  0.00    +0.048 A 
ATOM      4  C   UNL     1       6.216   4.604   4.841  0.00  0.00    +0.147 A 
ATOM      5  O   UNL     1       5.504   4.710   3.708  0.00  0.00    -0.463 OA
ENDROOT
BRANCH   1   6
ATOM      6  C   UNL     1       5.371   3.575   1.441  0.00  0.00    -0.003 C 
BRANCH   6   7
ATOM      7  N   UNL     1       4.184   2.711   1.510  0.00  0.00    +0.389 N 
ATOM      8  H   UNL     1       3.509   3.117   2.141  0.00  0.00    -0.081 HD
BRANCH   7   9
ATOM      9  C   UNL     1       3.591   2.587   0.172  0.00  0.00    -0.042 C 
BRANCH   9  12
ATOM     10  C   UNL     1      -0.046   1.714   0.689  0.00  0.00    +0.003 A 
ATOM     11  C   UNL     1       1.131   2.435   0.606  0.00  0.00    +0.002 A 
ATOM     12  C   UNL     1       2.309   1.799   0.262  0.00  0.00    -0.061 A 
ATOM     13  C   UNL     1       2.312   0.442   0.001  0.00  0.00    +0.040 A 
ATOM     14  C   UNL     1       1.134  -0.281   0.084  0.00  0.00    +0.124 A 
ATOM     15  C   UNL     1      -0.045   0.357   0.429  0.00  0.00    +0.038 A 
ATOM     16  F   UNL     1       1.136  -1.607  -0.172  0.00  0.00    -0.205 F 
ENDBRANCH   9  12
ENDBRANCH   7   9
BRANCH   7  17
ATOM     17  C   UNL     1       4.574   1.382   1.999  0.00  0.00    -0.046 C 
BRANCH  17  18
ATOM     18  C   UNL     1       5.728   0.845   1.150  0.00  0.00    +0.102 C 
ATOM     19  C   UNL     1       6.225  -0.510   1.714  0.00  0.00    +0.032 C 
ATOM     20  C   UNL     1       6.854  -1.145   0.444  0.00  0.00    +0.030 C 
ATOM     21  C   UNL     1       5.932  -0.619  -0.677  0.00  0.00    +0.160 C 
ATOM     22  O   UNL     1       5.274   0.555  -0.182  0.00  0.00    -0.378 OA
ENDBRANCH  17  18
ENDBRANCH   7  17
ENDBRANCH   6   7
ENDBRANCH   1   6
BRANCH   4  23
ATOM     23  C   UNL     1       6.048   5.459   6.071  0.00  0.00    +0.186 C 
BRANCH  23  24
ATOM     24  C   UNL     1       5.559   6.826   5.669  0.00  0.00    +0.034 A 
ATOM     25  C   UNL     1       5.781   8.022   6.266  0.00  0.00    +0.015 A 
ATOM     26  C   UNL     1       5.226   9.161   5.714  0.00  0.00    +0.008 A 
ATOM     27  C   UNL     1       4.475   9.048   4.591  0.00  0.00    +0.045 A 
ATOM     28  S   UNL     1       4.542   7.292   4.277  0.00  0.00    -0.098 S 
ENDBRANCH  23  24
BRANCH  23  29
ATOM     29  C   UNL     1       5.044   4.818   6.995  0.00  0.00    +0.034 A 
ATOM     30  C   UNL     1       4.968   4.881   8.347  0.00  0.00    +0.015 A 
ATOM     31  C   UNL     1       3.949   4.205   8.993  0.00  0.00    +0.008 A 
ATOM     32  C   UNL     1       3.056   3.501   8.255  0.00  0.00    +0.045 A 
ATOM     33  S   UNL     1       3.644   3.787   6.593  0.00  0.00    -0.098 S 
ENDBRANCH  23  29
BRANCH  23  34
ATOM     34  O   UNL     1       7.304   5.580   6.742  0.00  0.00    -0.371 OA
ATOM     35  H   UNL     1       7.998   5.985   6.205  0.00  0.00    +0.212 HD
ENDBRANCH  23  34
ENDBRANCH   4  23
TORSDOF 10
