REMARK  Name = ZINC16677036
REMARK  12 active torsions:
REMARK  status: ('A' for Active; 'I' for Inactive)
REMARK    1  A    between atoms: C_1  and  C_2
REMARK    2  A    between atoms: N_8  and  C_11
REMARK    3  A    between atoms: C_14  and  O_26
REMARK    4  A    between atoms: C_15  and  S_17
REMARK    5  A    between atoms: S_17  and  N_20
REMARK    6  A    between atoms: N_20  and  C_21
REMARK    7  A    between atoms: C_21  and  C_22
REMARK    8  A    between atoms: C_22  and  C_23
REMARK    9  A    between atoms: C_23  and  N_52
REMARK   10  A    between atoms: C_24  and  N_52
REMARK   11  A    between atoms: C_25  and  N_52
REMARK   12  A    between atoms: O_26  and  C_27
REMARK                            x       y       z     vdW  Elec       q    Type
REMARK                         _______ _______ _______ _____ _____    ______ ____
ROOT
ATOM      1  C   UNL     1       2.947   2.363   4.430  0.00  0.00    +0.061 A 
ATOM      2  C   UNL     1       3.967   1.852   3.638  0.00  0.00    +0.029 A 
ATOM      3  C   UNL     1       3.665   1.046   2.559  0.00  0.00    +0.049 A 
ATOM      4  C   UNL     1       2.342   0.746   2.266  0.00  0.00    +0.146 A 
ATOM      5  C   UNL     1       1.323   1.256   3.056  0.00  0.00    +0.148 A 
ATOM      6  C   UNL     1       1.624   2.067   4.132  0.00  0.00    +0.057 A 
ENDROOT
BRANCH   1  13
ATOM      7  C   UNL     1       2.231   5.644   7.534  0.00  0.00    +0.019 C 
ATOM      8  C   UNL     1       2.967   4.309   7.673  0.00  0.00    +0.097 C 
ATOM      9  C   UNL     1       4.492   4.532   7.490  0.00  0.00    +0.201 C 
ATOM     10  S   UNL     1       4.634   4.112   5.704  0.00  0.00    +0.053 S 
ATOM     11  O   UNL     1       5.724   3.229   5.476  0.00  0.00    -0.155 OA
ATOM     12  O   UNL     1       4.430   5.262   4.895  0.00  0.00    -0.155 OA
ATOM     13  N   UNL     1       3.253   3.182   5.525  0.00  0.00    -0.143 N 
ATOM     14  C   UNL     1       2.489   3.364   6.613  0.00  0.00    +0.243 C 
ATOM     15  O   UNL     1       1.437   2.773   6.737  0.00  0.00    -0.273 OA
ENDBRANCH   1  13
BRANCH   5  16
ATOM     16  S   UNL     1      -0.356   0.875   2.682  0.00  0.00    +0.062 S 
ATOM     17  O   UNL     1      -1.151   1.557   3.643  0.00  0.00    -0.153 OA
ATOM     18  O   UNL     1      -0.422  -0.533   2.500  0.00  0.00    -0.153 OA
BRANCH  16  19
ATOM     19  N   UNL     1      -0.698   1.558   1.213  0.00  0.00    -0.190 NA
ATOM     20  H   UNL     1      -1.353   2.272   1.151  0.00  0.00    +0.148 HD
BRANCH  19  21
ATOM     21  C   UNL     1      -0.013   1.086   0.008  0.00  0.00    +0.104 C 
BRANCH  21  22
ATOM     22  C   UNL     1      -0.753   1.593  -1.232  0.00  0.00    -0.002 C 
BRANCH  22  23
ATOM     23  C   UNL     1      -0.037   1.099  -2.490  0.00  0.00    -0.078 C 
BRANCH  23  26
ATOM     24  C   UNL     1      -0.664   3.049  -3.782  0.00  0.00    -0.097 C 
ATOM     25  C   UNL     1      -0.235   0.944  -4.898  0.00  0.00    -0.097 C 
ATOM     26  N   UNL     1      -0.775   1.579  -3.678  0.00  0.00    +0.376 N 
ATOM     27  H   UNL     1      -1.765   1.325  -3.580  0.00  0.00    -0.083 HD
ENDBRANCH  23  26
ENDBRANCH  22  23
ENDBRANCH  21  22
ENDBRANCH  19  21
ENDBRANCH  16  19
ENDBRANCH   5  16
BRANCH   4  28
ATOM     28  O   UNL     1       2.045  -0.049   1.203  0.00  0.00    -0.493 OA
ATOM     29  C   UNL     1       3.144  -0.539   0.432  0.00  0.00    +0.277 C 
ENDBRANCH   4  28
TORSDOF 8
