REMARK  Name = ZINC22318716
REMARK  12 active torsions:
REMARK  status: ('A' for Active; 'I' for Inactive)
REMARK    1  A    between atoms: C_1  and  C_2
REMARK    2  A    between atoms: C_5  and  S_8
REMARK    3  A    between atoms: S_8  and  N_11
REMARK    4  A    between atoms: N_11  and  C_12
REMARK    5  A    between atoms: N_11  and  C_30
REMARK    6  A    between atoms: C_12  and  C_13
REMARK    7  A    between atoms: N_15  and  C_16
REMARK    8  A    between atoms: C_19  and  C_28
REMARK    9  A    between atoms: C_19  and  C_29
REMARK   10  A    between atoms: C_24  and  C_27
REMARK   11  A    between atoms: C_33  and  C_37
REMARK   12  A    between atoms: C_34  and  C_36
REMARK                            x       y       z     vdW  Elec       q    Type
REMARK                         _______ _______ _______ _____ _____    ______ ____
ROOT
ATOM      1  N   UNL     1      -0.424   2.338   0.001  0.00  0.00    -0.194 N 
ENDROOT
BRANCH   1   2
ATOM      2  C   UNL     1       0.230   3.474  -0.482  0.00  0.00    +0.052 A 
ATOM      3  C   UNL     1       1.016   3.391  -1.625  0.00  0.00    +0.025 A 
ATOM      4  C   UNL     1       1.661   4.516  -2.100  0.00  0.00    +0.005 A 
ATOM      5  C   UNL     1       1.524   5.724  -1.441  0.00  0.00    -0.047 A 
ATOM      6  C   UNL     1       0.742   5.810  -0.304  0.00  0.00    -0.046 A 
ATOM      7  C   UNL     1       0.091   4.690   0.174  0.00  0.00    +0.028 A 
ATOM      8  C   UNL     1       0.596   7.129   0.411  0.00  0.00    +0.044 C 
ATOM      9  C   UNL     1       2.228   6.949  -1.964  0.00  0.00    +0.044 C 
ENDBRANCH   1   2
BRANCH   1  10
ATOM     10  S   UNL     1       0.193   0.833  -0.308  0.00  0.00    +0.075 S 
ATOM     11  O   UNL     1       1.569   1.013  -0.611  0.00  0.00    -0.150 OA
ATOM     12  O   UNL     1      -0.252  -0.012   0.744  0.00  0.00    -0.150 OA
BRANCH  10  17
ATOM     13  C   UNL     1      -2.436  -1.167  -5.358  0.00  0.00    +0.044 C 
ATOM     14  C   UNL     1      -1.779  -0.668  -4.096  0.00  0.00    -0.050 A 
ATOM     15  C   UNL     1      -0.539  -0.061  -4.157  0.00  0.00    +0.005 A 
ATOM     16  C   UNL     1       0.063   0.398  -3.000  0.00  0.00    +0.029 A 
ATOM     17  C   UNL     1      -0.575   0.249  -1.783  0.00  0.00    +0.109 A 
ATOM     18  C   UNL     1      -1.813  -0.363  -1.722  0.00  0.00    +0.029 A 
ATOM     19  C   UNL     1      -2.417  -0.818  -2.879  0.00  0.00    +0.005 A 
ENDBRANCH  10  17
ENDBRANCH   1  10
BRANCH   1  20
ATOM     20  C   UNL     1      -1.659   2.479   0.777  0.00  0.00    +0.227 C 
BRANCH  20  21
ATOM     21  C   UNL     1      -1.318   2.681   2.231  0.00  0.00    +0.233 C 
ATOM     22  O   UNL     1      -0.158   2.754   2.578  0.00  0.00    -0.274 OA
ATOM     23  N   UNL     1      -2.302   2.780   3.147  0.00  0.00    -0.307 N 
ATOM     24  H   UNL     1      -3.349   2.631   2.846  0.00  0.00    +0.149 HD
BRANCH  23  25
ATOM     25  C   UNL     1      -1.976   3.087   4.542  0.00  0.00    +0.111 C 
ATOM     26  C   UNL     1      -3.138   3.854   5.179  0.00  0.00    +0.074 C 
ATOM     27  C   UNL     1      -2.908   3.904   6.695  0.00  0.00    +0.107 C 
ATOM     28  O   UNL     1      -2.973   2.571   7.204  0.00  0.00    -0.486 OA
ATOM     29  C   UNL     1      -2.244   1.614   6.573  0.00  0.00    +0.126 A 
ATOM     30  C   UNL     1      -1.742   1.802   5.296  0.00  0.00    +0.015 A 
ATOM     31  C   UNL     1      -1.008   0.797   4.689  0.00  0.00    +0.012 A 
ATOM     32  C   UNL     1      -0.771  -0.391   5.353  0.00  0.00    -0.050 A 
ATOM     33  C   UNL     1      -1.268  -0.581   6.629  0.00  0.00    +0.007 A 
ATOM     34  C   UNL     1      -2.002   0.417   7.238  0.00  0.00    +0.046 A 
ATOM     35  C   UNL     1       0.028  -1.480   4.685  0.00  0.00    +0.044 C 
ATOM     36  C   UNL     1      -1.530   4.501   6.988  0.00  0.00    +0.055 C 
ATOM     37  C   UNL     1      -3.992   4.760   7.353  0.00  0.00    +0.055 C 
ENDBRANCH  23  25
ENDBRANCH  20  21
ENDBRANCH   1  20
TORSDOF 6
