REMARK  Name = ZINC63686456
REMARK  8 active torsions:
REMARK  status: ('A' for Active; 'I' for Inactive)
REMARK    1  A    between atoms: C_1  and  C_2
REMARK    2  A    between atoms: C_2  and  C_3
REMARK    3  A    between atoms: C_2  and  C_4
REMARK    4  A    between atoms: C_4  and  C_5
REMARK    5  A    between atoms: C_9  and  S_18
REMARK    6  A    between atoms: N_11  and  C_12
REMARK    7  A    between atoms: S_18  and  C_19
REMARK    8  A    between atoms: C_19  and  C_20
REMARK                            x       y       z     vdW  Elec       q    Type
REMARK                         _______ _______ _______ _____ _____    ______ ____
ROOT
ATOM      1  C   UNL     1      -2.050  -0.348  -1.381  0.00  0.00    +0.158 C 
ATOM      2  N   UNL     1      -2.147   1.118  -1.604  0.00  0.00    -0.234 NA
ATOM      3  N   UNL     1      -3.342   1.492  -0.830  0.00  0.00    -0.226 NA
ATOM      4  C   UNL     1      -4.277   0.361  -1.028  0.00  0.00    +0.217 C 
ATOM      5  N   UNL     1      -3.453  -0.812  -1.379  0.00  0.00    -0.288 N 
ATOM      6  H   UNL     1      -2.271   1.327  -2.583  0.00  0.00    +0.143 HD
ATOM      7  H   UNL     1      -3.118   1.609   0.147  0.00  0.00    +0.143 HD
ENDROOT
BRANCH   5   8
ATOM      8  C   UNL     1      -3.906  -2.104  -1.656  0.00  0.00    +0.033 A 
ATOM      9  C   UNL     1      -2.999  -3.108  -1.968  0.00  0.00    +0.023 A 
ATOM     10  C   UNL     1      -3.451  -4.385  -2.241  0.00  0.00    +0.002 A 
ATOM     11  C   UNL     1      -4.805  -4.663  -2.204  0.00  0.00    +0.000 A 
ATOM     12  C   UNL     1      -5.711  -3.665  -1.894  0.00  0.00    +0.002 A 
ATOM     13  C   UNL     1      -5.265  -2.388  -1.615  0.00  0.00    +0.023 A 
ENDBRANCH   5   8
BRANCH   1  14
ATOM     14  C   UNL     1      -1.388  -0.642  -0.033  0.00  0.00    +0.042 C 
BRANCH  14  16
ATOM     15  C   UNL     1       0.726  -0.432   1.282  0.00  0.00    +0.007 C 
ATOM     16  C   UNL     1       0.096  -0.279  -0.104  0.00  0.00    -0.014 C 
ATOM     17  C   UNL     1       0.802  -1.211  -1.091  0.00  0.00    +0.007 C 
ENDBRANCH  14  16
ENDBRANCH   1  14
BRANCH   4  18
ATOM     18  S   UNL     1      -5.197   0.041   0.502  0.00  0.00    -0.116 S 
BRANCH  18  19
ATOM     19  C   UNL     1      -3.904  -0.310   1.726  0.00  0.00    +0.125 C 
BRANCH  19  20
ATOM     20  C   UNL     1      -4.541  -0.597   3.061  0.00  0.00    +0.030 A 
ATOM     21  N   UNL     1      -5.048   0.435   3.777  0.00  0.00    -0.356 N 
ATOM     22  C   UNL     1      -5.643   0.240   5.004  0.00  0.00    +0.069 A 
ATOM     23  C   UNL     1      -5.730  -1.060   5.533  0.00  0.00    +0.046 A 
ATOM     24  C   UNL     1      -6.329  -1.270   6.775  0.00  0.00    +0.014 A 
ATOM     25  C   UNL     1      -6.830  -0.207   7.474  0.00  0.00    +0.002 A 
ATOM     26  C   UNL     1      -6.748   1.079   6.958  0.00  0.00    +0.022 A 
ATOM     27  C   UNL     1      -6.160   1.309   5.732  0.00  0.00    +0.065 A 
ATOM     28 CL   UNL     1      -6.063   2.923   5.100  0.00  0.00    -0.081 Cl
ATOM     29  C   UNL     1      -5.176  -2.176   4.746  0.00  0.00    +0.190 A 
ATOM     30  O   UNL     1      -5.226  -3.323   5.159  0.00  0.00    -0.287 OA
ATOM     31  C   UNL     1      -4.590  -1.874   3.495  0.00  0.00    +0.073 A 
ATOM     32  H   UNL     1      -4.991   1.334   3.417  0.00  0.00    +0.166 HD
ENDBRANCH  19  20
ENDBRANCH  18  19
ENDBRANCH   4  18
TORSDOF 6
