REMARK  Name = ZINC18172510
REMARK  7 active torsions:
REMARK  status: ('A' for Active; 'I' for Inactive)
REMARK    1  A    between atoms: C_1  and  C_2
REMARK    2  A    between atoms: C_2  and  C_3
REMARK    3  A    between atoms: C_15  and  C_17
REMARK    4  A    between atoms: C_20  and  C_23
REMARK    5  A    between atoms: C_27  and  C_30
REMARK    6  A    between atoms: C_33  and  O_36
REMARK    7  A    between atoms: O_36  and  C_37
REMARK                            x       y       z     vdW  Elec       q    Type
REMARK                         _______ _______ _______ _____ _____    ______ ____
ROOT
ATOM      1  C   UNL     1       0.821  -0.381  -1.321  0.00  0.00    +0.220 C 
ATOM      2  O   UNL     1       1.239   0.352  -2.192  0.00  0.00    -0.275 OA
ATOM      3  N   UNL     1       0.919  -1.718  -1.460  0.00  0.00    -0.258 N 
ATOM      4  C   UNL     1       0.435  -2.552  -0.452  0.00  0.00    +0.058 A 
ATOM      5  C   UNL     1       1.001  -2.564   0.813  0.00  0.00    +0.025 A 
ATOM      6  C   UNL     1       0.517  -3.443   1.766  0.00  0.00    +0.002 A 
ATOM      7  C   UNL     1      -0.521  -4.305   1.461  0.00  0.00    +0.002 A 
ATOM      8  C   UNL     1      -1.100  -4.283   0.204  0.00  0.00    +0.025 A 
ATOM      9  C   UNL     1      -0.631  -3.389  -0.743  0.00  0.00    +0.053 A 
ATOM     10  N   UNL     1      -1.239  -3.235  -1.983  0.00  0.00    -0.316 N 
ATOM     11  C   UNL     1      -0.644  -3.486  -3.177  0.00  0.00    +0.017 C 
ATOM     12  C   UNL     1       0.587  -3.071  -3.521  0.00  0.00    +0.037 C 
ATOM     13  C   UNL     1       1.521  -2.267  -2.657  0.00  0.00    +0.147 C 
ATOM     14  C   UNL     1       1.116  -3.390  -4.794  0.00  0.00    +0.163 C 
ATOM     15  O   UNL     1       2.222  -2.981  -5.088  0.00  0.00    -0.292 OA
ATOM     16  C   UNL     1       0.361  -4.215  -5.793  0.00  0.00    +0.088 C 
ATOM     17  C   UNL     1      -0.589  -5.150  -5.035  0.00  0.00    +0.032 C 
ATOM     18  C   UNL     1      -1.489  -4.285  -4.155  0.00  0.00    +0.059 C 
ATOM     19  H   UNL     1      -2.158  -2.925  -1.996  0.00  0.00    +0.152 HD
ENDROOT
BRANCH  13  20
ATOM     20  C   UNL     1       2.670  -3.154  -2.250  0.00  0.00    -0.022 A 
ATOM     21  C   UNL     1       3.949  -2.874  -2.694  0.00  0.00    +0.006 A 
ATOM     22  C   UNL     1       5.003  -3.684  -2.317  0.00  0.00    +0.004 A 
ATOM     23  C   UNL     1       4.778  -4.779  -1.504  0.00  0.00    -0.050 A 
ATOM     24  C   UNL     1       3.498  -5.062  -1.065  0.00  0.00    +0.004 A 
ATOM     25  C   UNL     1       2.444  -4.249  -1.438  0.00  0.00    +0.006 A 
ATOM     26  C   UNL     1       5.927  -5.665  -1.097  0.00  0.00    +0.044 C 
ENDBRANCH  13  20
BRANCH  17  27
ATOM     27  C   UNL     1      -1.429  -5.928  -6.015  0.00  0.00    -0.043 A 
ATOM     28  C   UNL     1      -2.262  -5.260  -6.893  0.00  0.00    +0.007 A 
ATOM     29  C   UNL     1      -3.029  -5.970  -7.797  0.00  0.00    +0.046 A 
ATOM     30  C   UNL     1      -2.971  -7.356  -7.815  0.00  0.00    +0.120 A 
ATOM     31  C   UNL     1      -2.139  -8.025  -6.929  0.00  0.00    +0.046 A 
ATOM     32  C   UNL     1      -1.370  -7.309  -6.031  0.00  0.00    +0.007 A 
BRANCH  30  33
ATOM     33  O   UNL     1      -3.728  -8.057  -8.699  0.00  0.00    -0.495 OA
ATOM     34  C   UNL     1      -4.561  -7.303  -9.581  0.00  0.00    +0.277 C 
ENDBRANCH  30  33
ENDBRANCH  17  27
BRANCH   1  36
ATOM     35  C   UNL     1       0.204   1.730  -0.174  0.00  0.00    +0.013 C 
ATOM     36  C   UNL     1       0.191   0.203  -0.082  0.00  0.00    +0.093 C 
ENDBRANCH   1  36
TORSDOF 4
