REMARK  Name = ZINC59936526
REMARK  10 active torsions:
REMARK  status: ('A' for Active; 'I' for Inactive)
REMARK    1  A    between atoms: C_1  and  C_2
REMARK    2  A    between atoms: C_2  and  C_3
REMARK    3  A    between atoms: C_2  and  C_4
REMARK    4  A    between atoms: C_2  and  O_5
REMARK    5  A    between atoms: O_5  and  C_6
REMARK    6  A    between atoms: C_11  and  N_14
REMARK    7  A    between atoms: C_15  and  C_17
REMARK    8  A    between atoms: C_18  and  C_19
REMARK    9  A    between atoms: C_22  and  C_25
REMARK   10  A    between atoms: N_27  and  C_28
REMARK                            x       y       z     vdW  Elec       q    Type
REMARK                         _______ _______ _______ _____ _____    ______ ____
ROOT
ATOM      1  N   UNL     1       5.126  -3.322  -4.256  0.00  0.00    -0.309 N 
ATOM      2  C   UNL     1       6.220  -3.230  -5.038  0.00  0.00    +0.237 C 
ATOM      3  O   UNL     1       6.522  -2.163  -5.539  0.00  0.00    -0.271 OA
ATOM      4  H   UNL     1       4.886  -4.172  -3.857  0.00  0.00    +0.149 HD
ENDROOT
BRANCH   1  10
ATOM      5  C   UNL     1       1.952  -0.085  -1.337  0.00  0.00    +0.403 C 
ATOM      6  O   UNL     1       2.488   0.619  -0.503  0.00  0.00    -0.226 OA
ATOM      7  N   UNL     1       2.641  -0.485  -2.424  0.00  0.00    -0.267 N 
ATOM      8  C   UNL     1       2.005  -1.331  -3.443  0.00  0.00    +0.113 C 
ATOM      9  C   UNL     1       2.874  -2.573  -3.666  0.00  0.00    +0.041 C 
ATOM     10  C   UNL     1       4.300  -2.137  -4.011  0.00  0.00    +0.076 C 
ATOM     11  C   UNL     1       4.888  -1.339  -2.845  0.00  0.00    +0.041 C 
ATOM     12  C   UNL     1       4.040  -0.078  -2.616  0.00  0.00    +0.113 C 
BRANCH   5  13
ATOM     13  O   UNL     1       0.671  -0.465  -1.174  0.00  0.00    -0.445 OA
BRANCH  13  15
ATOM     14  C   UNL     1      -0.019   1.526   0.010  0.00  0.00    +0.055 C 
ATOM     15  C   UNL     1       0.002  -0.004   0.002  0.00  0.00    +0.107 C 
ATOM     16  C   UNL     1       0.742  -0.511   1.242  0.00  0.00    +0.055 C 
ATOM     17  C   UNL     1      -1.433  -0.534   0.013  0.00  0.00    +0.055 C 
ENDBRANCH  13  15
ENDBRANCH   5  13
ENDBRANCH   1  10
BRANCH   2  18
ATOM     18  C   UNL     1       7.047  -4.415  -5.284  0.00  0.00    +0.068 C 
ATOM     19  C   UNL     1       8.141  -4.324  -6.065  0.00  0.00    +0.013 C 
BRANCH  19  20
ATOM     20  C   UNL     1       8.972  -5.514  -6.312  0.00  0.00    -0.025 A 
ATOM     21  C   UNL     1       8.622  -6.742  -5.741  0.00  0.00    +0.008 A 
ATOM     22  C   UNL     1       9.399  -7.855  -5.973  0.00  0.00    +0.013 A 
ATOM     23  C   UNL     1      10.536  -7.758  -6.778  0.00  0.00    +0.037 A 
ATOM     24  C   UNL     1      10.886  -6.532  -7.349  0.00  0.00    +0.013 A 
ATOM     25  C   UNL     1      10.107  -5.419  -7.123  0.00  0.00    +0.008 A 
BRANCH  23  26
ATOM     26  C   UNL     1      11.370  -8.953  -7.026  0.00  0.00    +0.244 C 
ATOM     27  O   UNL     1      11.066 -10.020  -6.529  0.00  0.00    -0.270 OA
ATOM     28  N   UNL     1      12.467  -8.860  -7.803  0.00  0.00    -0.314 N 
ATOM     29  C   UNL     1      13.294 -10.045  -8.048  0.00  0.00    +0.128 C 
ATOM     30  H   UNL     1      12.710  -8.009  -8.199  0.00  0.00    +0.149 HD
ENDBRANCH  23  26
ENDBRANCH  19  20
ENDBRANCH   2  18
TORSDOF 6
