REMARK  Name = ZINC39967008
REMARK  9 active torsions:
REMARK  status: ('A' for Active; 'I' for Inactive)
REMARK    1  A    between atoms: C_1  and  C_2
REMARK    2  A    between atoms: N_4  and  C_5
REMARK    3  A    between atoms: C_8  and  N_11
REMARK    4  A    between atoms: C_12  and  C_14
REMARK    5  A    between atoms: C_14  and  S_15
REMARK    6  A    between atoms: S_15  and  C_16
REMARK    7  A    between atoms: C_19  and  C_28
REMARK    8  A    between atoms: N_20  and  C_21
REMARK    9  A    between atoms: C_21  and  C_22
REMARK                            x       y       z     vdW  Elec       q    Type
REMARK                         _______ _______ _______ _____ _____    ______ ____
ROOT
ATOM      1  C   UNL     1      -2.970 -10.982  -0.316  0.00  0.00    +0.192 A 
ATOM      2  N   UNL     1      -1.828 -11.588  -0.089  0.00  0.00    -0.122 NA
ATOM      3  N   UNL     1      -1.986 -12.862  -0.135  0.00  0.00    -0.128 NA
ATOM      4  C   UNL     1      -3.241 -13.149  -0.394  0.00  0.00    +0.166 A 
ATOM      5  N   UNL     1      -3.912 -11.955  -0.512  0.00  0.00    -0.300 N 
ENDROOT
BRANCH   4   6
ATOM      6  C   UNL     1      -3.824 -14.502  -0.528  0.00  0.00    +0.030 A 
ATOM      7  C   UNL     1      -4.987 -14.813   0.113  0.00  0.00    +0.057 A 
ATOM      8  S   UNL     1      -5.231 -16.513  -0.376  0.00  0.00    -0.101 S 
ATOM      9  C   UNL     1      -3.787 -16.685  -1.393  0.00  0.00    -0.006 A 
ATOM     10  C   UNL     1      -3.183 -15.474  -1.323  0.00  0.00    -0.026 A 
ATOM     11  C   UNL     1      -1.871 -15.179  -2.046  0.00  0.00    +0.036 C 
ATOM     12  C   UNL     1      -1.738 -16.079  -3.268  0.00  0.00    +0.005 C 
ATOM     13  C   UNL     1      -1.039 -17.387  -2.902  0.00  0.00    +0.001 C 
ATOM     14  C   UNL     1      -1.874 -18.162  -1.887  0.00  0.00    +0.005 C 
ATOM     15  C   UNL     1      -3.352 -17.890  -2.163  0.00  0.00    +0.043 C 
ENDBRANCH   4   6
BRANCH   1  16
ATOM     16  S   UNL     1      -3.241  -9.242  -0.352  0.00  0.00    -0.077 S 
BRANCH  16  17
ATOM     17  C   UNL     1      -1.604  -8.536  -0.020  0.00  0.00    +0.173 C 
BRANCH  17  19
ATOM     18  N   UNL     1      -0.594  -6.288   0.203  0.00  0.00    -0.285 N 
ATOM     19  C   UNL     1      -1.696  -7.031  -0.023  0.00  0.00    +0.227 C 
ATOM     20  O   UNL     1      -2.761  -6.489  -0.229  0.00  0.00    -0.275 OA
ATOM     21  H   UNL     1       0.242  -6.720   0.438  0.00  0.00    +0.155 HD
BRANCH  18  25
ATOM     22  C   UNL     1      -0.782  -2.134  -0.105  0.00  0.00    +0.033 A 
ATOM     23  C   UNL     1       0.367  -2.809  -0.499  0.00  0.00    +0.025 A 
ATOM     24  C   UNL     1       0.429  -4.184  -0.397  0.00  0.00    +0.025 A 
ATOM     25  C   UNL     1      -0.657  -4.893   0.100  0.00  0.00    +0.034 A 
ATOM     26  C   UNL     1      -1.806  -4.219   0.493  0.00  0.00    +0.025 A 
ATOM     27  C   UNL     1      -1.866  -2.843   0.397  0.00  0.00    +0.025 A 
BRANCH  22  31
ATOM     28  C   UNL     1      -1.480   1.483   0.673  0.00  0.00    +0.109 C 
ATOM     29  C   UNL     1      -1.504  -0.023   0.723  0.00  0.00    +0.214 C 
ATOM     30  O   UNL     1      -2.117  -0.591   1.603  0.00  0.00    -0.276 OA
ATOM     31  N   UNL     1      -0.845  -0.739  -0.209  0.00  0.00    -0.286 N 
ATOM     32  H   UNL     1      -0.414  -0.288  -0.952  0.00  0.00    +0.155 HD
ENDBRANCH  22  31
ENDBRANCH  18  25
ENDBRANCH  17  19
ENDBRANCH  16  17
ENDBRANCH   1  16
BRANCH   5  33
ATOM     33  C   UNL     1      -5.337 -11.763  -0.793  0.00  0.00    +0.157 C 
BRANCH  33  34
ATOM     34  C   UNL     1      -5.570 -11.813  -2.305  0.00  0.00    +0.138 C 
ATOM     35  C   UNL     1      -7.083 -11.703  -2.620  0.00  0.00    +0.035 C 
ATOM     36  C   UNL     1      -7.043 -11.134  -4.064  0.00  0.00    +0.031 C 
ATOM     37  C   UNL     1      -5.794 -10.227  -4.024  0.00  0.00    +0.160 C 
ATOM     38  O   UNL     1      -4.969 -10.673  -2.939  0.00  0.00    -0.375 OA
ENDBRANCH  33  34
ENDBRANCH   5  33
TORSDOF 8
