REMARK  Name = ZINC20113334
REMARK  7 active torsions:
REMARK  status: ('A' for Active; 'I' for Inactive)
REMARK    1  A    between atoms: C_1  and  C_2
REMARK    2  A    between atoms: C_19  and  C_21
REMARK    3  A    between atoms: C_21  and  N_22
REMARK    4  A    between atoms: N_25  and  C_28
REMARK    5  A    between atoms: C_28  and  C_29
REMARK    6  A    between atoms: C_28  and  C_35
REMARK    7  A    between atoms: C_28  and  O_41
REMARK                            x       y       z     vdW  Elec       q    Type
REMARK                         _______ _______ _______ _____ _____    ______ ____
ROOT
ATOM      1  N   UNL     1      -3.998  -0.816   1.122  0.00  0.00    +0.382 N 
ATOM      2  C   UNL     1      -4.789   0.231   1.783  0.00  0.00    -0.063 C 
ATOM      3  C   UNL     1      -6.189  -0.308   2.089  0.00  0.00    +0.069 C 
ATOM      4  N   UNL     1      -6.077  -1.498   2.943  0.00  0.00    -0.271 NA
ATOM      5  C   UNL     1      -5.285  -2.545   2.282  0.00  0.00    +0.069 C 
ATOM      6  C   UNL     1      -3.886  -2.006   1.977  0.00  0.00    -0.063 C 
ATOM      7  H   UNL     1      -4.522  -1.107   0.200  0.00  0.00    -0.082 HD
ENDROOT
BRANCH   1   8
ATOM      8  C   UNL     1      -2.670  -0.312   0.744  0.00  0.00    -0.064 C 
BRANCH   8  24
ATOM      9  C   UNL     1       0.590  -4.644  -2.246  0.00  0.00    +0.012 C 
ATOM     10  C   UNL     1       0.597  -3.172  -1.828  0.00  0.00    -0.022 C 
ATOM     11  C   UNL     1       1.949  -2.555  -2.179  0.00  0.00    +0.007 C 
ATOM     12  C   UNL     1       3.069  -3.380  -1.541  0.00  0.00    +0.005 C 
ATOM     13  C   UNL     1       2.936  -3.339  -0.016  0.00  0.00    +0.030 C 
ATOM     14  C   UNL     1       1.537  -3.772   0.365  0.00  0.00    -0.073 C 
ATOM     15  C   UNL     1       1.337  -4.717   1.250  0.00  0.00    +0.008 C 
ATOM     16  C   UNL     1       0.372  -3.074  -0.313  0.00  0.00    +0.021 C 
ATOM     17  C   UNL     1       0.409  -1.595   0.077  0.00  0.00    +0.016 C 
ATOM     18  C   UNL     1      -0.627  -0.789  -0.658  0.00  0.00    +0.042 C 
ATOM     19  C   UNL     1      -0.586  -0.972  -2.189  0.00  0.00    +0.181 C 
ATOM     20  C   UNL     1      -0.531  -2.456  -2.553  0.00  0.00    +0.052 C 
ATOM     21  O   UNL     1      -1.941  -0.511  -2.561  0.00  0.00    -0.461 OA
ATOM     22  C   UNL     1      -2.801  -1.031  -1.655  0.00  0.00    +0.309 C 
ATOM     23  O   UNL     1      -3.961  -1.301  -1.859  0.00  0.00    -0.251 OA
ATOM     24  C   UNL     1      -2.070  -1.216  -0.335  0.00  0.00    +0.088 C 
ENDBRANCH   8  24
ENDBRANCH   1   8
BRANCH   4  25
ATOM     25  C   UNL     1      -7.404  -2.002   3.321  0.00  0.00    +0.172 C 
BRANCH  25  26
ATOM     26  C   UNL     1      -7.251  -3.147   4.288  0.00  0.00    +0.003 A 
ATOM     27  C   UNL     1      -6.185  -3.170   5.168  0.00  0.00    +0.008 A 
ATOM     28  C   UNL     1      -6.047  -4.219   6.058  0.00  0.00    +0.000 A 
ATOM     29  C   UNL     1      -6.968  -5.250   6.061  0.00  0.00    +0.000 A 
ATOM     30  C   UNL     1      -8.030  -5.229   5.177  0.00  0.00    +0.000 A 
ATOM     31  C   UNL     1      -8.172  -4.178   4.290  0.00  0.00    +0.008 A 
ENDBRANCH  25  26
BRANCH  25  32
ATOM     32  C   UNL     1      -8.194  -0.896   3.974  0.00  0.00    +0.003 A 
ATOM     33  C   UNL     1      -7.547   0.055   4.741  0.00  0.00    +0.008 A 
ATOM     34  C   UNL     1      -8.271   1.071   5.336  0.00  0.00    +0.000 A 
ATOM     35  C   UNL     1      -9.642   1.132   5.172  0.00  0.00    +0.000 A 
ATOM     36  C   UNL     1     -10.289   0.178   4.409  0.00  0.00    +0.000 A 
ATOM     37  C   UNL     1      -9.565  -0.836   3.810  0.00  0.00    +0.008 A 
ENDBRANCH  25  32
BRANCH  25  38
ATOM     38  O   UNL     1      -8.093  -2.453   2.153  0.00  0.00    -0.366 OA
ATOM     39  H   UNL     1      -9.109  -2.866   2.239  0.00  0.00    +0.212 HD
ENDBRANCH  25  38
ENDBRANCH   4  25
TORSDOF 6
