REMARK  Name = ZINC39688751
REMARK  11 active torsions:
REMARK  status: ('A' for Active; 'I' for Inactive)
REMARK    1  A    between atoms: C_1  and  C_2
REMARK    2  A    between atoms: C_2  and  C_4
REMARK    3  A    between atoms: C_2  and  N_12
REMARK    4  A    between atoms: C_4  and  C_5
REMARK    5  A    between atoms: C_13  and  C_15
REMARK    6  A    between atoms: C_26  and  C_28
REMARK    7  A    between atoms: C_28  and  C_30
REMARK    8  A    between atoms: C_28  and  O_33
REMARK    9  A    between atoms: C_30  and  C_31
REMARK   10  A    between atoms: C_30  and  C_32
REMARK   11  A    between atoms: O_33  and  C_34
REMARK                            x       y       z     vdW  Elec       q    Type
REMARK                         _______ _______ _______ _____ _____    ______ ____
ROOT
ATOM      1  C   UNL     1      -3.025  -0.984  -1.769  0.00  0.00    +0.100 C 
ATOM      2  C   UNL     1      -4.087  -0.401  -0.809  0.00  0.00    +0.121 C 
ATOM      3  N   UNL     1      -4.907   0.495  -1.658  0.00  0.00    -0.297 N 
ATOM      4  C   UNL     1      -5.038  -0.232  -2.943  0.00  0.00    +0.115 C 
ATOM      5  C   UNL     1      -3.654  -0.874  -3.168  0.00  0.00    -0.004 C 
ATOM      6  C   UNL     1      -3.809  -2.260  -3.787  0.00  0.00    -0.010 C 
ATOM      7  C   UNL     1      -4.383  -2.121  -5.200  0.00  0.00    -0.082 C 
ATOM      8  N   UNL     1      -3.483  -1.296  -6.016  0.00  0.00    +0.379 N 
ATOM      9  C   UNL     1      -3.413   0.063  -5.465  0.00  0.00    -0.082 C 
ATOM     10  C   UNL     1      -2.799   0.016  -4.064  0.00  0.00    -0.010 C 
ATOM     11  C   UNL     1      -5.419   1.699  -1.334  0.00  0.00    +0.257 C 
ATOM     12  O   UNL     1      -6.162   2.269  -2.105  0.00  0.00    -0.272 OA
ATOM     13  H   UNL     1      -2.561  -1.705  -6.017  0.00  0.00    -0.086 HD
ATOM     14  H   UNL     1      -3.832  -1.256  -6.963  0.00  0.00    -0.086 HD
ENDROOT
BRANCH   1  16
ATOM     15  N   UNL     1      -0.563  -0.775  -1.883  0.00  0.00    -0.312 N 
ATOM     16  C   UNL     1      -1.756  -0.175  -1.700  0.00  0.00    +0.218 C 
ATOM     17  O   UNL     1      -1.807   1.017  -1.479  0.00  0.00    -0.275 OA
ATOM     18  H   UNL     1      -0.525  -1.711  -2.136  0.00  0.00    +0.149 HD
BRANCH  15  20
ATOM     19  C   UNL     1       1.081  -0.046  -0.225  0.00  0.00    +0.028 C 
ATOM     20  C   UNL     1       0.676  -0.015  -1.700  0.00  0.00    +0.074 C 
BRANCH  20  21
ATOM     21  C   UNL     1       1.787  -0.638  -2.548  0.00  0.00    +0.057 C 
BRANCH  21  22
ATOM     22  C   UNL     1       1.444  -0.496  -4.008  0.00  0.00    -0.045 A 
ATOM     23  C   UNL     1       0.714  -1.483  -4.645  0.00  0.00    +0.006 A 
ATOM     24  C   UNL     1       0.398  -1.354  -5.984  0.00  0.00    +0.038 A 
ATOM     25  C   UNL     1       0.813  -0.236  -6.688  0.00  0.00    +0.123 A 
ATOM     26  C   UNL     1       1.544   0.751  -6.050  0.00  0.00    +0.038 A 
ATOM     27  C   UNL     1       1.854   0.623  -4.709  0.00  0.00    +0.006 A 
ATOM     28  F   UNL     1       0.505  -0.109  -7.998  0.00  0.00    -0.205 F 
ENDBRANCH  21  22
ENDBRANCH  20  21
ENDBRANCH  15  20
ENDBRANCH   1  16
BRANCH  11  29
ATOM     29  C   UNL     1      -5.067   2.337  -0.015  0.00  0.00    +0.261 C 
BRANCH  29  30
ATOM     30  C   UNL     1      -5.989   1.792   1.077  0.00  0.00    +0.033 C 
ATOM     31  C   UNL     1      -5.676   2.488   2.403  0.00  0.00    +0.011 C 
ATOM     32  C   UNL     1      -7.447   2.058   0.693  0.00  0.00    +0.011 C 
ENDBRANCH  29  30
BRANCH  29  33
ATOM     33  O   UNL     1      -3.709   2.035   0.313  0.00  0.00    -0.479 OA
BRANCH  33  34
ATOM     34  C   UNL     1      -3.002   2.998   0.961  0.00  0.00    +0.122 A 
ATOM     35  C   UNL     1      -1.683   2.767   1.323  0.00  0.00    +0.045 A 
ATOM     36  C   UNL     1      -0.966   3.748   1.980  0.00  0.00    +0.004 A 
ATOM     37  C   UNL     1      -1.562   4.960   2.277  0.00  0.00    +0.000 A 
ATOM     38  C   UNL     1      -2.877   5.193   1.918  0.00  0.00    +0.004 A 
ATOM     39  C   UNL     1      -3.596   4.217   1.255  0.00  0.00    +0.045 A 
ENDBRANCH  33  34
ENDBRANCH  29  33
ENDBRANCH  11  29
TORSDOF 8
