REMARK  Name = ZINC09018879
REMARK  13 active torsions:
REMARK  status: ('A' for Active; 'I' for Inactive)
REMARK    1  A    between atoms: C_1  and  C_2
REMARK    2  A    between atoms: C_2  and  O_3
REMARK    3  A    between atoms: O_3  and  C_4
REMARK    4  A    between atoms: C_4  and  C_6
REMARK    5  A    between atoms: C_7  and  C_35
REMARK    6  A    between atoms: C_8  and  C_30
REMARK    7  A    between atoms: C_10  and  N_11
REMARK    8  A    between atoms: C_12  and  C_14
REMARK    9  A    between atoms: C_14  and  S_15
REMARK   10  A    between atoms: S_15  and  C_16
REMARK   11  A    between atoms: C_30  and  O_32
REMARK   12  A    between atoms: O_32  and  C_33
REMARK   13  A    between atoms: C_33  and  C_34
REMARK                            x       y       z     vdW  Elec       q    Type
REMARK                         _______ _______ _______ _____ _____    ______ ____
ROOT
ATOM      1  N   UNL     1      -1.279  -2.329  -2.491  0.00  0.00    -0.279 N 
ATOM      2  C   UNL     1      -1.322  -3.183  -3.533  0.00  0.00    +0.228 C 
ATOM      3  O   UNL     1      -1.367  -4.379  -3.335  0.00  0.00    -0.275 OA
ATOM      4  H   UNL     1      -1.243  -1.373  -2.649  0.00  0.00    +0.155 HD
ENDROOT
BRANCH   1   9
ATOM      5  C   UNL     1      -1.248  -2.099   0.003  0.00  0.00    +0.091 A 
ATOM      6  C   UNL     1      -1.259  -2.821   1.185  0.00  0.00    -0.014 A 
ATOM      7  C   UNL     1      -1.319  -4.186   1.096  0.00  0.00    +0.102 A 
ATOM      8  S   UNL     1      -1.346  -4.463  -0.665  0.00  0.00    -0.066 S 
ATOM      9  C   UNL     1      -1.287  -2.815  -1.199  0.00  0.00    +0.087 A 
ATOM     10  C   UNL     1      -1.213  -2.129   2.523  0.00  0.00    +0.046 C 
BRANCH   5  11
ATOM     11  C   UNL     1      -1.191  -0.632   0.010  0.00  0.00    +0.342 C 
ATOM     12  O   UNL     1      -2.220   0.016   0.023  0.00  0.00    -0.245 OA
BRANCH  11  13
ATOM     13  O   UNL     1       0.002  -0.004   0.002  0.00  0.00    -0.461 OA
BRANCH  13  15
ATOM     14  C   UNL     1       1.418   1.977  -0.001  0.00  0.00    +0.048 C 
ATOM     15  C   UNL     1      -0.018   1.448   0.010  0.00  0.00    +0.229 C 
ENDBRANCH  13  15
ENDBRANCH  11  13
ENDBRANCH   5  11
BRANCH   7  16
ATOM     16  C   UNL     1      -1.348  -5.172   2.176  0.00  0.00    +0.346 C 
ATOM     17  O   UNL     1      -1.323  -4.805   3.335  0.00  0.00    -0.244 OA
BRANCH  16  18
ATOM     18  O   UNL     1      -1.402  -6.489   1.886  0.00  0.00    -0.461 OA
BRANCH  18  19
ATOM     19  C   UNL     1      -1.427  -7.396   2.990  0.00  0.00    +0.229 C 
ATOM     20  C   UNL     1      -1.488  -8.833   2.469  0.00  0.00    +0.048 C 
ENDBRANCH  18  19
ENDBRANCH  16  18
ENDBRANCH   7  16
ENDBRANCH   1   9
BRANCH   2  21
ATOM     21  C   UNL     1      -1.314  -2.653  -4.943  0.00  0.00    +0.173 C 
BRANCH  21  22
ATOM     22  S   UNL     1      -1.379  -4.039  -6.111  0.00  0.00    -0.076 S 
BRANCH  22  23
ATOM     23  C   UNL     1      -1.363  -3.265  -7.694  0.00  0.00    +0.198 A 
ATOM     24  N   UNL     1      -1.314  -1.974  -7.920  0.00  0.00    -0.120 NA
ATOM     25  N   UNL     1      -1.319  -1.775  -9.306  0.00  0.00    -0.109 NA
ATOM     26  C   UNL     1      -1.371  -2.950  -9.886  0.00  0.00    +0.237 A 
ATOM     27  N   UNL     1      -1.393  -3.905  -8.904  0.00  0.00    -0.260 N 
ATOM     28  C   UNL     1      -1.442  -5.245  -9.231  0.00  0.00    +0.037 A 
ATOM     29  C   UNL     1      -1.464  -5.619 -10.521  0.00  0.00    +0.037 A 
ATOM     30  C   UNL     1      -1.438  -4.632 -11.543  0.00  0.00    +0.256 A 
ATOM     31  O   UNL     1      -1.460  -4.968 -12.714  0.00  0.00    -0.267 OA
ATOM     32  N   UNL     1      -1.398  -3.326 -11.218  0.00  0.00    -0.291 N 
ATOM     33  H   UNL     1      -1.379  -2.651 -11.915  0.00  0.00    +0.172 HD
ATOM     34  C   UNL     1      -1.516  -7.129 -10.631  0.00  0.00    +0.043 C 
ATOM     35  C   UNL     1      -1.087  -7.645  -9.240  0.00  0.00    +0.011 C 
ATOM     36  C   UNL     1      -1.476  -6.461  -8.329  0.00  0.00    +0.055 C 
ENDBRANCH  22  23
ENDBRANCH  21  22
ENDBRANCH   2  21
TORSDOF 10
