REMARK  Name = ZINC66121949
REMARK  7 active torsions:
REMARK  status: ('A' for Active; 'I' for Inactive)
REMARK    1  A    between atoms: C_1  and  C_2
REMARK    2  A    between atoms: C_2  and  C_4
REMARK    3  A    between atoms: C_2  and  N_12
REMARK    4  A    between atoms: N_12  and  C_13
REMARK    5  A    between atoms: C_13  and  N_15
REMARK    6  A    between atoms: N_15  and  N_16
REMARK    7  A    between atoms: C_17  and  C_19
REMARK                            x       y       z     vdW  Elec       q    Type
REMARK                         _______ _______ _______ _____ _____    ______ ____
ROOT
ATOM      1  C   UNL     1       2.105  -0.654  -1.042  0.00  0.00    +0.147 C 
ATOM      2  S   UNL     1       2.897  -0.320   0.438  0.00  0.00    -0.017 S 
ENDROOT
BRANCH   1   3
ATOM      3  N   UNL     1       0.773  -0.480  -1.149  0.00  0.00    -0.319 N 
ATOM      4  H   UNL     1       0.325  -0.670  -1.988  0.00  0.00    +0.148 HD
BRANCH   3   6
ATOM      5  C   UNL     1       0.007   1.526   0.022  0.00  0.00    +0.033 C 
ATOM      6  C   UNL     1       0.002  -0.004   0.002  0.00  0.00    +0.101 C 
BRANCH   6   7
ATOM      7  C   UNL     1      -1.417  -0.500  -0.104  0.00  0.00    -0.009 A 
ATOM      8  C   UNL     1      -1.965  -0.767  -1.345  0.00  0.00    +0.008 A 
ATOM      9  C   UNL     1      -3.266  -1.222  -1.443  0.00  0.00    +0.020 A 
ATOM     10  C   UNL     1      -4.021  -1.411  -0.299  0.00  0.00    +0.042 A 
ATOM     11  C   UNL     1      -3.474  -1.145   0.943  0.00  0.00    +0.040 A 
ATOM     12  C   UNL     1      -2.169  -0.694   1.041  0.00  0.00    +0.047 A 
ATOM     13 CL   UNL     1      -1.479  -0.365   2.599  0.00  0.00    -0.083 Cl
ATOM     14 CL   UNL     1      -5.656  -1.982  -0.422  0.00  0.00    -0.083 Cl
ENDBRANCH   6   7
ENDBRANCH   3   6
ENDBRANCH   1   3
BRANCH   1  15
ATOM     15  N   UNL     1       2.814  -1.092  -2.102  0.00  0.00    -0.246 N 
ATOM     16  H   UNL     1       3.773  -1.218  -2.025  0.00  0.00    +0.172 HD
BRANCH  15  17
ATOM     17  N   UNL     1       2.167  -1.367  -3.313  0.00  0.00    -0.235 N 
ATOM     18  C   UNL     1       2.876  -1.804  -4.372  0.00  0.00    +0.232 C 
ATOM     19  O   UNL     1       4.075  -1.961  -4.276  0.00  0.00    -0.274 OA
ATOM     20  H   UNL     1       1.208  -1.241  -3.390  0.00  0.00    +0.173 HD
BRANCH  18  21
ATOM     21  C   UNL     1       2.180  -2.099  -5.676  0.00  0.00    +0.080 C 
ATOM     22  C   UNL     1       3.203  -2.589  -6.708  0.00  0.00    +0.017 C 
ATOM     23  C   UNL     1       2.504  -2.709  -8.064  0.00  0.00    +0.027 C 
ATOM     24  C   UNL     1       1.224  -3.479  -7.919  0.00  0.00    -0.031 C 
ATOM     25  C   UNL     1       0.628  -3.689  -6.789  0.00  0.00    -0.030 C 
ATOM     26  C   UNL     1       1.136  -3.198  -5.464  0.00  0.00    +0.039 C 
ENDBRANCH  18  21
ENDBRANCH  15  17
ENDBRANCH   1  15
TORSDOF 6
