REMARK  Name = ZINC35929698
REMARK  5 active torsions:
REMARK  status: ('A' for Active; 'I' for Inactive)
REMARK    1  A    between atoms: C_4  and  C_7
REMARK    2  A    between atoms: C_7  and  N_8
REMARK    3  A    between atoms: C_9  and  N_28
REMARK    4  A    between atoms: C_11  and  C_21
REMARK    5  A    between atoms: N_17  and  C_18
REMARK                            x       y       z     vdW  Elec       q    Type
REMARK                         _______ _______ _______ _____ _____    ______ ____
ROOT
ATOM      1  N   UNL     1       4.689  -1.232   1.216  0.00  0.00    -0.244 N 
ATOM      2  C   UNL     1       5.172  -0.252   2.000  0.00  0.00    +0.126 A 
ATOM      3  C   UNL     1       5.013  -0.656   3.320  0.00  0.00    +0.086 A 
ATOM      4  C   UNL     1       5.304  -0.106   4.589  0.00  0.00    +0.090 A 
ATOM      5  N   UNL     1       4.995  -0.816   5.667  0.00  0.00    -0.214 NA
ATOM      6  C   UNL     1       4.425  -2.014   5.586  0.00  0.00    +0.218 A 
ATOM      7  N   UNL     1       4.121  -2.600   4.446  0.00  0.00    -0.193 NA
ATOM      8  C   UNL     1       4.382  -1.987   3.275  0.00  0.00    +0.188 A 
ATOM      9  N   UNL     1       4.205  -2.281   2.006  0.00  0.00    -0.149 NA
ATOM     10  N   UNL     1       4.138  -2.683   6.762  0.00  0.00    -0.311 N 
ATOM     11  H   UNL     1       4.351  -2.275   7.616  0.00  0.00    +0.149 HD
ENDROOT
BRANCH   4  12
ATOM     12  C   UNL     1       5.939   1.225   4.712  0.00  0.00    +0.020 A 
ATOM     13  C   UNL     1       5.336   2.344   4.136  0.00  0.00    +0.011 A 
ATOM     14  C   UNL     1       5.932   3.583   4.255  0.00  0.00    +0.001 A 
ATOM     15  C   UNL     1       7.125   3.717   4.943  0.00  0.00    +0.001 A 
ATOM     16  C   UNL     1       7.729   2.613   5.516  0.00  0.00    +0.020 A 
ATOM     17  C   UNL     1       7.139   1.368   5.411  0.00  0.00    +0.050 A 
ATOM     18 CL   UNL     1       7.893  -0.016   6.137  0.00  0.00    -0.083 Cl
ENDBRANCH   4  12
BRANCH  10  19
ATOM     19  C   UNL     1       3.510  -4.006   6.719  0.00  0.00    +0.073 C 
ATOM     20  C   UNL     1       2.369  -4.279   7.700  0.00  0.00    +0.024 C 
ATOM     21  C   UNL     1       3.735  -4.934   7.914  0.00  0.00    +0.024 C 
ENDBRANCH  10  19
BRANCH   2  22
ATOM     22  N   UNL     1       5.726   0.939   1.571  0.00  0.00    -0.343 N 
ATOM     23  H   UNL     1       5.690   1.181   0.632  0.00  0.00    +0.144 HD
ATOM     24  H   UNL     1       6.151   1.534   2.208  0.00  0.00    +0.144 HD
ENDBRANCH   2  22
BRANCH   1  25
ATOM     25  C   UNL     1       4.668  -1.203  -0.248  0.00  0.00    +0.180 C 
BRANCH  25  29
ATOM     26  C   UNL     1       1.016   0.565  -1.585  0.00  0.00    +0.000 A 
ATOM     27  C   UNL     1       2.124   1.359  -1.355  0.00  0.00    +0.000 A 
ATOM     28  C   UNL     1       3.306   0.786  -0.922  0.00  0.00    +0.005 A 
ATOM     29  C   UNL     1       3.379  -0.579  -0.719  0.00  0.00    -0.026 A 
ATOM     30  C   UNL     1       2.271  -1.372  -0.949  0.00  0.00    +0.005 A 
ATOM     31  C   UNL     1       1.089  -0.800  -1.383  0.00  0.00    +0.000 A 
ENDBRANCH  25  29
ENDBRANCH   1  25
TORSDOF 5
