REMARK  Name = ZINC00919572
REMARK  7 active torsions:
REMARK  status: ('A' for Active; 'I' for Inactive)
REMARK    1  A    between atoms: C_4  and  S_11
REMARK    2  A    between atoms: C_5  and  C_7
REMARK    3  A    between atoms: S_11  and  N_14
REMARK    4  A    between atoms: N_14  and  C_15
REMARK    5  A    between atoms: N_14  and  C_21
REMARK    6  A    between atoms: C_15  and  C_16
REMARK    7  A    between atoms: C_21  and  C_22
REMARK                            x       y       z     vdW  Elec       q    Type
REMARK                         _______ _______ _______ _____ _____    ______ ____
ROOT
ATOM      1  N   UNL     1       3.065   0.864  -1.266  0.00  0.00    -0.167 NA
ENDROOT
BRANCH   1   2
ATOM      2  S   UNL     1       2.339  -0.316  -2.173  0.00  0.00    +0.062 S 
ATOM      3  O   UNL     1       0.960  -0.299  -1.831  0.00  0.00    -0.153 OA
ATOM      4  O   UNL     1       2.795  -0.140  -3.507  0.00  0.00    -0.153 OA
BRANCH   2   8
ATOM      5  C   UNL     1       3.976  -4.291  -0.757  0.00  0.00    +0.001 A 
ATOM      6  C   UNL     1       2.635  -3.997  -0.590  0.00  0.00    +0.002 A 
ATOM      7  C   UNL     1       2.136  -2.781  -1.018  0.00  0.00    +0.029 A 
ATOM      8  C   UNL     1       2.976  -1.863  -1.622  0.00  0.00    +0.117 A 
ATOM      9  C   UNL     1       4.316  -2.158  -1.789  0.00  0.00    +0.081 A 
ATOM     10  C   UNL     1       4.816  -3.372  -1.357  0.00  0.00    +0.014 A 
BRANCH   9  11
ATOM     11  C   UNL     1       5.232  -1.155  -2.442  0.00  0.00    +0.419 C 
ATOM     12  F   UNL     1       6.526  -1.681  -2.511  0.00  0.00    -0.166 F 
ATOM     13  F   UNL     1       4.773  -0.876  -3.734  0.00  0.00    -0.166 F 
ATOM     14  F   UNL     1       5.247   0.023  -1.688  0.00  0.00    -0.166 F 
ENDBRANCH   9  11
ENDBRANCH   2   8
ENDBRANCH   1   2
BRANCH   1  15
ATOM     15  C   UNL     1       3.385   0.612   0.142  0.00  0.00    +0.152 C 
BRANCH  15  16
ATOM     16  C   UNL     1       2.288   1.166   1.013  0.00  0.00    +0.005 A 
ATOM     17  C   UNL     1       1.119   0.589   1.385  0.00  0.00    +0.012 A 
ATOM     18  C   UNL     1       0.250   1.295   2.196  0.00  0.00    +0.008 A 
ATOM     19  C   UNL     1       0.598   2.540   2.604  0.00  0.00    +0.045 A 
ATOM     20  S   UNL     1       2.189   2.754   1.825  0.00  0.00    -0.100 S 
ENDBRANCH  15  16
ENDBRANCH   1  15
BRANCH   1  21
ATOM     21  C   UNL     1       3.388   2.159  -1.870  0.00  0.00    +0.150 C 
BRANCH  21  22
ATOM     22  C   UNL     1       4.850   2.193  -2.233  0.00  0.00    +0.033 A 
ATOM     23  C   UNL     1       5.242   1.872  -3.492  0.00  0.00    +0.020 A 
ATOM     24  C   UNL     1       6.668   1.920  -3.814  0.00  0.00    +0.003 A 
ATOM     25  C   UNL     1       7.130   1.603  -5.097  0.00  0.00    +0.059 A 
ATOM     26  C   UNL     1       8.480   1.653  -5.370  0.00  0.00    +0.163 A 
ATOM     27  C   UNL     1       9.388   2.019  -4.372  0.00  0.00    +0.164 A 
ATOM     28  C   UNL     1       8.940   2.333  -3.100  0.00  0.00    +0.075 A 
ATOM     29  C   UNL     1       7.583   2.287  -2.808  0.00  0.00    +0.053 A 
ATOM     30  N   UNL     1       7.119   2.597  -1.546  0.00  0.00    -0.322 N 
ATOM     31  H   UNL     1       7.769   2.856  -0.832  0.00  0.00    +0.169 HD
ATOM     32  C   UNL     1       5.806   2.554  -1.262  0.00  0.00    +0.254 A 
ATOM     33  O   UNL     1       5.432   2.834  -0.135  0.00  0.00    -0.268 OA
ATOM     34  O   UNL     1      10.722   2.074  -4.634  0.00  0.00    -0.485 OA
ATOM     35  C   UNL     1      11.176   1.394  -5.809  0.00  0.00    +0.270 C 
ATOM     36  C   UNL     1      10.239   1.758  -6.968  0.00  0.00    +0.270 C 
ATOM     37  O   UNL     1       8.914   1.339  -6.623  0.00  0.00    -0.485 OA
ENDBRANCH  21  22
ENDBRANCH   1  21
TORSDOF 7
