REMARK  Name = ZINC06394453
REMARK  5 active torsions:
REMARK  status: ('A' for Active; 'I' for Inactive)
REMARK    1  A    between atoms: C_1  and  C_2
REMARK    2  A    between atoms: C_2  and  C_18
REMARK    3  A    between atoms: N_5  and  C_9
REMARK    4  A    between atoms: C_9  and  C_10
REMARK    5  A    between atoms: C_10  and  C_12
REMARK                            x       y       z     vdW  Elec       q    Type
REMARK                         _______ _______ _______ _____ _____    ______ ____
ROOT
ATOM      1  C   UNL     1      -3.805  -1.889  -1.102  0.00  0.00    +0.047 C 
ATOM      2  C   UNL     1      -4.082  -0.465  -0.615  0.00  0.00    +0.135 C 
ATOM      3  C   UNL     1      -3.008   0.489  -1.096  0.00  0.00    +0.251 C 
ATOM      4  O   UNL     1      -2.725   0.756  -2.244  0.00  0.00    -0.272 OA
ATOM      5  N   UNL     1      -2.430   0.979   0.019  0.00  0.00    -0.216 N 
ATOM      6  C   UNL     1      -2.990   0.477   1.126  0.00  0.00    +0.310 C 
ATOM      7  O   UNL     1      -2.642   0.772   2.252  0.00  0.00    -0.252 OA
ATOM      8  N   UNL     1      -3.981  -0.390   0.852  0.00  0.00    -0.281 N 
ATOM      9  H   UNL     1      -4.524  -0.872   1.496  0.00  0.00    +0.152 HD
ENDROOT
BRANCH   2  10
ATOM     10  C   UNL     1      -5.441  -0.004  -1.077  0.00  0.00    -0.012 A 
ATOM     11  C   UNL     1      -5.578   0.620  -2.303  0.00  0.00    +0.010 A 
ATOM     12  C   UNL     1      -6.821   1.044  -2.730  0.00  0.00    +0.050 A 
ATOM     13  C   UNL     1      -7.936   0.847  -1.929  0.00  0.00    +0.162 A 
ATOM     14  C   UNL     1      -7.799   0.218  -0.697  0.00  0.00    +0.162 A 
ATOM     15  C   UNL     1      -6.548  -0.210  -0.277  0.00  0.00    +0.055 A 
ATOM     16  O   UNL     1      -8.880   0.011   0.104  0.00  0.00    -0.485 OA
ATOM     17  C   UNL     1     -10.050   0.783  -0.183  0.00  0.00    +0.270 C 
ATOM     18  C   UNL     1     -10.300   0.733  -1.697  0.00  0.00    +0.270 C 
ATOM     19  O   UNL     1      -9.153   1.278  -2.359  0.00  0.00    -0.485 OA
ENDBRANCH   2  10
BRANCH   5  20
ATOM     20  C   UNL     1      -1.330   1.946   0.019  0.00  0.00    +0.198 C 
BRANCH  20  21
ATOM     21  C   UNL     1      -0.014   1.210   0.009  0.00  0.00    +0.187 C 
ATOM     22  O   UNL     1       0.002  -0.004   0.002  0.00  0.00    -0.290 OA
BRANCH  21  23
ATOM     23  C   UNL     1       1.198   1.932   0.001  0.00  0.00    +0.058 A 
ATOM     24  C   UNL     1       2.504   1.453  -0.014  0.00  0.00    +0.020 A 
ATOM     25  C   UNL     1       3.509   2.383  -0.019  0.00  0.00    +0.028 A 
ATOM     26  C   UNL     1       3.188   3.708  -0.009  0.00  0.00    +0.079 A 
ATOM     27  S   UNL     1       1.455   3.698   0.000  0.00  0.00    -0.074 S 
ATOM     28 CL   UNL     1       4.258   5.076  -0.012  0.00  0.00    -0.076 Cl
ENDBRANCH  21  23
ENDBRANCH  20  21
ENDBRANCH   5  20
TORSDOF 4
