REMARK  Name = ZINC43495415
REMARK  5 active torsions:
REMARK  status: ('A' for Active; 'I' for Inactive)
REMARK    1  A    between atoms: C_3  and  O_21
REMARK    2  A    between atoms: C_6  and  N_7
REMARK    3  A    between atoms: C_8  and  S_12
REMARK    4  A    between atoms: S_12  and  C_13
REMARK    5  A    between atoms: C_13  and  C_14
REMARK                            x       y       z     vdW  Elec       q    Type
REMARK                         _______ _______ _______ _____ _____    ______ ____
ROOT
ATOM      1  N   UNL     1      -1.203  -0.722   0.010  0.00  0.00    -0.187 N 
ATOM      2  C   UNL     1      -1.464  -1.902  -0.607  0.00  0.00    +0.214 A 
ATOM      3  N   UNL     1      -2.713  -2.212  -0.335  0.00  0.00    -0.101 NA
ATOM      4  N   UNL     1      -3.249  -1.311   0.406  0.00  0.00    -0.022 NA
ATOM      5  N   UNL     1      -2.399  -0.377   0.665  0.00  0.00    -0.038 NA
ENDROOT
BRANCH   1  11
ATOM      6  C   UNL     1      -0.017   1.384   0.010  0.00  0.00    +0.031 A 
ATOM      7  C   UNL     1       1.170   2.090   0.002  0.00  0.00    +0.047 A 
ATOM      8  C   UNL     1       2.380   1.413  -0.013  0.00  0.00    +0.117 A 
ATOM      9  C   UNL     1       2.400   0.026  -0.021  0.00  0.00    +0.047 A 
ATOM     10  C   UNL     1       1.214  -0.681  -0.014  0.00  0.00    +0.031 A 
ATOM     11  C   UNL     1       0.002  -0.004   0.002  0.00  0.00    +0.070 A 
BRANCH   8  12
ATOM     12  O   UNL     1       3.548   2.109  -0.021  0.00  0.00    -0.507 OA
ATOM     13  H   UNL     1       3.895   2.306   0.860  0.00  0.00    +0.292 HD
ENDBRANCH   8  12
ENDBRANCH   1  11
BRANCH   2  14
ATOM     14  S   UNL     1      -0.341  -2.841  -1.588  0.00  0.00    -0.086 S 
BRANCH  14  15
ATOM     15  C   UNL     1      -1.311  -4.285  -2.104  0.00  0.00    +0.062 C 
BRANCH  15  16
ATOM     16  C   UNL     1      -0.445  -5.197  -2.974  0.00  0.00    -0.061 C 
ATOM     17  C   UNL     1      -1.297  -6.348  -3.513  0.00  0.00    -0.015 C 
ATOM     18  C   UNL     1      -0.426  -7.258  -4.383  0.00  0.00    -0.003 C 
ATOM     19  C   UNL     1       0.763  -7.754  -3.555  0.00  0.00    -0.019 C 
ATOM     20  C   UNL     1       1.539  -6.551  -3.015  0.00  0.00    -0.082 C 
ATOM     21  N   UNL     1       0.659  -5.736  -2.170  0.00  0.00    +0.381 N 
ATOM     22  H   UNL     1       1.187  -4.974  -1.773  0.00  0.00    -0.085 HD
ATOM     23  H   UNL     1       0.284  -6.306  -1.427  0.00  0.00    -0.085 HD
ENDBRANCH  15  16
ENDBRANCH  14  15
ENDBRANCH   2  14
TORSDOF 5
