REMARK  Name = ZINC42958452
REMARK  9 active torsions:
REMARK  status: ('A' for Active; 'I' for Inactive)
REMARK    1  A    between atoms: C_1  and  C_2
REMARK    2  A    between atoms: C_2  and  C_4
REMARK    3  A    between atoms: C_2  and  N_23
REMARK    4  A    between atoms: C_4  and  C_6
REMARK    5  A    between atoms: C_4  and  O_13
REMARK    6  A    between atoms: O_13  and  C_14
REMARK    7  A    between atoms: C_18  and  N_20
REMARK    8  A    between atoms: N_20  and  C_21
REMARK    9  A    between atoms: N_20  and  C_22
REMARK                            x       y       z     vdW  Elec       q    Type
REMARK                         _______ _______ _______ _____ _____    ______ ____
ROOT
ATOM      1  C   UNL     1       0.751  -0.518   1.249  0.00  0.00    +0.189 C 
ENDROOT
BRANCH   1   2
ATOM      2  C   UNL     1       0.860  -2.021   1.300  0.00  0.00    -0.009 A 
ATOM      3  C   UNL     1      -0.204  -2.775   1.758  0.00  0.00    +0.008 A 
ATOM      4  C   UNL     1      -0.105  -4.153   1.804  0.00  0.00    +0.015 A 
ATOM      5  C   UNL     1       1.059  -4.777   1.392  0.00  0.00    +0.018 A 
ATOM      6  C   UNL     1       2.123  -4.021   0.935  0.00  0.00    +0.015 A 
ATOM      7  C   UNL     1       2.021  -2.643   0.884  0.00  0.00    +0.008 A 
ATOM      8 BR   UNL     1       1.196  -6.662   1.456  0.00  0.00    -0.050 Br
ENDBRANCH   1   2
BRANCH   1  10
ATOM      9  C   UNL     1      -0.147   1.419  -0.048  0.00  0.00    -0.010 C 
ATOM     10  C   UNL     1      -0.036  -0.106   0.004  0.00  0.00    -0.032 C 
BRANCH  10  11
ATOM     11  N   UNL     1       0.660  -0.587  -1.197  0.00  0.00    +0.382 N 
ATOM     12  H   UNL     1       1.585  -0.184  -1.234  0.00  0.00    -0.089 HD
ATOM     13  H   UNL     1       0.733  -1.593  -1.163  0.00  0.00    -0.089 HD
ATOM     14  H   UNL     1       0.141  -0.315  -2.018  0.00  0.00    -0.089 HD
ENDBRANCH  10  11
ENDBRANCH   1  10
BRANCH   1  15
ATOM     15  O   UNL     1       0.073  -0.050   2.417  0.00  0.00    -0.486 OA
BRANCH  15  16
ATOM     16  C   UNL     1       0.539   1.094   2.984  0.00  0.00    +0.123 A 
ATOM     17  C   UNL     1       0.009   1.539   4.187  0.00  0.00    +0.046 A 
ATOM     18  C   UNL     1       0.481   2.703   4.764  0.00  0.00    +0.005 A 
ATOM     19  C   UNL     1       1.483   3.426   4.146  0.00  0.00    +0.023 A 
ATOM     20  C   UNL     1       2.017   2.985   2.942  0.00  0.00    +0.033 A 
ATOM     21  C   UNL     1       1.548   1.814   2.364  0.00  0.00    +0.068 A 
BRANCH  20  22
ATOM     22  N   UNL     1       3.030   3.717   2.317  0.00  0.00    -0.336 N 
ATOM     23  C   UNL     1       3.529   4.949   2.931  0.00  0.00    +0.129 C 
ATOM     24  C   UNL     1       3.593   3.251   1.047  0.00  0.00    +0.129 C 
ENDBRANCH  20  22
ENDBRANCH  15  16
ENDBRANCH   1  15
TORSDOF 6
