REMARK  Name = ZINC39371240
REMARK  9 active torsions:
REMARK  status: ('A' for Active; 'I' for Inactive)
REMARK    1  A    between atoms: C_1  and  C_2
REMARK    2  A    between atoms: C_2  and  O_3
REMARK    3  A    between atoms: O_3  and  C_4
REMARK    4  A    between atoms: C_7  and  C_10
REMARK    5  A    between atoms: N_11  and  N_12
REMARK    6  A    between atoms: C_13  and  C_15
REMARK    7  A    between atoms: C_16  and  C_32
REMARK    8  A    between atoms: C_21  and  C_23
REMARK    9  A    between atoms: C_26  and  C_29
REMARK                            x       y       z     vdW  Elec       q    Type
REMARK                         _______ _______ _______ _____ _____    ______ ____
ROOT
ATOM      1  C   UNL     1      -4.969  -9.992  -0.049  0.00  0.00    +0.057 C 
ATOM      2  C   UNL     1      -6.181 -10.587  -0.020  0.00  0.00    +0.017 C 
ATOM      3  N   UNL     1      -6.299 -11.943   0.094  0.00  0.00    -0.300 N 
ATOM      4  C   UNL     1      -5.253 -12.774   0.184  0.00  0.00    +0.135 C 
ATOM      5  S   UNL     1      -5.541 -14.456   0.322  0.00  0.00    -0.019 S 
ATOM      6  N   UNL     1      -3.981 -12.329   0.169  0.00  0.00    -0.315 N 
ATOM      7  C   UNL     1      -3.745 -10.881   0.044  0.00  0.00    +0.139 C 
ATOM      8  C   UNL     1      -7.424  -9.740  -0.115  0.00  0.00    +0.061 C 
ATOM      9  H   UNL     1      -7.190 -12.325   0.110  0.00  0.00    +0.154 HD
ATOM     10  H   UNL     1      -3.237 -12.949   0.235  0.00  0.00    +0.149 HD
ENDROOT
BRANCH   7  11
ATOM     11  C   UNL     1      -2.907 -10.647  -1.186  0.00  0.00    -0.023 A 
ATOM     12  C   UNL     1      -3.263 -11.239  -2.385  0.00  0.00    +0.006 A 
ATOM     13  C   UNL     1      -2.500 -11.030  -3.514  0.00  0.00    +0.015 A 
ATOM     14  C   UNL     1      -1.366 -10.216  -3.446  0.00  0.00    +0.063 A 
ATOM     15  C   UNL     1      -1.013  -9.621  -2.233  0.00  0.00    +0.015 A 
ATOM     16  C   UNL     1      -1.788  -9.835  -1.112  0.00  0.00    +0.006 A 
BRANCH  14  17
ATOM     17  C   UNL     1      -0.544  -9.988  -4.651  0.00  0.00    +0.387 C 
ATOM     18  O   UNL     1      -0.855 -10.510  -5.711  0.00  0.00    -0.241 OA
ATOM     19  O   UNL     1       0.448  -9.275  -4.588  0.00  0.00    -0.241 OA
ENDBRANCH  14  17
ENDBRANCH   7  11
BRANCH   1  21
ATOM     20  N   UNL     1      -4.983  -7.997  -1.371  0.00  0.00    -0.203 N 
ATOM     21  C   UNL     1      -4.846  -8.586  -0.167  0.00  0.00    +0.263 C 
ATOM     22  O   UNL     1      -4.616  -7.910   0.820  0.00  0.00    -0.269 OA
ATOM     23  H   UNL     1      -5.094  -8.540  -2.167  0.00  0.00    +0.178 HD
BRANCH  20  25
ATOM     24  C   UNL     1      -5.096  -6.032  -2.633  0.00  0.00    +0.138 C 
ATOM     25  N   UNL     1      -4.965  -6.600  -1.473  0.00  0.00    -0.187 NA
BRANCH  24  29
ATOM     26  C   UNL     1      -5.043  -1.798  -2.942  0.00  0.00    +0.121 A 
ATOM     27  C   UNL     1      -5.201  -2.574  -4.084  0.00  0.00    +0.046 A 
ATOM     28  C   UNL     1      -5.219  -3.949  -3.988  0.00  0.00    +0.013 A 
ATOM     29  C   UNL     1      -5.077  -4.562  -2.741  0.00  0.00    -0.005 A 
ATOM     30  C   UNL     1      -4.918  -3.777  -1.595  0.00  0.00    +0.013 A 
ATOM     31  C   UNL     1      -4.896  -2.404  -1.701  0.00  0.00    +0.046 A 
BRANCH  26  32
ATOM     32  O   UNL     1      -5.026  -0.444  -3.042  0.00  0.00    -0.492 OA
BRANCH  32  34
ATOM     33  C   UNL     1      -5.137   1.640  -4.260  0.00  0.00    +0.048 C 
ATOM     34  C   UNL     1      -5.182   0.114  -4.348  0.00  0.00    +0.225 C 
ENDBRANCH  32  34
ENDBRANCH  26  32
ENDBRANCH  24  29
ENDBRANCH  20  25
ENDBRANCH   1  21
TORSDOF 7
