REMARK  Name = ZINC56524901
REMARK  14 active torsions:
REMARK  status: ('A' for Active; 'I' for Inactive)
REMARK    1  A    between atoms: C_1  and  C_2
REMARK    2  A    between atoms: C_2  and  C_3
REMARK    3  A    between atoms: C_2  and  C_4
REMARK    4  A    between atoms: C_2  and  N_5
REMARK    5  A    between atoms: C_6  and  C_8
REMARK    6  A    between atoms: C_8  and  N_9
REMARK    7  A    between atoms: N_9  and  C_10
REMARK    8  A    between atoms: C_11  and  C_13
REMARK    9  A    between atoms: C_13  and  N_14
REMARK   10  A    between atoms: C_17  and  C_20
REMARK   11  A    between atoms: C_20  and  C_21
REMARK   12  A    between atoms: C_21  and  N_22
REMARK   13  A    between atoms: N_22  and  C_23
REMARK   14  A    between atoms: N_22  and  C_24
REMARK                            x       y       z     vdW  Elec       q    Type
REMARK                         _______ _______ _______ _____ _____    ______ ____
ROOT
ATOM      1  C   UNL     1       5.742   1.595  -3.268  0.00  0.00    +0.019 C 
ENDROOT
BRANCH   1   2
ATOM      2  N   UNL     1       5.780   2.894  -3.954  0.00  0.00    +0.385 N 
ATOM      3  C   UNL     1       5.001   3.873  -3.187  0.00  0.00    -0.078 C 
ATOM      4  C   UNL     1       4.970   5.206  -3.938  0.00  0.00    -0.015 C 
ATOM      5  C   UNL     1       6.402   5.718  -4.118  0.00  0.00    -0.016 C 
ATOM      6  C   UNL     1       7.224   4.657  -4.854  0.00  0.00    -0.015 C 
ATOM      7  C   UNL     1       7.172   3.344  -4.069  0.00  0.00    -0.078 C 
ATOM      8  H   UNL     1       5.381   2.798  -4.876  0.00  0.00    -0.081 HD
BRANCH   5   9
ATOM      9  C   UNL     1       6.383   7.010  -4.937  0.00  0.00    -0.015 C 
BRANCH   9  10
ATOM     10  C   UNL     1       7.799   7.587  -5.011  0.00  0.00    -0.079 C 
BRANCH  10  11
ATOM     11  N   UNL     1       7.781   8.828  -5.798  0.00  0.00    +0.376 N 
ATOM     12  C   UNL     1       6.984   9.842  -5.095  0.00  0.00    -0.097 C 
ATOM     13  C   UNL     1       9.155   9.318  -5.970  0.00  0.00    -0.097 C 
ATOM     14  H   UNL     1       7.373   8.647  -6.702  0.00  0.00    -0.083 HD
ENDBRANCH  10  11
ENDBRANCH   9  10
ENDBRANCH   5   9
ENDBRANCH   1   2
BRANCH   1  17
ATOM     15  N   UNL     1       4.051  -0.111  -2.677  0.00  0.00    -0.297 N 
ATOM     16  C   UNL     1       5.125  -0.892  -2.057  0.00  0.00    +0.132 C 
ATOM     17  C   UNL     1       4.328   1.073  -3.257  0.00  0.00    +0.199 C 
ATOM     18  O   UNL     1       3.439   1.720  -3.770  0.00  0.00    -0.278 OA
BRANCH  15  19
ATOM     19  C   UNL     1       2.677  -0.618  -2.667  0.00  0.00    +0.203 C 
BRANCH  19  21
ATOM     20  N   UNL     1       0.688  -0.476  -1.203  0.00  0.00    -0.309 N 
ATOM     21  C   UNL     1       1.972  -0.132  -1.427  0.00  0.00    +0.231 C 
ATOM     22  O   UNL     1       2.559   0.569  -0.630  0.00  0.00    -0.274 OA
ATOM     23  H   UNL     1       0.218  -1.037  -1.840  0.00  0.00    +0.149 HD
BRANCH  20  25
ATOM     24  C   UNL     1      -0.019   1.526   0.010  0.00  0.00    +0.031 C 
ATOM     25  C   UNL     1       0.002  -0.004   0.002  0.00  0.00    +0.026 C 
ATOM     26  C   UNL     1       0.742  -0.511   1.242  0.00  0.00    +0.031 C 
ATOM     27  C   UNL     1      -1.433  -0.534   0.013  0.00  0.00    +0.031 C 
ENDBRANCH  20  25
ENDBRANCH  19  21
ENDBRANCH  15  19
ENDBRANCH   1  17
TORSDOF 8
