REMARK  Name = ZINC33423285
REMARK  16 active torsions:
REMARK  status: ('A' for Active; 'I' for Inactive)
REMARK    1  A    between atoms: C_1  and  C_2
REMARK    2  A    between atoms: C_2  and  C_3
REMARK    3  A    between atoms: C_8  and  C_23
REMARK    4  A    between atoms: C_10  and  C_16
REMARK    5  A    between atoms: C_11  and  C_15
REMARK    6  A    between atoms: C_16  and  O_18
REMARK    7  A    between atoms: O_18  and  C_19
REMARK    8  A    between atoms: C_19  and  C_20
REMARK    9  A    between atoms: C_20  and  O_21
REMARK   10  A    between atoms: O_21  and  C_22
REMARK   11  A    between atoms: C_26  and  O_32
REMARK   12  A    between atoms: C_27  and  O_29
REMARK   13  A    between atoms: O_29  and  C_30
REMARK   14  A    between atoms: C_30  and  C_31
REMARK   15  A    between atoms: O_32  and  C_33
REMARK   16  A    between atoms: C_33  and  C_35
REMARK                            x       y       z     vdW  Elec       q    Type
REMARK                         _______ _______ _______ _____ _____    ______ ____
ROOT
ATOM      1  C   UNL     1      -1.504   0.752   1.004  0.00  0.00    +0.140 C 
ATOM      2  C   UNL     1      -0.117   0.151   1.101  0.00  0.00    +0.235 C 
ATOM      3  O   UNL     1       0.047  -1.027   1.335  0.00  0.00    -0.274 OA
ATOM      4  N   UNL     1       0.920   0.980   0.910  0.00  0.00    -0.238 N 
ATOM      5  C   UNL     1       2.355   0.573   0.960  0.00  0.00    +0.152 C 
ATOM      6  C   UNL     1       3.389   1.648   0.718  0.00  0.00    +0.083 C 
ATOM      7  C   UNL     1       2.951   2.917   0.471  0.00  0.00    +0.053 C 
ATOM      8  N   UNL     1       1.652   3.189   0.446  0.00  0.00    -0.230 NA
ATOM      9  C   UNL     1       0.699   2.314   0.645  0.00  0.00    +0.164 C 
ATOM     10  S   UNL     1      -1.075   2.500   0.648  0.00  0.00    -0.077 S 
ATOM     11  C   UNL     1       3.950   4.018   0.225  0.00  0.00    +0.066 C 
ENDROOT
BRANCH   5  12
ATOM     12  C   UNL     1       2.620  -0.027   2.316  0.00  0.00    -0.018 A 
ATOM     13  C   UNL     1       3.269  -1.244   2.418  0.00  0.00    +0.009 A 
ATOM     14  C   UNL     1       3.515  -1.798   3.660  0.00  0.00    +0.050 A 
ATOM     15  C   UNL     1       3.109  -1.135   4.807  0.00  0.00    +0.173 A 
ATOM     16  C   UNL     1       2.455   0.089   4.705  0.00  0.00    +0.163 A 
ATOM     17  C   UNL     1       2.217   0.642   3.457  0.00  0.00    +0.055 A 
BRANCH  16  18
ATOM     18  O   UNL     1       2.055   0.744   5.828  0.00  0.00    -0.489 OA
BRANCH  18  19
ATOM     19  C   UNL     1       1.296   1.941   5.645  0.00  0.00    +0.226 C 
ATOM     20  C   UNL     1       0.950   2.539   7.010  0.00  0.00    +0.048 C 
ENDBRANCH  18  19
ENDBRANCH  16  18
BRANCH  15  21
ATOM     21  O   UNL     1       3.350  -1.679   6.030  0.00  0.00    -0.422 OA
BRANCH  21  22
ATOM     22  C   UNL     1       2.370  -2.419   6.572  0.00  0.00    +0.309 C 
ATOM     23  O   UNL     1       1.356  -2.629   5.948  0.00  0.00    -0.251 OA
ATOM     24  C   UNL     1       2.534  -2.989   7.957  0.00  0.00    +0.136 C 
ENDBRANCH  21  22
ENDBRANCH  15  21
ENDBRANCH   5  12
BRANCH   1  26
ATOM     25  C   UNL     1      -3.730   0.672  -0.126  0.00  0.00    +0.005 C 
ATOM     26  C   UNL     1      -2.300   0.128  -0.143  0.00  0.00    +0.020 C 
ENDBRANCH   1  26
BRANCH   6  27
ATOM     27  C   UNL     1       4.762   1.349   0.746  0.00  0.00    +0.339 C 
ATOM     28  O   UNL     1       5.582   2.245   0.657  0.00  0.00    -0.245 OA
BRANCH  27  29
ATOM     29  O   UNL     1       5.172   0.069   0.871  0.00  0.00    -0.459 OA
BRANCH  29  30
ATOM     30  C   UNL     1       6.578  -0.152   1.004  0.00  0.00    +0.260 C 
BRANCH  30  31
ATOM     31  C   UNL     1       6.858  -1.656   1.021  0.00  0.00    +0.200 C 
BRANCH  31  32
ATOM     32  O   UNL     1       6.523  -2.217  -0.249  0.00  0.00    -0.380 OA
ATOM     33  C   UNL     1       6.649  -3.640  -0.308  0.00  0.00    +0.194 C 
ENDBRANCH  31  32
ENDBRANCH  30  31
ENDBRANCH  29  30
ENDBRANCH  27  29
ENDBRANCH   6  27
TORSDOF 11
