REMARK  Name = ZINC35636430
REMARK  6 active torsions:
REMARK  status: ('A' for Active; 'I' for Inactive)
REMARK    1  A    between atoms: C_1  and  N_2
REMARK    2  A    between atoms: C_5  and  C_10
REMARK    3  A    between atoms: N_19  and  C_21
REMARK    4  A    between atoms: C_21  and  C_23
REMARK    5  A    between atoms: C_21  and  C_30
REMARK    6  A    between atoms: C_23  and  C_24
REMARK                            x       y       z     vdW  Elec       q    Type
REMARK                         _______ _______ _______ _____ _____    ______ ____
ROOT
ATOM      1  C   UNL     1      -0.642   2.303   0.147  0.00  0.00    +0.139 C 
ATOM      2  N   UNL     1      -0.355   0.867   0.164  0.00  0.00    -0.260 N 
ATOM      3  C   UNL     1      -1.408  -0.003   0.132  0.00  0.00    +0.042 C 
ATOM      4  C   UNL     1      -1.214  -1.337   0.145  0.00  0.00    +0.058 C 
ATOM      5  C   UNL     1       0.214  -1.840   0.197  0.00  0.00    +0.142 C 
ATOM      6  N   UNL     1       1.279  -0.823   0.229  0.00  0.00    -0.288 N 
ATOM      7  C   UNL     1       0.926   0.477   0.205  0.00  0.00    +0.307 C 
ATOM      8  O   UNL     1       1.797   1.324   0.227  0.00  0.00    -0.252 OA
ATOM      9  C   UNL     1      -2.450  -2.013   0.106  0.00  0.00    +0.247 C 
ATOM     10  O   UNL     1      -2.573  -3.224   0.108  0.00  0.00    -0.270 OA
ATOM     11  N   UNL     1      -3.478  -1.145   0.067  0.00  0.00    -0.280 N 
ATOM     12  C   UNL     1      -2.905   0.209   0.080  0.00  0.00    +0.160 C 
ATOM     13  H   UNL     1       2.213  -1.083   0.262  0.00  0.00    +0.151 HD
ENDROOT
BRANCH   5  14
ATOM     14  C   UNL     1       0.359  -2.702   1.424  0.00  0.00    -0.022 A 
ATOM     15  C   UNL     1       0.532  -2.115   2.664  0.00  0.00    +0.007 A 
ATOM     16  C   UNL     1       0.664  -2.906   3.790  0.00  0.00    +0.020 A 
ATOM     17  C   UNL     1       0.625  -4.284   3.677  0.00  0.00    +0.041 A 
ATOM     18  C   UNL     1       0.452  -4.870   2.436  0.00  0.00    +0.020 A 
ATOM     19  C   UNL     1       0.314  -4.079   1.311  0.00  0.00    +0.007 A 
ATOM     20 CL   UNL     1       0.792  -5.277   5.091  0.00  0.00    -0.084 Cl
ENDBRANCH   5  14
BRANCH  11  21
ATOM     21  C   UNL     1      -4.902  -1.486   0.019  0.00  0.00    +0.167 C 
BRANCH  21  22
ATOM     22  C   UNL     1      -5.268  -2.288   1.241  0.00  0.00    +0.236 C 
ATOM     23  O   UNL     1      -4.414  -2.911   1.836  0.00  0.00    -0.274 OA
ATOM     24  N   UNL     1      -6.544  -2.312   1.674  0.00  0.00    -0.300 N 
ATOM     25  C   UNL     1      -7.692  -1.697   0.992  0.00  0.00    +0.108 C 
ATOM     26  C   UNL     1      -8.937  -1.958   1.865  0.00  0.00    +0.020 C 
ATOM     27  C   UNL     1      -8.329  -2.216   3.269  0.00  0.00    +0.020 C 
ATOM     28  C   UNL     1      -7.021  -2.966   2.906  0.00  0.00    +0.108 C 
ENDBRANCH  21  22
BRANCH  21  29
ATOM     29  C   UNL     1      -5.187  -2.312  -1.237  0.00  0.00    +0.067 C 
BRANCH  29  30
ATOM     30  C   UNL     1      -4.951  -1.464  -2.460  0.00  0.00    -0.045 A 
ATOM     31  C   UNL     1      -5.985  -0.715  -2.992  0.00  0.00    +0.004 A 
ATOM     32  C   UNL     1      -5.769   0.062  -4.114  0.00  0.00    +0.000 A 
ATOM     33  C   UNL     1      -4.519   0.092  -4.704  0.00  0.00    +0.000 A 
ATOM     34  C   UNL     1      -3.485  -0.655  -4.172  0.00  0.00    +0.000 A 
ATOM     35  C   UNL     1      -3.700  -1.430  -3.047  0.00  0.00    +0.004 A 
ENDBRANCH  29  30
ENDBRANCH  21  29
ENDBRANCH  11  21
TORSDOF 5
