REMARK  Name = ZINC64836171
REMARK  8 active torsions:
REMARK  status: ('A' for Active; 'I' for Inactive)
REMARK    1  A    between atoms: C_1  and  C_2
REMARK    2  A    between atoms: N_4  and  C_9
REMARK    3  A    between atoms: C_6  and  C_8
REMARK    4  A    between atoms: C_14  and  N_15
REMARK    5  A    between atoms: C_16  and  C_18
REMARK    6  A    between atoms: C_18  and  N_19
REMARK    7  A    between atoms: N_22  and  C_23
REMARK    8  A    between atoms: C_23  and  C_24
REMARK                            x       y       z     vdW  Elec       q    Type
REMARK                         _______ _______ _______ _____ _____    ______ ____
ROOT
ATOM      1  N   UNL     1      -4.017  -2.731   0.818  0.00  0.00    -0.283 N 
ATOM      2  C   UNL     1      -5.027  -3.419   1.387  0.00  0.00    +0.234 C 
ATOM      3  O   UNL     1      -5.347  -4.503   0.945  0.00  0.00    -0.274 OA
ATOM      4  H   UNL     1      -3.709  -1.903   1.219  0.00  0.00    +0.155 HD
ENDROOT
BRANCH   1  10
ATOM      5  C   UNL     1      -2.105  -2.844  -0.665  0.00  0.00    +0.051 A 
ATOM      6  C   UNL     1      -1.511  -3.327  -1.821  0.00  0.00    +0.025 A 
ATOM      7  C   UNL     1      -2.218  -4.166  -2.662  0.00  0.00    +0.002 A 
ATOM      8  C   UNL     1      -3.517  -4.526  -2.355  0.00  0.00    +0.002 A 
ATOM      9  C   UNL     1      -4.117  -4.049  -1.204  0.00  0.00    +0.025 A 
ATOM     10  C   UNL     1      -3.413  -3.211  -0.352  0.00  0.00    +0.055 A 
BRANCH   5  14
ATOM     11  C   UNL     1      -0.019   1.526   0.010  0.00  0.00    +0.039 C 
ATOM     12  C   UNL     1       0.000  -0.004  -0.007  0.00  0.00    +0.133 C 
ATOM     13  C   UNL     1      -1.438  -0.534   0.016  0.00  0.00    +0.136 C 
ATOM     14  N   UNL     1      -1.391  -1.995   0.188  0.00  0.00    -0.324 N 
ATOM     15  C   UNL     1      -0.572  -2.536   1.284  0.00  0.00    +0.136 C 
ATOM     16  C   UNL     1       0.824  -1.909   1.199  0.00  0.00    +0.133 C 
ATOM     17  O   UNL     1       0.698  -0.485   1.144  0.00  0.00    -0.371 OA
ATOM     18  C   UNL     1       1.533  -2.408  -0.061  0.00  0.00    +0.039 C 
ENDBRANCH   5  14
ENDBRANCH   1  10
BRANCH   2  19
ATOM     19  C   UNL     1      -5.759  -2.843   2.571  0.00  0.00    +0.202 C 
BRANCH  19  20
ATOM     20  N   UNL     1      -6.804  -3.776   3.001  0.00  0.00    -0.291 N 
ATOM     21  C   UNL     1      -7.592  -3.469   4.050  0.00  0.00    +0.300 C 
ATOM     22  O   UNL     1      -7.435  -2.417   4.641  0.00  0.00    -0.253 OA
ATOM     23  N   UNL     1      -8.553  -4.327   4.446  0.00  0.00    -0.292 N 
ATOM     24  H   UNL     1      -6.929  -4.614   2.530  0.00  0.00    +0.151 HD
ATOM     25  H   UNL     1      -8.678  -5.165   3.974  0.00  0.00    +0.151 HD
BRANCH  23  26
ATOM     26  C   UNL     1      -9.409  -3.993   5.587  0.00  0.00    +0.180 C 
BRANCH  26  27
ATOM     27  C   UNL     1     -10.393  -5.110   5.820  0.00  0.00    +0.122 A 
ATOM     28  C   UNL     1     -10.200  -6.174   6.620  0.00  0.00    +0.046 A 
ATOM     29  C   UNL     1     -11.371  -6.963   6.541  0.00  0.00    +0.041 A 
ATOM     30  C   UNL     1     -12.209  -6.333   5.699  0.00  0.00    +0.195 A 
ATOM     31  O   UNL     1     -11.614  -5.209   5.269  0.00  0.00    -0.466 OA
ENDBRANCH  26  27
ENDBRANCH  23  26
ENDBRANCH  19  20
ENDBRANCH   2  19
TORSDOF 6
