REMARK  Name = ZINC37560170
REMARK  5 active torsions:
REMARK  status: ('A' for Active; 'I' for Inactive)
REMARK    1  A    between atoms: C_1  and  N_2
REMARK    2  A    between atoms: N_7  and  S_8
REMARK    3  A    between atoms: S_8  and  C_11
REMARK    4  A    between atoms: C_16  and  C_17
REMARK    5  A    between atoms: C_17  and  N_18
REMARK                            x       y       z     vdW  Elec       q    Type
REMARK                         _______ _______ _______ _____ _____    ______ ____
ROOT
ATOM      1  S   UNL     1       0.444  -2.798   3.542  0.00  0.00    +0.074 S 
ATOM      2  O   UNL     1       0.693  -2.934   2.149  0.00  0.00    -0.150 OA
ATOM      3  O   UNL     1       0.676  -3.854   4.464  0.00  0.00    -0.150 OA
ENDROOT
BRANCH   1  10
ATOM      4  C   UNL     1       0.011  -1.129   8.781  0.00  0.00    +0.172 C 
ATOM      5  N   UNL     1       0.700  -0.898   7.509  0.00  0.00    -0.273 N 
ATOM      6  C   UNL     1       1.676   0.007   7.289  0.00  0.00    +0.110 A 
ATOM      7  C   UNL     1       2.049  -0.091   5.993  0.00  0.00    +0.066 A 
ATOM      8  C   UNL     1       1.271  -1.096   5.396  0.00  0.00    +0.160 A 
ATOM      9  N   UNL     1       0.465  -1.583   6.310  0.00  0.00    -0.155 NA
ATOM     10  N   UNL     1       1.345  -1.510   4.061  0.00  0.00    -0.198 N 
ATOM     11  H   UNL     1       1.925  -1.042   3.440  0.00  0.00    +0.175 HD
ENDBRANCH   1  10
BRANCH   1  12
ATOM     12  C   UNL     1      -1.252  -2.348   3.708  0.00  0.00    +0.110 A 
ATOM     13  C   UNL     1      -2.069  -3.042   4.582  0.00  0.00    +0.029 A 
ATOM     14  C   UNL     1      -3.398  -2.689   4.712  0.00  0.00    +0.002 A 
ATOM     15  C   UNL     1      -3.912  -1.642   3.969  0.00  0.00    +0.000 A 
ATOM     16  C   UNL     1      -3.095  -0.948   3.097  0.00  0.00    +0.003 A 
ATOM     17  C   UNL     1      -1.764  -1.298   2.969  0.00  0.00    -0.038 A 
BRANCH  17  18
ATOM     18  C   UNL     1      -0.872  -0.538   2.022  0.00  0.00    -0.049 C 
BRANCH  18  19
ATOM     19  N   UNL     1      -0.831  -1.230   0.726  0.00  0.00    +0.381 N 
ATOM     20  H   UNL     1      -1.735  -1.167   0.282  0.00  0.00    -0.090 HD
ATOM     21  H   UNL     1      -0.136  -0.799   0.136  0.00  0.00    -0.090 HD
ATOM     22  H   UNL     1      -0.595  -2.201   0.871  0.00  0.00    -0.090 HD
ENDBRANCH  18  19
ENDBRANCH  17  18
ENDBRANCH   1  12
TORSDOF 4
