REMARK  Name = ZINC63433656
REMARK  10 active torsions:
REMARK  status: ('A' for Active; 'I' for Inactive)
REMARK    1  A    between atoms: C_1  and  O_2
REMARK    2  A    between atoms: O_2  and  C_3
REMARK    3  A    between atoms: C_6  and  C_11
REMARK    4  A    between atoms: C_8  and  O_9
REMARK    5  A    between atoms: O_9  and  C_10
REMARK    6  A    between atoms: C_15  and  C_26
REMARK    7  A    between atoms: C_20  and  C_22
REMARK    8  A    between atoms: N_28  and  C_29
REMARK    9  A    between atoms: C_29  and  C_30
REMARK   10  A    between atoms: C_30  and  C_31
REMARK                            x       y       z     vdW  Elec       q    Type
REMARK                         _______ _______ _______ _____ _____    ______ ____
ROOT
ATOM      1  C   UNL     1       2.580  -2.537   4.298  0.00  0.00    +0.070 C 
ATOM      2  N   UNL     1       2.631  -3.846   4.327  0.00  0.00    -0.254 NA
ATOM      3  C   UNL     1       3.295  -4.529   5.441  0.00  0.00    +0.246 C 
ATOM      4  C   UNL     1       2.528  -5.761   5.859  0.00  0.00    +0.073 C 
ATOM      5  H   UNL     1       2.759  -4.200   8.604  0.00  0.00    +0.170 HD
ATOM      6  C   UNL     1       2.254  -5.623   7.174  0.00  0.00    +0.100 C 
ATOM      7  N   UNL     1       2.735  -4.444   7.665  0.00  0.00    -0.269 N 
ATOM      8  N   UNL     1       3.205  -3.635   6.616  0.00  0.00    -0.220 N 
ATOM      9  C   UNL     1       3.477  -2.292   6.545  0.00  0.00    +0.132 C 
ATOM     10  C   UNL     1       3.181  -1.711   5.350  0.00  0.00    +0.057 C 
ENDROOT
BRANCH   1  14
ATOM     11  C   UNL     1       0.626  -0.618   1.041  0.00  0.00    +0.162 A 
ATOM     12  C   UNL     1       1.202   0.141   2.050  0.00  0.00    +0.050 A 
ATOM     13  C   UNL     1       1.835  -0.478   3.107  0.00  0.00    +0.014 A 
ATOM     14  C   UNL     1       1.898  -1.871   3.163  0.00  0.00    +0.004 A 
ATOM     15  C   UNL     1       1.319  -2.635   2.150  0.00  0.00    +0.059 A 
ATOM     16  C   UNL     1       0.681  -2.009   1.095  0.00  0.00    +0.162 A 
BRANCH  11  18
ATOM     17  C   UNL     1      -0.017   1.425   0.010  0.00  0.00    +0.277 C 
ATOM     18  O   UNL     1       0.002  -0.004   0.002  0.00  0.00    -0.491 OA
ENDBRANCH  11  18
BRANCH  16  19
ATOM     19  O   UNL     1       0.111  -2.752   0.108  0.00  0.00    -0.491 OA
ATOM     20  C   UNL     1       0.206  -4.172   0.228  0.00  0.00    +0.277 C 
ENDBRANCH  16  19
ENDBRANCH   1  14
BRANCH   9  21
ATOM     21  C   UNL     1       4.065  -1.520   7.698  0.00  0.00    +0.432 C 
ATOM     22  F   UNL     1       4.228  -0.181   7.328  0.00  0.00    -0.165 F 
ATOM     23  F   UNL     1       3.204  -1.598   8.798  0.00  0.00    -0.165 F 
ATOM     24  F   UNL     1       5.307  -2.065   8.039  0.00  0.00    -0.165 F 
ENDBRANCH   9  21
BRANCH   4  25
ATOM     25  C   UNL     1       2.166  -6.850   5.033  0.00  0.00    +0.245 C 
ATOM     26  O   UNL     1       1.543  -7.787   5.498  0.00  0.00    -0.270 OA
ATOM     27  N   UNL     1       2.511  -6.851   3.730  0.00  0.00    -0.311 N 
ATOM     28  H   UNL     1       3.007  -6.105   3.359  0.00  0.00    +0.149 HD
BRANCH  27  29
ATOM     29  C   UNL     1       2.136  -7.980   2.874  0.00  0.00    +0.109 C 
BRANCH  29  30
ATOM     30  C   UNL     1       2.645  -7.732   1.452  0.00  0.00    +0.052 C 
BRANCH  30  31
ATOM     31  C   UNL     1       2.260  -8.893   0.572  0.00  0.00    -0.040 C 
ATOM     32  C   UNL     1       1.171  -8.982  -0.226  0.00  0.00    -0.001 A 
ATOM     33  C   UNL     1       0.062  -8.061  -0.502  0.00  0.00    +0.010 A 
ATOM     34  C   UNL     1      -0.905  -8.439  -1.368  0.00  0.00    +0.001 A 
ATOM     35  C   UNL     1      -0.875  -9.686  -2.008  0.00  0.00    +0.002 A 
ATOM     36  C   UNL     1       0.111 -10.585  -1.806  0.00  0.00    +0.026 A 
ATOM     37  C   UNL     1       1.180 -10.292  -0.915  0.00  0.00    +0.043 A 
ATOM     38  N   UNL     1       2.233 -10.986  -0.557  0.00  0.00    -0.380 N 
ATOM     39  C   UNL     1       3.016 -10.191   0.396  0.00  0.00    +0.144 C 
ATOM     40  H   UNL     1       2.460 -11.875  -0.873  0.00  0.00    +0.160 HD
ENDBRANCH  30  31
ENDBRANCH  29  30
ENDBRANCH  27  29
ENDBRANCH   4  25
TORSDOF 8
