REMARK  Name = ZINC02204752
REMARK  9 active torsions:
REMARK  status: ('A' for Active; 'I' for Inactive)
REMARK    1  A    between atoms: C_1  and  C_2
REMARK    2  A    between atoms: C_2  and  C_3
REMARK    3  A    between atoms: C_2  and  C_4
REMARK    4  A    between atoms: C_4  and  C_5
REMARK    5  A    between atoms: C_11  and  N_15
REMARK    6  A    between atoms: N_15  and  C_16
REMARK    7  A    between atoms: C_16  and  C_17
REMARK    8  A    between atoms: C_26  and  C_29
REMARK    9  A    between atoms: C_26  and  C_30
REMARK                            x       y       z     vdW  Elec       q    Type
REMARK                         _______ _______ _______ _____ _____    ______ ____
ROOT
ATOM      1  C   UNL     1      -0.714  -2.200  -0.003  0.00  0.00    +0.051 A 
ATOM      2  C   UNL     1       0.587  -2.684  -0.013  0.00  0.00    +0.004 A 
ATOM      3  C   UNL     1       1.635  -1.789  -0.020  0.00  0.00    -0.023 A 
ATOM      4  C   UNL     1       1.341  -0.426  -0.012  0.00  0.00    +0.070 A 
ATOM      5  C   UNL     1       2.151   0.802  -0.014  0.00  0.00    +0.124 A 
ATOM      6  C   UNL     1       1.232   1.858   0.000  0.00  0.00    +0.196 A 
ATOM      7  C   UNL     1       1.736   3.163   0.003  0.00  0.00    +0.166 A 
ATOM      8  N   UNL     1       3.053   3.340  -0.009  0.00  0.00    -0.217 NA
ATOM      9  C   UNL     1       3.882   2.314  -0.023  0.00  0.00    +0.224 A 
ATOM     10  N   UNL     1       3.454   1.069  -0.025  0.00  0.00    -0.231 NA
ATOM     11  O   UNL     1      -0.016   1.346   0.009  0.00  0.00    -0.432 OA
ATOM     12  C   UNL     1       0.002  -0.004   0.002  0.00  0.00    +0.231 A 
ATOM     13  N   UNL     1      -0.968  -0.909   0.004  0.00  0.00    -0.217 NA
ATOM     14  C   UNL     1       3.066  -2.251  -0.039  0.00  0.00    +0.070 C 
ATOM     15  C   UNL     1       3.138  -3.724   0.369  0.00  0.00    +0.068 C 
ATOM     16  O   UNL     1       2.170  -4.455  -0.392  0.00  0.00    -0.369 OA
ATOM     17  C   UNL     1       0.823  -4.170  -0.014  0.00  0.00    +0.197 C 
ATOM     18  C   UNL     1       4.538  -4.270   0.081  0.00  0.00    +0.041 C 
ATOM     19  C   UNL     1       2.831  -3.859   1.862  0.00  0.00    +0.041 C 
ENDROOT
BRANCH   7  20
ATOM     20  N   UNL     1       0.877   4.252   0.017  0.00  0.00    -0.319 N 
ATOM     21  H   UNL     1      -0.082   4.112   0.026  0.00  0.00    +0.148 HD
BRANCH  20  22
ATOM     22  C   UNL     1       1.420   5.613   0.020  0.00  0.00    +0.177 C 
BRANCH  22  23
ATOM     23  C   UNL     1       0.286   6.605   0.037  0.00  0.00    +0.122 A 
ATOM     24  C   UNL     1      -0.295   7.117   1.137  0.00  0.00    +0.046 A 
ATOM     25  C   UNL     1      -1.305   8.001   0.693  0.00  0.00    +0.041 A 
ATOM     26  C   UNL     1      -1.281   7.976  -0.652  0.00  0.00    +0.195 A 
ATOM     27  O   UNL     1      -0.311   7.134  -1.043  0.00  0.00    -0.466 OA
ENDBRANCH  22  23
ENDBRANCH  20  22
ENDBRANCH   7  20
BRANCH   1  28
ATOM     28  C   UNL     1      -1.862  -3.176   0.001  0.00  0.00    +0.059 C 
BRANCH  28  30
ATOM     29  C   UNL     1      -3.485  -4.403   1.451  0.00  0.00    +0.007 C 
ATOM     30  C   UNL     1      -2.242  -3.511   1.444  0.00  0.00    -0.011 C 
ATOM     31  C   UNL     1      -1.083  -4.248   2.118  0.00  0.00    +0.007 C 
ENDBRANCH  28  30
ENDBRANCH   1  28
TORSDOF 5
