REMARK  Name = ZINC20367092
REMARK  5 active torsions:
REMARK  status: ('A' for Active; 'I' for Inactive)
REMARK    1  A    between atoms: C_1  and  C_2
REMARK    2  A    between atoms: C_5  and  C_8
REMARK    3  A    between atoms: C_8  and  N_9
REMARK    4  A    between atoms: N_11  and  C_12
REMARK    5  A    between atoms: C_24  and  C_26
REMARK                            x       y       z     vdW  Elec       q    Type
REMARK                         _______ _______ _______ _____ _____    ______ ____
ROOT
ATOM      1  N   UNL     1      -3.179   2.420   1.744  0.00  0.00    -0.310 N 
ATOM      2  C   UNL     1      -3.346   1.356   0.891  0.00  0.00    +0.208 C 
ATOM      3  N   UNL     1      -2.404   1.052   0.029  0.00  0.00    -0.216 NA
ATOM      4  N   UNL     1      -4.501   0.609   0.940  0.00  0.00    -0.235 N 
ATOM      5  C   UNL     1      -4.849  -0.478   0.170  0.00  0.00    +0.140 A 
ATOM      6  N   UNL     1      -4.048  -0.950  -0.764  0.00  0.00    -0.283 NA
ATOM      7  C   UNL     1      -6.089  -1.058   0.431  0.00  0.00    +0.058 A 
ATOM      8  C   UNL     1      -6.839  -0.495   1.405  0.00  0.00    +0.007 A 
ATOM      9  S   UNL     1      -5.852   0.813   1.965  0.00  0.00    -0.007 S 
ATOM     10  C   UNL     1      -8.206  -0.907   1.887  0.00  0.00    +0.053 C 
ATOM     11  H   UNL     1      -2.303   3.077   1.638  0.00  0.00    +0.149 HD
ATOM     12  H   UNL     1      -4.318  -1.717  -1.292  0.00  0.00    +0.188 HD
ENDROOT
BRANCH   3  13
ATOM     13  C   UNL     1      -1.312   1.868  -0.110  0.00  0.00    +0.069 A 
ATOM     14  C   UNL     1      -1.482   3.217  -0.428  0.00  0.00    +0.031 A 
ATOM     15  C   UNL     1      -0.380   4.034  -0.573  0.00  0.00    +0.042 A 
ATOM     16  C   UNL     1       0.894   3.520  -0.396  0.00  0.00    +0.142 A 
ATOM     17  C   UNL     1       1.069   2.183  -0.073  0.00  0.00    +0.078 A 
ATOM     18  C   UNL     1      -0.027   1.356   0.073  0.00  0.00    +0.050 A 
ATOM     19 CL   UNL     1       2.670   1.547   0.147  0.00  0.00    -0.081 Cl
ATOM     20  F   UNL     1       1.970   4.324  -0.538  0.00  0.00    -0.204 F 
ENDBRANCH   3  13
BRANCH   1  21
ATOM     21  C   UNL     1      -4.167   2.678   2.794  0.00  0.00    +0.139 C 
BRANCH  21  26
ATOM     22  C   UNL     1      -2.363   7.064   6.097  0.00  0.00    +0.044 C 
ATOM     23  C   UNL     1      -2.834   5.920   5.236  0.00  0.00    -0.050 A 
ATOM     24  C   UNL     1      -3.611   6.169   4.120  0.00  0.00    +0.003 A 
ATOM     25  C   UNL     1      -4.043   5.120   3.330  0.00  0.00    +0.005 A 
ATOM     26  C   UNL     1      -3.696   3.822   3.655  0.00  0.00    -0.030 A 
ATOM     27  C   UNL     1      -2.922   3.573   4.773  0.00  0.00    +0.005 A 
ATOM     28  C   UNL     1      -2.487   4.622   5.561  0.00  0.00    +0.003 A 
ENDBRANCH  21  26
ENDBRANCH   1  21
TORSDOF 3
