REMARK  Name = ZINC42524591
REMARK  4 active torsions:
REMARK  status: ('A' for Active; 'I' for Inactive)
REMARK    1  A    between atoms: C_4  and  S_7
REMARK    2  A    between atoms: S_7  and  N_10
REMARK    3  A    between atoms: N_10  and  C_11
REMARK    4  A    between atoms: C_17  and  N_19
REMARK                            x       y       z     vdW  Elec       q    Type
REMARK                         _______ _______ _______ _____ _____    ______ ____
ROOT
ATOM      1  N   UNL     1       3.173  -2.560  -0.043  0.00  0.00    -0.188 NA
ATOM      2  H   UNL     1       3.608  -2.962  -0.811  0.00  0.00    +0.148 HD
ENDROOT
BRANCH   1   3
ATOM      3  C   UNL     1       3.972  -2.115   1.101  0.00  0.00    +0.062 C 
ATOM      4  C   UNL     1       4.216  -3.296   2.043  0.00  0.00    +0.019 C 
ATOM      5  C   UNL     1       5.050  -2.832   3.238  0.00  0.00    +0.001 C 
ATOM      6  C   UNL     1       6.392  -2.288   2.744  0.00  0.00    -0.001 C 
ATOM      7  C   UNL     1       6.148  -1.107   1.802  0.00  0.00    -0.015 C 
ATOM      8  C   UNL     1       5.314  -1.572   0.607  0.00  0.00    -0.056 C 
BRANCH   8   9
ATOM      9  N   UNL     1       5.080  -0.437  -0.297  0.00  0.00    +0.381 N 
ATOM     10  H   UNL     1       4.584   0.289   0.197  0.00  0.00    -0.090 HD
ATOM     11  H   UNL     1       5.965  -0.079  -0.623  0.00  0.00    -0.090 HD
ATOM     12  H   UNL     1       4.529  -0.744  -1.086  0.00  0.00    -0.090 HD
ENDBRANCH   8   9
ENDBRANCH   1   3
BRANCH   1  13
ATOM     13  S   UNL     1       1.527  -2.376  -0.026  0.00  0.00    +0.066 S 
ATOM     14  O   UNL     1       1.075  -2.885   1.220  0.00  0.00    -0.153 OA
ATOM     15  O   UNL     1       1.050  -2.870  -1.270  0.00  0.00    -0.153 OA
BRANCH  13  19
ATOM     16  C   UNL     1      -0.017   1.379   0.010  0.00  0.00    +0.025 A 
ATOM     17  C   UNL     1       1.160   2.052   0.002  0.00  0.00    +0.048 A 
ATOM     18  S   UNL     1       2.348   0.720  -0.017  0.00  0.00    -0.076 S 
ATOM     19  C   UNL     1       1.197  -0.645  -0.013  0.00  0.00    +0.156 A 
ATOM     20  C   UNL     1       0.002  -0.004   0.002  0.00  0.00    +0.051 A 
ATOM     21 BR   UNL     1      -1.614  -0.986   0.013  0.00  0.00    -0.048 Br
ENDBRANCH  13  19
ENDBRANCH   1  13
TORSDOF 4
