REMARK  Name = ZINC01871049
REMARK  16 active torsions:
REMARK  status: ('A' for Active; 'I' for Inactive)
REMARK    1  A    between atoms: C_1  and  C_2
REMARK    2  A    between atoms: C_2  and  C_3
REMARK    3  A    between atoms: C_2  and  C_4
REMARK    4  A    between atoms: C_2  and  C_5
REMARK    5  A    between atoms: C_7  and  C_16
REMARK    6  A    between atoms: C_9  and  C_12
REMARK    7  A    between atoms: C_10  and  O_11
REMARK    8  A    between atoms: C_12  and  C_13
REMARK    9  A    between atoms: C_12  and  C_14
REMARK   10  A    between atoms: C_12  and  C_15
REMARK   11  A    between atoms: N_17  and  N_18
REMARK   12  A    between atoms: C_19  and  C_21
REMARK   13  A    between atoms: C_22  and  C_32
REMARK   14  A    between atoms: C_32  and  N_68
REMARK   15  A    between atoms: C_33  and  N_68
REMARK   16  A    between atoms: C_34  and  N_68
REMARK                            x       y       z     vdW  Elec       q    Type
REMARK                         _______ _______ _______ _____ _____    ______ ____
ROOT
ATOM      1  N   UNL     1       2.390   7.740   0.067  0.00  0.00    -0.202 N 
ATOM      2  C   UNL     1       1.100   7.350   0.067  0.00  0.00    +0.285 C 
ATOM      3  O   UNL     1       0.213   8.182   0.076  0.00  0.00    -0.267 OA
ATOM      4  H   UNL     1       3.097   7.077   0.059  0.00  0.00    +0.178 HD
ENDROOT
BRANCH   2   5
ATOM      5  C   UNL     1       0.764   5.914   0.053  0.00  0.00    +0.170 A 
ATOM      6  C   UNL     1      -0.497   5.389   0.046  0.00  0.00    +0.063 A 
ATOM      7  N   UNL     1      -0.360   4.045   0.038  0.00  0.00    -0.194 N 
ATOM      8  N   UNL     1       1.016   3.778   0.032  0.00  0.00    -0.058 NA
ATOM      9  N   UNL     1       1.647   4.901   0.041  0.00  0.00    -0.124 NA
ATOM     10  C   UNL     1      -1.393   3.100   0.031  0.00  0.00    +0.240 A 
ATOM     11  C   UNL     1      -1.224   1.645   0.017  0.00  0.00    +0.206 A 
ATOM     12  N   UNL     1      -2.408   1.094   0.020  0.00  0.00    -0.032 NA
ATOM     13  O   UNL     1      -3.369   2.134   0.031  0.00  0.00    -0.239 OA
ATOM     14  N   UNL     1      -2.669   3.366   0.034  0.00  0.00    -0.027 NA
ATOM     15  N   UNL     1      -0.011   0.966   0.007  0.00  0.00    -0.337 N 
ATOM     16  H   UNL     1       0.002  -0.004   0.002  0.00  0.00    +0.144 HD
ATOM     17  H   UNL     1       0.822   1.462   0.002  0.00  0.00    +0.144 HD
BRANCH   6  18
ATOM     18  C   UNL     1      -1.792   6.161   0.050  0.00  0.00    -0.021 C 
BRANCH  18  21
ATOM     19  C   UNL     1      -3.336   7.349   1.487  0.00  0.00    -0.096 C 
ATOM     20  C   UNL     1      -2.555   5.144   2.110  0.00  0.00    -0.096 C 
ATOM     21  N   UNL     1      -2.191   6.415   1.450  0.00  0.00    +0.380 N 
ATOM     22  H   UNL     1      -1.401   6.836   1.951  0.00  0.00    -0.082 HD
ENDBRANCH  18  21
ENDBRANCH   6  18
ENDBRANCH   2   5
BRANCH   1  24
ATOM     23  C   UNL     1       3.951   9.480   0.081  0.00  0.00    +0.138 C 
ATOM     24  N   UNL     1       2.709   9.105   0.080  0.00  0.00    -0.187 NA
BRANCH  23  27
ATOM     25  C   UNL     1       5.933  12.666   0.107  0.00  0.00    +0.000 A 
ATOM     26  C   UNL     1       5.624  11.323   0.095  0.00  0.00    +0.017 A 
ATOM     27  C   UNL     1       4.287  10.916   0.094  0.00  0.00    -0.005 A 
ATOM     28  C   UNL     1       3.269  11.874   0.099  0.00  0.00    +0.017 A 
ATOM     29  C   UNL     1       3.588  13.214   0.117  0.00  0.00    +0.000 A 
ATOM     30  C   UNL     1       4.918  13.614   0.118  0.00  0.00    +0.124 A 
BRANCH  25  32
ATOM     31  C   UNL     1       8.284  11.876   0.094  0.00  0.00    +0.015 C 
ATOM     32  C   UNL     1       7.374  13.106   0.108  0.00  0.00    -0.009 C 
ATOM     33  C   UNL     1       7.649  13.957  -1.134  0.00  0.00    +0.015 C 
ATOM     34  C   UNL     1       7.654  13.933   1.365  0.00  0.00    +0.015 C 
ENDBRANCH  25  32
BRANCH  29  35
ATOM     35  C   UNL     1       2.492  14.248   0.128  0.00  0.00    -0.009 C 
ATOM     36  C   UNL     1       1.131  13.549   0.124  0.00  0.00    +0.015 C 
ATOM     37  C   UNL     1       2.618  15.111   1.385  0.00  0.00    +0.015 C 
ATOM     38  C   UNL     1       2.613  15.134  -1.113  0.00  0.00    +0.015 C 
ENDBRANCH  29  35
BRANCH  30  39
ATOM     39  O   UNL     1       5.228  14.937   0.129  0.00  0.00    -0.506 OA
ATOM     40  H   UNL     1       5.316  15.328  -0.751  0.00  0.00    +0.292 HD
ENDBRANCH  30  39
ENDBRANCH  23  27
ENDBRANCH   1  24
TORSDOF 8
