REMARK  Name = ZINC53044457
REMARK  6 active torsions:
REMARK  status: ('A' for Active; 'I' for Inactive)
REMARK    1  A    between atoms: C_3  and  N_19
REMARK    2  A    between atoms: C_4  and  S_8
REMARK    3  A    between atoms: S_8  and  N_11
REMARK    4  A    between atoms: N_11  and  C_12
REMARK    5  A    between atoms: C_12  and  C_17
REMARK    6  A    between atoms: C_17  and  O_18
REMARK                            x       y       z     vdW  Elec       q    Type
REMARK                         _______ _______ _______ _____ _____    ______ ____
ROOT
ATOM      1  S   UNL     1       4.452  -1.643  -0.212  0.00  0.00    +0.061 S 
ATOM      2  O   UNL     1       4.123  -2.997  -0.489  0.00  0.00    -0.153 OA
ATOM      3  O   UNL     1       3.585  -0.782   0.514  0.00  0.00    -0.153 OA
ENDROOT
BRANCH   1   7
ATOM      4  C   UNL     1       8.394  -1.697   2.023  0.00  0.00    +0.022 A 
ATOM      5  C   UNL     1       8.285  -2.345   0.807  0.00  0.00    +0.026 A 
ATOM      6  C   UNL     1       7.079  -2.330   0.120  0.00  0.00    +0.051 A 
ATOM      7  C   UNL     1       5.984  -1.664   0.657  0.00  0.00    +0.127 A 
ATOM      8  C   UNL     1       6.098  -1.019   1.872  0.00  0.00    +0.050 A 
ATOM      9  C   UNL     1       7.302  -1.035   2.555  0.00  0.00    +0.043 A 
ATOM     10 CL   UNL     1       7.442  -0.223   4.083  0.00  0.00    -0.083 Cl
BRANCH   6  11
ATOM     11  N   UNL     1       6.966  -2.984  -1.110  0.00  0.00    -0.356 N 
ATOM     12  H   UNL     1       7.727  -3.460  -1.478  0.00  0.00    +0.142 HD
ATOM     13  H   UNL     1       6.127  -2.961  -1.597  0.00  0.00    +0.142 HD
ENDBRANCH   6  11
ENDBRANCH   1   7
BRANCH   1  14
ATOM     14  N   UNL     1       4.727  -0.914  -1.673  0.00  0.00    -0.182 NA
ATOM     15  H   UNL     1       4.820  -1.453  -2.474  0.00  0.00    +0.149 HD
BRANCH  14  16
ATOM     16  C   UNL     1       4.832   0.545  -1.756  0.00  0.00    +0.063 C 
ATOM     17  C   UNL     1       3.439   1.199  -1.583  0.00  0.00    +0.026 C 
ATOM     18  C   UNL     1       2.816   1.055  -2.994  0.00  0.00    +0.002 C 
ATOM     19  C   UNL     1       3.998   1.299  -3.956  0.00  0.00    +0.002 C 
ATOM     20  C   UNL     1       5.279   0.975  -3.169  0.00  0.00    +0.026 C 
BRANCH  16  21
ATOM     21  C   UNL     1       5.809   1.071  -0.702  0.00  0.00    +0.179 C 
BRANCH  21  22
ATOM     22  O   UNL     1       5.249   0.886   0.600  0.00  0.00    -0.393 OA
ATOM     23  H   UNL     1       5.816   1.198   1.319  0.00  0.00    +0.209 HD
ENDBRANCH  21  22
ENDBRANCH  16  21
ENDBRANCH  14  16
ENDBRANCH   1  14
TORSDOF 6
