REMARK  Name = ZINC65587758
REMARK  6 active torsions:
REMARK  status: ('A' for Active; 'I' for Inactive)
REMARK    1  A    between atoms: C_2  and  N_14
REMARK    2  A    between atoms: C_4  and  S_10
REMARK    3  A    between atoms: C_6  and  N_7
REMARK    4  A    between atoms: S_10  and  N_13
REMARK    5  A    between atoms: N_14  and  C_15
REMARK    6  A    between atoms: N_22  and  C_24
REMARK                            x       y       z     vdW  Elec       q    Type
REMARK                         _______ _______ _______ _____ _____    ______ ____
ROOT
ATOM      1  C   UNL     1      -0.017   1.377   0.010  0.00  0.00    +0.055 A 
ATOM      2  C   UNL     1       1.178   2.086   0.002  0.00  0.00    +0.031 A 
ATOM      3  C   UNL     1       2.387   1.403  -0.013  0.00  0.00    +0.051 A 
ATOM      4  C   UNL     1       2.399   0.022  -0.021  0.00  0.00    +0.109 A 
ATOM      5  C   UNL     1       1.208  -0.681  -0.013  0.00  0.00    +0.061 A 
ATOM      6  C   UNL     1       0.002  -0.004   0.002  0.00  0.00    +0.130 A 
ENDROOT
BRANCH   6   7
ATOM      7  N   UNL     1      -1.270  -0.761   0.010  0.00  0.00    +0.057 N 
ATOM      8  O   UNL     1      -2.325  -0.170   0.023  0.00  0.00    -0.126 OA
ATOM      9  O   UNL     1      -1.254  -1.970   0.004  0.00  0.00    -0.126 OA
ENDBRANCH   6   7
BRANCH   4  10
ATOM     10  S   UNL     1       3.933  -0.845  -0.041  0.00  0.00    +0.056 S 
ATOM     11  O   UNL     1       3.668  -2.126  -0.596  0.00  0.00    -0.153 OA
ATOM     12  O   UNL     1       4.894   0.042  -0.596  0.00  0.00    -0.153 OA
BRANCH  10  13
ATOM     13  N   UNL     1       4.374  -1.095   1.536  0.00  0.00    -0.204 NA
ATOM     14  H   UNL     1       4.900  -1.874   1.775  0.00  0.00    +0.144 HD
ATOM     15  H   UNL     1       4.108  -0.461   2.220  0.00  0.00    +0.144 HD
ENDBRANCH  10  13
ENDBRANCH   4  10
BRANCH   2  16
ATOM     16  N   UNL     1       1.163   3.483   0.009  0.00  0.00    -0.340 N 
ATOM     17  H   UNL     1       1.997   3.977   0.004  0.00  0.00    +0.146 HD
BRANCH  16  18
ATOM     18  C   UNL     1      -0.111   4.200   0.025  0.00  0.00    +0.073 C 
ATOM     19  C   UNL     1      -0.630   4.392  -1.403  0.00  0.00    -0.007 C 
ATOM     20  C   UNL     1      -2.017   5.026  -1.343  0.00  0.00    +0.003 C 
ATOM     21  C   UNL     1      -2.001   6.363  -0.615  0.00  0.00    +0.001 C 
ATOM     22  C   UNL     1      -1.281   6.294   0.724  0.00  0.00    +0.003 C 
ATOM     23  C   UNL     1       0.067   5.591   0.636  0.00  0.00    -0.007 C 
ATOM     24  C   UNL     1       1.067   6.392  -0.187  0.00  0.00    -0.073 C 
ATOM     25  N   UNL     1       0.688   6.505  -1.592  0.00  0.00    +0.382 N 
ATOM     26  C   UNL     1       0.342   5.232  -2.213  0.00  0.00    -0.073 C 
ATOM     27  H   UNL     1      -0.065   7.167  -1.698  0.00  0.00    -0.081 HD
BRANCH  25  28
ATOM     28  C   UNL     1       1.831   7.069  -2.323  0.00  0.00    -0.069 C 
ATOM     29  C   UNL     1       1.681   8.485  -2.883  0.00  0.00    -0.017 C 
ATOM     30  C   UNL     1       1.670   7.283  -3.829  0.00  0.00    -0.017 C 
ENDBRANCH  25  28
ENDBRANCH  16  18
ENDBRANCH   2  16
TORSDOF 6
