REMARK  Name = ZINC09110612
REMARK  15 active torsions:
REMARK  status: ('A' for Active; 'I' for Inactive)
REMARK    1  A    between atoms: C_1  and  C_2
REMARK    2  A    between atoms: C_2  and  O_3
REMARK    3  A    between atoms: O_3  and  C_4
REMARK    4  A    between atoms: C_9  and  C_10
REMARK    5  A    between atoms: C_12  and  C_28
REMARK    6  A    between atoms: C_17  and  S_21
REMARK    7  A    between atoms: C_18  and  C_19
REMARK    8  A    between atoms: S_21  and  C_22
REMARK    9  A    between atoms: C_22  and  C_23
REMARK   10  A    between atoms: C_23  and  O_25
REMARK   11  A    between atoms: O_25  and  C_26
REMARK   12  A    between atoms: C_26  and  C_27
REMARK   13  A    between atoms: C_28  and  O_30
REMARK   14  A    between atoms: O_30  and  C_31
REMARK   15  A    between atoms: C_31  and  C_32
REMARK                            x       y       z     vdW  Elec       q    Type
REMARK                         _______ _______ _______ _____ _____    ______ ____
ROOT
ATOM      1  C   UNL     1       2.280  -1.581  -2.983  0.00  0.00    +0.088 C 
ATOM      2  C   UNL     1       3.447  -1.989  -3.885  0.00  0.00    +0.200 C 
ATOM      3  C   UNL     1       3.233  -1.436  -5.269  0.00  0.00    +0.262 C 
ATOM      4  O   UNL     1       4.295  -1.036  -5.992  0.00  0.00    -0.270 OA
ATOM      5  N   UNL     1       2.042  -1.339  -5.779  0.00  0.00    -0.205 NA
ATOM      6  C   UNL     1       0.935  -1.684  -5.082  0.00  0.00    +0.115 C 
ATOM      7  C   UNL     1       0.982  -1.833  -3.712  0.00  0.00    +0.070 C 
ENDROOT
BRANCH   1  13
ATOM      8  C   UNL     1       1.307  -2.253  -0.772  0.00  0.00    +0.124 A 
ATOM      9  C   UNL     1       1.338  -3.008   0.392  0.00  0.00    +0.046 A 
ATOM     10  C   UNL     1       2.372  -3.898   0.609  0.00  0.00    +0.004 A 
ATOM     11  C   UNL     1       3.376  -4.036  -0.332  0.00  0.00    +0.001 A 
ATOM     12  C   UNL     1       3.348  -3.284  -1.492  0.00  0.00    +0.008 A 
ATOM     13  C   UNL     1       2.313  -2.397  -1.716  0.00  0.00    +0.004 A 
BRANCH   8  14
ATOM     14  O   UNL     1       0.291  -1.377  -0.988  0.00  0.00    -0.492 OA
BRANCH  14  16
ATOM     15  C   UNL     1      -1.745  -0.227  -0.374  0.00  0.00    +0.048 C 
ATOM     16  C   UNL     1      -0.688  -1.251   0.046  0.00  0.00    +0.225 C 
ENDBRANCH  14  16
ENDBRANCH   8  14
ENDBRANCH   1  13
BRANCH   7  17
ATOM     17  C   UNL     1      -0.188  -2.227  -2.987  0.00  0.00    +0.098 C 
ATOM     18  N   UNL     1      -1.116  -2.540  -2.412  0.00  0.00    -0.191 NA
ENDBRANCH   7  17
BRANCH   2  19
ATOM     19  C   UNL     1       3.528  -3.493  -3.953  0.00  0.00    +0.320 C 
ATOM     20  O   UNL     1       2.519  -4.155  -3.900  0.00  0.00    -0.250 OA
BRANCH  19  21
ATOM     21  O   UNL     1       4.721  -4.096  -4.072  0.00  0.00    -0.464 OA
BRANCH  21  22
ATOM     22  C   UNL     1       4.723  -5.524  -4.130  0.00  0.00    +0.229 C 
ATOM     23  C   UNL     1       6.162  -6.027  -4.264  0.00  0.00    +0.048 C 
ENDBRANCH  21  22
ENDBRANCH  19  21
ENDBRANCH   2  19
BRANCH   6  24
ATOM     24  S   UNL     1      -0.586  -1.942  -5.934  0.00  0.00    -0.094 S 
BRANCH  24  25
ATOM     25  C   UNL     1      -0.171  -1.637  -7.674  0.00  0.00    +0.196 C 
BRANCH  25  26
ATOM     26  C   UNL     1      -1.401  -1.826  -8.524  0.00  0.00    +0.317 C 
ATOM     27  O   UNL     1      -2.450  -2.136  -8.009  0.00  0.00    -0.250 OA
BRANCH  26  28
ATOM     28  O   UNL     1      -1.332  -1.652  -9.853  0.00  0.00    -0.464 OA
BRANCH  28  29
ATOM     29  C   UNL     1      -2.536  -1.848 -10.597  0.00  0.00    +0.229 C 
ATOM     30  C   UNL     1      -2.263  -1.606 -12.083  0.00  0.00    +0.048 C 
ENDBRANCH  28  29
ENDBRANCH  26  28
ENDBRANCH  25  26
ENDBRANCH  24  25
ENDBRANCH   6  24
TORSDOF 12
