REMARK  Name = ZINC59015788
REMARK  8 active torsions:
REMARK  status: ('A' for Active; 'I' for Inactive)
REMARK    1  A    between atoms: C_2  and  C_3
REMARK    2  A    between atoms: C_3  and  S_4
REMARK    3  A    between atoms: S_4  and  C_5
REMARK    4  A    between atoms: C_11  and  C_13
REMARK    5  A    between atoms: C_13  and  S_14
REMARK    6  A    between atoms: S_14  and  C_15
REMARK    7  A    between atoms: N_20  and  N_21
REMARK    8  A    between atoms: C_22  and  C_23
REMARK                            x       y       z     vdW  Elec       q    Type
REMARK                         _______ _______ _______ _____ _____    ______ ____
ROOT
ATOM      1  C   UNL     1     -11.025  -6.613  -0.011  0.00  0.00    +0.211 A 
ATOM      2  N   UNL     1     -12.102  -6.845   0.747  0.00  0.00    -0.186 NA
ATOM      3  C   UNL     1     -12.915  -7.670   0.122  0.00  0.00    +0.232 A 
ATOM      4  N   UNL     1     -12.356  -7.984  -1.067  0.00  0.00    -0.245 N 
ATOM      5  N   UNL     1     -11.140  -7.285  -1.131  0.00  0.00    -0.144 NA
ATOM      6  N   UNL     1     -14.126  -8.136   0.599  0.00  0.00    -0.205 N 
ATOM      7  H   UNL     1     -14.657  -8.745   0.062  0.00  0.00    +0.177 HD
ATOM      8  H   UNL     1     -12.725  -8.572  -1.744  0.00  0.00    +0.192 HD
ENDROOT
BRANCH   6   9
ATOM      9  N   UNL     1     -14.588  -7.726   1.857  0.00  0.00    -0.188 NA
ATOM     10  C   UNL     1     -15.725  -8.163   2.304  0.00  0.00    +0.139 C 
BRANCH  10  11
ATOM     11  C   UNL     1     -16.211  -7.732   3.628  0.00  0.00    +0.014 A 
ATOM     12  C   UNL     1     -17.432  -8.205   4.116  0.00  0.00    +0.011 A 
ATOM     13  C   UNL     1     -17.881  -7.798   5.355  0.00  0.00    +0.002 A 
ATOM     14  C   UNL     1     -17.125  -6.924   6.116  0.00  0.00    +0.021 A 
ATOM     15  C   UNL     1     -15.914  -6.451   5.641  0.00  0.00    +0.060 A 
ATOM     16  C   UNL     1     -15.449  -6.854   4.404  0.00  0.00    +0.068 A 
ATOM     17 CL   UNL     1     -13.926  -6.267   3.812  0.00  0.00    -0.081 Cl
ATOM     18 CL   UNL     1     -14.974  -5.354   6.605  0.00  0.00    -0.082 Cl
ENDBRANCH  10  11
ENDBRANCH   6   9
BRANCH   1  19
ATOM     19  S   UNL     1      -9.674  -5.569   0.422  0.00  0.00    -0.075 S 
BRANCH  19  20
ATOM     20  C   UNL     1      -8.563  -5.673  -1.008  0.00  0.00    +0.173 C 
BRANCH  20  27
ATOM     21  C   UNL     1      -2.999  -2.535  -1.381  0.00  0.00    +0.160 A 
ATOM     22  N   UNL     1      -3.874  -2.524  -0.386  0.00  0.00    -0.133 NA
ATOM     23  N   UNL     1      -4.944  -3.190  -0.431  0.00  0.00    -0.125 NA
ATOM     24  C   UNL     1      -5.259  -3.940  -1.474  0.00  0.00    +0.189 A 
ATOM     25  S   UNL     1      -3.835  -3.638  -2.517  0.00  0.00    -0.024 S 
ATOM     26  N   UNL     1      -6.380  -4.735  -1.698  0.00  0.00    -0.263 N 
ATOM     27  C   UNL     1      -7.349  -4.813  -0.764  0.00  0.00    +0.229 C 
ATOM     28  O   UNL     1      -7.244  -4.191   0.272  0.00  0.00    -0.275 OA
ATOM     29  H   UNL     1      -6.465  -5.232  -2.527  0.00  0.00    +0.157 HD
BRANCH  21  30
ATOM     30  S   UNL     1      -1.457  -1.697  -1.543  0.00  0.00    -0.093 S 
BRANCH  30  31
ATOM     31  C   UNL     1      -1.293  -0.775   0.010  0.00  0.00    +0.103 C 
BRANCH  31  33
ATOM     32  C   UNL     1      -0.016   1.306   0.009  0.00  0.00    +0.005 C 
ATOM     33  C   UNL     1       0.002  -0.004   0.002  0.00  0.00    -0.023 C 
ENDBRANCH  31  33
ENDBRANCH  30  31
ENDBRANCH  21  30
ENDBRANCH  20  27
ENDBRANCH  19  20
ENDBRANCH   1  19
TORSDOF 8
