REMARK  Name = ZINC13056786
REMARK  6 active torsions:
REMARK  status: ('A' for Active; 'I' for Inactive)
REMARK    1  A    between atoms: C_1  and  C_2
REMARK    2  A    between atoms: C_5  and  C_14
REMARK    3  A    between atoms: C_12  and  C_13
REMARK    4  A    between atoms: C_14  and  N_15
REMARK    5  A    between atoms: C_22  and  C_26
REMARK    6  A    between atoms: C_23  and  C_25
REMARK                            x       y       z     vdW  Elec       q    Type
REMARK                         _______ _______ _______ _____ _____    ______ ____
ROOT
ATOM      1  C   UNL     1       2.429   1.003  -0.015  0.00  0.00    +0.162 C 
ENDROOT
BRANCH   1   6
ATOM      2  C   UNL     1       5.034   5.247  -1.675  0.00  0.00    +0.044 C 
ATOM      3  C   UNL     1       4.739   3.897  -2.278  0.00  0.00    -0.047 A 
ATOM      4  C   UNL     1       4.006   2.974  -1.565  0.00  0.00    +0.015 A 
ATOM      5  C   UNL     1       3.730   1.726  -2.131  0.00  0.00    +0.023 A 
ATOM      6  C   UNL     1       2.959   0.718  -1.397  0.00  0.00    -0.010 A 
ATOM      7  C   UNL     1       2.730  -0.477  -1.999  0.00  0.00    +0.098 A 
ATOM      8  C   UNL     1       3.237  -0.718  -3.294  0.00  0.00    +0.338 A 
ATOM      9  O   UNL     1       3.025  -1.795  -3.823  0.00  0.00    -0.245 OA
ATOM     10  O   UNL     1       3.946   0.208  -3.958  0.00  0.00    -0.422 OA
ATOM     11  C   UNL     1       4.209   1.416  -3.416  0.00  0.00    +0.140 A 
ATOM     12  C   UNL     1       4.946   2.362  -4.116  0.00  0.00    +0.050 A 
ATOM     13  C   UNL     1       5.206   3.592  -3.548  0.00  0.00    -0.044 A 
ATOM     14  C   UNL     1       6.005   4.614  -4.314  0.00  0.00    +0.044 C 
ENDBRANCH   1   6
BRANCH   1  15
ATOM     15  N   UNL     1       1.814  -0.209   0.531  0.00  0.00    -0.294 N 
ATOM     16  C   UNL     1       2.579  -1.129   1.169  0.00  0.00    +0.206 A 
ATOM     17  N   UNL     1       2.083  -2.225   1.669  0.00  0.00    -0.202 NA
ATOM     18  C   UNL     1       0.771  -2.500   1.586  0.00  0.00    +0.235 A 
ATOM     19  C   UNL     1      -0.068  -1.591   0.941  0.00  0.00    +0.119 A 
ATOM     20  C   UNL     1       0.482  -0.409   0.400  0.00  0.00    +0.266 A 
ATOM     21  O   UNL     1      -0.222   0.406  -0.171  0.00  0.00    -0.267 OA
ATOM     22  C   UNL     1      -1.418  -2.173   1.014  0.00  0.00    +0.118 A 
ATOM     23  C   UNL     1      -1.272  -3.352   1.681  0.00  0.00    +0.119 A 
ATOM     24  O   UNL     1       0.015  -3.526   2.007  0.00  0.00    -0.441 OA
ATOM     25  C   UNL     1      -2.388  -4.313   2.001  0.00  0.00    +0.087 C 
BRANCH  22  26
ATOM     26  C   UNL     1      -2.663  -1.601   0.480  0.00  0.00    +0.391 C 
ATOM     27  O   UNL     1      -3.014  -1.860  -0.655  0.00  0.00    -0.240 OA
ATOM     28  O   UNL     1      -3.416  -0.789   1.249  0.00  0.00    -0.240 OA
ENDBRANCH  22  26
ENDBRANCH   1  15
TORSDOF 3
