REMARK  Name = ZINC12543812
REMARK  6 active torsions:
REMARK  status: ('A' for Active; 'I' for Inactive)
REMARK    1  A    between atoms: C_1  and  C_2
REMARK    2  A    between atoms: C_5  and  N_8
REMARK    3  A    between atoms: C_11  and  C_16
REMARK    4  A    between atoms: C_16  and  S_17
REMARK    5  A    between atoms: S_17  and  C_18
REMARK    6  A    between atoms: N_23  and  C_24
REMARK                            x       y       z     vdW  Elec       q    Type
REMARK                         _______ _______ _______ _____ _____    ______ ____
ROOT
ATOM      1  N   UNL     1       1.162   3.484   0.009  0.00  0.00    -0.284 N 
ATOM      2  C   UNL     1       2.347   4.188   0.106  0.00  0.00    +0.224 A 
ATOM      3  N   UNL     1       2.328   5.515   0.208  0.00  0.00    -0.198 NA
ATOM      4  C   UNL     1       3.461   6.188   0.306  0.00  0.00    +0.146 A 
ATOM      5  N   UNL     1       4.617   5.548   0.292  0.00  0.00    -0.199 NA
ATOM      6  C   UNL     1       4.644   4.222   0.185  0.00  0.00    +0.217 A 
ATOM      7  N   UNL     1       3.507   3.541   0.092  0.00  0.00    -0.181 NA
ATOM      8  N   UNL     1       5.852   3.554   0.172  0.00  0.00    -0.327 N 
ATOM      9  H   UNL     1       0.320   3.960  -0.061  0.00  0.00    +0.155 HD
ATOM     10  H   UNL     1       5.872   2.588   0.094  0.00  0.00    +0.145 HD
ATOM     11  H   UNL     1       6.682   4.052   0.240  0.00  0.00    +0.145 HD
ENDROOT
BRANCH   1  16
ATOM     12  C   UNL     1       1.221  -2.188   0.024  0.00  0.00    +0.044 C 
ATOM     13  C   UNL     1       1.205  -0.681   0.021  0.00  0.00    -0.050 A 
ATOM     14  C   UNL     1       2.143   0.021   0.755  0.00  0.00    +0.005 A 
ATOM     15  C   UNL     1       2.132   1.402   0.754  0.00  0.00    +0.023 A 
ATOM     16  C   UNL     1       1.177   2.086   0.013  0.00  0.00    +0.034 A 
ATOM     17  C   UNL     1       0.236   1.378  -0.725  0.00  0.00    +0.023 A 
ATOM     18  C   UNL     1       0.253  -0.003  -0.718  0.00  0.00    +0.005 A 
ENDBRANCH   1  16
BRANCH   4  19
ATOM     19  C   UNL     1       3.434   7.690   0.428  0.00  0.00    +0.152 C 
BRANCH  19  20
ATOM     20  S   UNL     1       3.481   8.432  -1.227  0.00  0.00    -0.089 S 
BRANCH  20  21
ATOM     21  C   UNL     1       3.445  10.166  -0.918  0.00  0.00    +0.160 A 
ATOM     22  N   UNL     1       3.396  10.809   0.233  0.00  0.00    -0.133 NA
ATOM     23  N   UNL     1       3.375  12.185   0.247  0.00  0.00    -0.125 NA
ATOM     24  C   UNL     1       3.405  12.854  -0.889  0.00  0.00    +0.182 A 
ATOM     25  S   UNL     1       3.472  11.523  -2.079  0.00  0.00    -0.025 S 
ATOM     26  N   UNL     1       3.393  14.227  -1.103  0.00  0.00    -0.325 N 
ATOM     27  C   UNL     1       3.340  15.146   0.038  0.00  0.00    +0.127 C 
ATOM     28  H   UNL     1       3.420  14.577  -2.007  0.00  0.00    +0.148 HD
ENDBRANCH  20  21
ENDBRANCH  19  20
ENDBRANCH   4  19
TORSDOF 4
