REMARK  Name = ZINC63141635
REMARK  8 active torsions:
REMARK  status: ('A' for Active; 'I' for Inactive)
REMARK    1  A    between atoms: C_1  and  C_2
REMARK    2  A    between atoms: C_2  and  C_3
REMARK    3  A    between atoms: C_3  and  C_4
REMARK    4  A    between atoms: C_4  and  C_5
REMARK    5  A    between atoms: C_5  and  N_6
REMARK    6  A    between atoms: C_26  and  C_28
REMARK    7  A    between atoms: C_33  and  O_34
REMARK    8  A    between atoms: O_34  and  C_35
REMARK                            x       y       z     vdW  Elec       q    Type
REMARK                         _______ _______ _______ _____ _____    ______ ____
ROOT
ATOM      1  N   UNL     1      -2.828  -4.058   0.007  0.00  0.00    -0.291 N 
ATOM      2  C   UNL     1      -2.823  -4.825  -1.252  0.00  0.00    +0.203 C 
ATOM      3  C   UNL     1      -1.778  -5.915  -1.147  0.00  0.00    +0.234 C 
ATOM      4  O   UNL     1      -1.017  -6.155  -2.060  0.00  0.00    -0.274 OA
ATOM      5  N   UNL     1      -1.732  -6.620   0.032  0.00  0.00    -0.279 N 
ATOM      6  C   UNL     1      -2.752  -6.279   1.000  0.00  0.00    +0.167 C 
ATOM      7  C   UNL     1      -2.807  -4.781   1.166  0.00  0.00    +0.237 C 
ATOM      8  O   UNL     1      -2.835  -4.253   2.257  0.00  0.00    -0.274 OA
ATOM      9  C   UNL     1      -2.753  -7.001   2.322  0.00  0.00    +0.065 C 
ATOM     10  C   UNL     1      -1.498  -7.819   2.459  0.00  0.00    -0.034 C 
ATOM     11  C   UNL     1      -0.684  -8.035   3.484  0.00  0.00    -0.001 A 
ATOM     12  C   UNL     1      -0.732  -7.588   4.885  0.00  0.00    +0.010 A 
ATOM     13  C   UNL     1       0.292  -7.995   5.681  0.00  0.00    +0.001 A 
ATOM     14  C   UNL     1       1.348  -8.792   5.228  0.00  0.00    +0.002 A 
ATOM     15  C   UNL     1       1.470  -9.253   3.957  0.00  0.00    +0.026 A 
ATOM     16  C   UNL     1       0.451  -8.894   3.028  0.00  0.00    +0.043 A 
ATOM     17  N   UNL     1       0.313  -9.200   1.773  0.00  0.00    -0.375 N 
ATOM     18  C   UNL     1      -0.932  -8.601   1.276  0.00  0.00    +0.131 C 
ATOM     19  C   UNL     1      -0.648  -7.579   0.186  0.00  0.00    +0.137 C 
ATOM     20  H   UNL     1       0.931  -9.734   1.250  0.00  0.00    +0.160 HD
ENDROOT
BRANCH  19  21
ATOM     21  C   UNL     1       0.608  -6.842   0.574  0.00  0.00    +0.017 A 
ATOM     22  C   UNL     1       0.523  -5.624   1.220  0.00  0.00    +0.009 A 
ATOM     23  C   UNL     1       1.674  -4.947   1.576  0.00  0.00    +0.001 A 
ATOM     24  C   UNL     1       2.914  -5.487   1.287  0.00  0.00    +0.004 A 
ATOM     25  C   UNL     1       3.005  -6.705   0.641  0.00  0.00    +0.046 A 
ATOM     26  C   UNL     1       1.850  -7.389   0.288  0.00  0.00    +0.125 A 
BRANCH  26  27
ATOM     27  O   UNL     1       1.937  -8.589  -0.343  0.00  0.00    -0.495 OA
ATOM     28  C   UNL     1       3.249  -9.091  -0.605  0.00  0.00    +0.277 C 
ENDBRANCH  26  27
ENDBRANCH  19  21
BRANCH   1  29
ATOM     29  C   UNL     1      -2.848  -2.593   0.015  0.00  0.00    +0.108 C 
BRANCH  29  30
ATOM     30  C   UNL     1      -1.413  -2.063   0.004  0.00  0.00    +0.019 C 
BRANCH  30  31
ATOM     31  C   UNL     1      -1.433  -0.534   0.013  0.00  0.00    +0.001 C 
BRANCH  31  33
ATOM     32  C   UNL     1      -0.019   1.526   0.010  0.00  0.00    +0.004 C 
ATOM     33  C   UNL     1       0.002  -0.004   0.002  0.00  0.00    -0.003 C 
ENDBRANCH  31  33
ENDBRANCH  30  31
ENDBRANCH  29  30
ENDBRANCH   1  29
TORSDOF 6
