REMARK  Name = ZINC59644515
REMARK  6 active torsions:
REMARK  status: ('A' for Active; 'I' for Inactive)
REMARK    1  A    between atoms: C_1  and  O_2
REMARK    2  A    between atoms: O_2  and  C_3
REMARK    3  A    between atoms: C_4  and  C_11
REMARK    4  A    between atoms: N_12  and  N_13
REMARK    5  A    between atoms: C_14  and  C_16
REMARK    6  A    between atoms: C_16  and  C_17
REMARK                            x       y       z     vdW  Elec       q    Type
REMARK                         _______ _______ _______ _____ _____    ______ ____
ROOT
ATOM      1  N   UNL     1      -3.523   0.270  -1.319  0.00  0.00    -0.207 N 
ATOM      2  C   UNL     1      -4.128   0.867  -0.273  0.00  0.00    +0.238 C 
ATOM      3  O   UNL     1      -3.490   1.144   0.721  0.00  0.00    -0.274 OA
ATOM      4  H   UNL     1      -4.034   0.048  -2.113  0.00  0.00    +0.177 HD
ENDROOT
BRANCH   1   6
ATOM      5  C   UNL     1      -1.574  -0.608  -2.265  0.00  0.00    +0.142 C 
ATOM      6  N   UNL     1      -2.157  -0.032  -1.258  0.00  0.00    -0.188 NA
BRANCH   5   8
ATOM      7  C   UNL     1       0.606  -0.607  -1.055  0.00  0.00    +0.147 A 
ATOM      8  C   UNL     1      -0.136  -0.925  -2.201  0.00  0.00    +0.039 A 
ATOM      9  C   UNL     1       0.495  -1.545  -3.282  0.00  0.00    +0.028 A 
ATOM     10  C   UNL     1       1.841  -1.840  -3.216  0.00  0.00    +0.020 A 
ATOM     11  C   UNL     1       2.570  -1.524  -2.082  0.00  0.00    +0.039 A 
ATOM     12  C   UNL     1       1.958  -0.905  -1.007  0.00  0.00    +0.084 A 
ATOM     13 CL   UNL     1       2.884  -0.506   0.406  0.00  0.00    -0.080 Cl
ATOM     14 BR   UNL     1       2.694  -2.679  -4.681  0.00  0.00    -0.050 Br
BRANCH   7  16
ATOM     15  C   UNL     1      -0.017   1.425   0.010  0.00  0.00    +0.277 C 
ATOM     16  O   UNL     1       0.002  -0.004   0.002  0.00  0.00    -0.493 OA
ENDBRANCH   7  16
ENDBRANCH   5   8
ENDBRANCH   1   6
BRANCH   2  17
ATOM     17  C   UNL     1      -5.599   1.192  -0.338  0.00  0.00    +0.153 C 
BRANCH  17  18
ATOM     18  C   UNL     1      -6.025   1.851   0.948  0.00  0.00    +0.059 A 
ATOM     19  C   UNL     1      -6.646   3.055   0.954  0.00  0.00    +0.072 A 
ATOM     20  S   UNL     1      -6.889   3.296   2.707  0.00  0.00    -0.061 S 
ATOM     21  C   UNL     1      -6.187   1.862   3.239  0.00  0.00    +0.156 A 
ATOM     22  N   UNL     1      -5.815   1.277   2.120  0.00  0.00    -0.230 NA
ATOM     23  N   UNL     1      -6.040   1.406   4.540  0.00  0.00    -0.338 N 
ATOM     24  H   UNL     1      -6.366   1.940   5.281  0.00  0.00    +0.144 HD
ATOM     25  H   UNL     1      -5.611   0.552   4.709  0.00  0.00    +0.144 HD
ENDBRANCH  17  18
ENDBRANCH   2  17
TORSDOF 5
