REMARK  Name = ZINC63686676
REMARK  11 active torsions:
REMARK  status: ('A' for Active; 'I' for Inactive)
REMARK    1  A    between atoms: C_1  and  C_2
REMARK    2  A    between atoms: C_4  and  O_10
REMARK    3  A    between atoms: C_6  and  C_9
REMARK    4  A    between atoms: O_10  and  C_11
REMARK    5  A    between atoms: C_11  and  C_12
REMARK    6  A    between atoms: C_16  and  S_20
REMARK    7  A    between atoms: N_18  and  C_19
REMARK    8  A    between atoms: S_20  and  C_21
REMARK    9  A    between atoms: C_21  and  C_22
REMARK   10  A    between atoms: C_29  and  O_30
REMARK   11  A    between atoms: O_30  and  C_31
REMARK                            x       y       z     vdW  Elec       q    Type
REMARK                         _______ _______ _______ _____ _____    ______ ____
ROOT
ATOM      1  C   UNL     1       0.055  -4.860  -3.652  0.00  0.00    +0.178 C 
ATOM      2  N   UNL     1       1.317  -4.399  -4.274  0.00  0.00    -0.234 NA
ATOM      3  N   UNL     1       0.985  -4.233  -5.698  0.00  0.00    -0.229 NA
ATOM      4  C   UNL     1      -0.397  -3.689  -5.660  0.00  0.00    +0.200 C 
ATOM      5  N   UNL     1      -1.041  -4.408  -4.535  0.00  0.00    -0.261 NA
ATOM      6  C   UNL     1      -1.831  -5.548  -5.020  0.00  0.00    +0.109 C 
ATOM      7  H   UNL     1       1.621  -3.526  -3.870  0.00  0.00    +0.142 HD
ATOM      8  H   UNL     1       1.012  -5.119  -6.181  0.00  0.00    +0.143 HD
ENDROOT
BRANCH   1   9
ATOM      9  C   UNL     1      -0.102  -4.241  -2.262  0.00  0.00    +0.265 C 
BRANCH   9  10
ATOM     10  O   UNL     1      -0.079  -2.816  -2.370  0.00  0.00    -0.489 OA
BRANCH  10  14
ATOM     11  C   UNL     1      -0.309   1.504  -0.111  0.00  0.00    +0.045 C 
ATOM     12  C   UNL     1      -0.325  -0.002  -0.077  0.00  0.00    -0.028 A 
ATOM     13  C   UNL     1      -0.193  -0.721  -1.250  0.00  0.00    +0.050 A 
ATOM     14  C   UNL     1      -0.207  -2.107  -1.218  0.00  0.00    +0.121 A 
ATOM     15  C   UNL     1      -0.353  -2.770  -0.008  0.00  0.00    +0.050 A 
ATOM     16  C   UNL     1      -0.485  -2.048   1.163  0.00  0.00    -0.028 A 
ATOM     17  C   UNL     1      -0.465  -0.665   1.129  0.00  0.00    +0.047 A 
ATOM     18 CL   UNL     1      -0.623   0.240   2.603  0.00  0.00    -0.083 Cl
ATOM     19  C   UNL     1      -0.643  -2.767   2.478  0.00  0.00    +0.045 C 
ENDBRANCH  10  14
ENDBRANCH   9  10
ENDBRANCH   1   9
BRANCH   4  20
ATOM     20  S   UNL     1      -1.260  -4.040  -7.217  0.00  0.00    -0.119 S 
BRANCH  20  21
ATOM     21  C   UNL     1      -0.542  -2.860  -8.392  0.00  0.00    +0.125 C 
BRANCH  21  22
ATOM     22  C   UNL     1      -1.237  -2.990  -9.723  0.00  0.00    +0.030 A 
ATOM     23  N   UNL     1      -0.954  -4.059 -10.504  0.00  0.00    -0.354 N 
ATOM     24  C   UNL     1      -1.555  -4.237 -11.731  0.00  0.00    +0.093 A 
ATOM     25  C   UNL     1      -2.485  -3.290 -12.191  0.00  0.00    +0.049 A 
ATOM     26  C   UNL     1      -3.100  -3.458 -13.432  0.00  0.00    +0.014 A 
ATOM     27  C   UNL     1      -2.793  -4.547 -14.199  0.00  0.00    +0.004 A 
ATOM     28  C   UNL     1      -1.876  -5.488 -13.755  0.00  0.00    +0.048 A 
ATOM     29  C   UNL     1      -1.255  -5.343 -12.529  0.00  0.00    +0.144 A 
ATOM     30  C   UNL     1      -2.788  -2.130 -11.334  0.00  0.00    +0.190 A 
ATOM     31  O   UNL     1      -3.588  -1.279 -11.684  0.00  0.00    -0.287 OA
ATOM     32  C   UNL     1      -2.123  -2.039 -10.089  0.00  0.00    +0.073 A 
ATOM     33  H   UNL     1      -0.312  -4.716 -10.192  0.00  0.00    +0.166 HD
BRANCH  29  34
ATOM     34  O   UNL     1      -0.357  -6.271 -12.103  0.00  0.00    -0.493 OA
ATOM     35  C   UNL     1      -0.102  -7.375 -12.974  0.00  0.00    +0.277 C 
ENDBRANCH  29  34
ENDBRANCH  21  22
ENDBRANCH  20  21
ENDBRANCH   4  20
TORSDOF 7
