REMARK  Name = ZINC54681905
REMARK  5 active torsions:
REMARK  status: ('A' for Active; 'I' for Inactive)
REMARK    1  A    between atoms: C_4  and  C_7
REMARK    2  A    between atoms: C_7  and  C_9
REMARK    3  A    between atoms: C_7  and  N_23
REMARK    4  A    between atoms: C_9  and  C_11
REMARK    5  A    between atoms: C_9  and  O_22
REMARK                            x       y       z     vdW  Elec       q    Type
REMARK                         _______ _______ _______ _____ _____    ______ ____
ROOT
ATOM      1  C   UNL     1       4.019  -1.168  -1.464  0.00  0.00    +0.134 C 
ENDROOT
BRANCH   1   2
ATOM      2  C   UNL     1       5.270  -2.008  -1.461  0.00  0.00    -0.016 A 
ATOM      3  C   UNL     1       6.494  -1.424  -1.732  0.00  0.00    +0.055 A 
ATOM      4  C   UNL     1       7.647  -2.194  -1.730  0.00  0.00    +0.164 A 
ATOM      5  C   UNL     1       7.570  -3.554  -1.453  0.00  0.00    +0.176 A 
ATOM      6  C   UNL     1       6.339  -4.134  -1.183  0.00  0.00    +0.063 A 
ATOM      7  C   UNL     1       5.193  -3.359  -1.183  0.00  0.00    +0.025 A 
ATOM      8 BR   UNL     1       6.228  -5.984  -0.810  0.00  0.00    -0.046 Br
ATOM      9  O   UNL     1       8.691  -4.326  -1.439  0.00  0.00    -0.484 OA
ATOM     10  C   UNL     1       9.852  -3.787  -2.078  0.00  0.00    +0.270 C 
ATOM     11  C   UNL     1      10.018  -2.330  -1.623  0.00  0.00    +0.270 C 
ATOM     12  O   UNL     1       8.844  -1.605  -2.003  0.00  0.00    -0.485 OA
ENDBRANCH   1   2
BRANCH   1  13
ATOM     13  O   UNL     1       2.926  -1.943  -1.960  0.00  0.00    -0.389 OA
ATOM     14  H   UNL     1       2.737  -2.735  -1.440  0.00  0.00    +0.210 HD
ENDBRANCH   1  13
BRANCH   1  15
ATOM     15  C   UNL     1       3.711  -0.707  -0.038  0.00  0.00    -0.011 C 
BRANCH  15  19
ATOM     16  C   UNL     1      -0.017   1.378   0.010  0.00  0.00    +0.000 A 
ATOM     17  C   UNL     1       1.171   2.086   0.002  0.00  0.00    +0.000 A 
ATOM     18  C   UNL     1       2.377   1.411  -0.013  0.00  0.00    +0.002 A 
ATOM     19  C   UNL     1       2.396   0.029  -0.020  0.00  0.00    -0.059 A 
ATOM     20  C   UNL     1       1.208  -0.679  -0.012  0.00  0.00    +0.002 A 
ATOM     21  C   UNL     1       0.002  -0.004   0.002  0.00  0.00    +0.000 A 
ENDBRANCH  15  19
BRANCH  15  22
ATOM     22  N   UNL     1       3.630  -1.877   0.848  0.00  0.00    +0.385 N 
ATOM     23  H   UNL     1       2.897  -2.491   0.527  0.00  0.00    -0.089 HD
ATOM     24  H   UNL     1       4.510  -2.369   0.836  0.00  0.00    -0.089 HD
ATOM     25  H   UNL     1       3.427  -1.573   1.788  0.00  0.00    -0.089 HD
ENDBRANCH  15  22
ENDBRANCH   1  15
TORSDOF 5
