REMARK  Name = ZINC38050105
REMARK  5 active torsions:
REMARK  status: ('A' for Active; 'I' for Inactive)
REMARK    1  A    between atoms: C_4  and  S_10
REMARK    2  A    between atoms: C_6  and  N_7
REMARK    3  A    between atoms: S_10  and  N_13
REMARK    4  A    between atoms: N_13  and  C_14
REMARK    5  A    between atoms: C_20  and  N_22
REMARK                            x       y       z     vdW  Elec       q    Type
REMARK                         _______ _______ _______ _____ _____    ______ ____
ROOT
ATOM      1  S   UNL     1       4.036  -0.862  -0.004  0.00  0.00    +0.060 S 
ATOM      2  O   UNL     1       3.709  -2.237  -0.155  0.00  0.00    -0.153 OA
ATOM      3  O   UNL     1       3.082   0.107   0.408  0.00  0.00    -0.153 OA
ENDROOT
BRANCH   1   7
ATOM      4  C   UNL     1       7.450  -0.659   2.962  0.00  0.00    +0.034 A 
ATOM      5  C   UNL     1       7.499  -1.560   1.914  0.00  0.00    +0.024 A 
ATOM      6  C   UNL     1       6.456  -1.622   1.008  0.00  0.00    +0.067 A 
ATOM      7  C   UNL     1       5.365  -0.783   1.150  0.00  0.00    +0.126 A 
ATOM      8  C   UNL     1       5.317   0.116   2.198  0.00  0.00    +0.062 A 
ATOM      9  C   UNL     1       6.360   0.178   3.104  0.00  0.00    +0.128 A 
ATOM     10 CL   UNL     1       6.517  -2.752  -0.309  0.00  0.00    -0.082 Cl
BRANCH   9  11
ATOM     11  N   UNL     1       6.308   1.141   4.227  0.00  0.00    +0.056 N 
ATOM     12  O   UNL     1       7.220   1.196   5.019  0.00  0.00    -0.126 OA
ATOM     13  O   UNL     1       5.355   1.874   4.351  0.00  0.00    -0.126 OA
ENDBRANCH   9  11
ENDBRANCH   1   7
BRANCH   1  14
ATOM     14  N   UNL     1       4.627  -0.353  -1.466  0.00  0.00    -0.188 NA
ATOM     15  H   UNL     1       4.685  -0.975  -2.208  0.00  0.00    +0.148 HD
BRANCH  14  16
ATOM     16  C   UNL     1       5.061   1.035  -1.637  0.00  0.00    +0.062 C 
ATOM     17  C   UNL     1       3.910   1.862  -2.214  0.00  0.00    +0.019 C 
ATOM     18  C   UNL     1       3.498   1.286  -3.570  0.00  0.00    +0.001 C 
ATOM     19  C   UNL     1       4.691   1.333  -4.528  0.00  0.00    -0.001 C 
ATOM     20  C   UNL     1       5.841   0.506  -3.950  0.00  0.00    -0.015 C 
ATOM     21  C   UNL     1       6.253   1.082  -2.595  0.00  0.00    -0.056 C 
BRANCH  21  22
ATOM     22  N   UNL     1       7.358   0.288  -2.040  0.00  0.00    +0.381 N 
ATOM     23  H   UNL     1       7.059  -0.668  -1.923  0.00  0.00    -0.090 HD
ATOM     24  H   UNL     1       8.144   0.319  -2.672  0.00  0.00    -0.090 HD
ATOM     25  H   UNL     1       7.630   0.668  -1.146  0.00  0.00    -0.090 HD
ENDBRANCH  21  22
ENDBRANCH  14  16
ENDBRANCH   1  14
TORSDOF 5
