REMARK  Name = ZINC36346578
REMARK  17 active torsions:
REMARK  status: ('A' for Active; 'I' for Inactive)
REMARK    1  A    between atoms: C_1  and  C_2
REMARK    2  A    between atoms: C_2  and  C_3
REMARK    3  A    between atoms: C_3  and  C_4
REMARK    4  A    between atoms: C_4  and  C_5
REMARK    5  A    between atoms: C_5  and  C_7
REMARK    6  A    between atoms: C_5  and  O_35
REMARK    7  A    between atoms: C_7  and  N_8
REMARK    8  A    between atoms: N_8  and  C_9
REMARK    9  A    between atoms: N_8  and  C_13
REMARK   10  A    between atoms: C_9  and  C_10
REMARK   11  A    between atoms: C_10  and  O_11
REMARK   12  A    between atoms: O_11  and  C_12
REMARK   13  A    between atoms: C_13  and  C_14
REMARK   14  A    between atoms: C_15  and  C_34
REMARK   15  A    between atoms: N_17  and  C_27
REMARK   16  A    between atoms: C_18  and  O_19
REMARK   17  A    between atoms: O_19  and  C_20
REMARK                            x       y       z     vdW  Elec       q    Type
REMARK                         _______ _______ _______ _____ _____    ______ ____
ROOT
ATOM      1  C   UNL     1       2.649  -6.975  -5.393  0.00  0.00    +0.021 A 
ATOM      2  C   UNL     1       2.111  -6.894  -6.680  0.00  0.00    +0.065 A 
ATOM      3  N   UNL     1       3.014  -7.305  -7.534  0.00  0.00    -0.168 NA
ATOM      4  N   UNL     1       4.164  -7.665  -6.821  0.00  0.00    -0.200 N 
ATOM      5  C   UNL     1       3.920  -7.447  -5.500  0.00  0.00    +0.225 A 
ATOM      6  C   UNL     1       0.725  -6.414  -7.027  0.00  0.00    +0.068 C 
ENDROOT
BRANCH   4   7
ATOM      7  C   UNL     1       5.357  -8.155  -7.370  0.00  0.00    +0.069 A 
ATOM      8  C   UNL     1       6.580  -7.746  -6.855  0.00  0.00    +0.031 A 
ATOM      9  C   UNL     1       7.754  -8.231  -7.398  0.00  0.00    +0.040 A 
ATOM     10  C   UNL     1       7.712  -9.124  -8.455  0.00  0.00    +0.124 A 
ATOM     11  C   UNL     1       6.494  -9.533  -8.970  0.00  0.00    +0.040 A 
ATOM     12  C   UNL     1       5.318  -9.056  -8.426  0.00  0.00    +0.031 A 
ATOM     13  F   UNL     1       8.862  -9.596  -8.985  0.00  0.00    -0.205 F 
ENDBRANCH   4   7
BRANCH   1  14
ATOM     14  C   UNL     1       1.948  -6.599  -4.113  0.00  0.00    -0.036 C 
BRANCH  14  15
ATOM     15  N   UNL     1       2.192  -5.181  -3.819  0.00  0.00    +0.386 N 
ATOM     16  H   UNL     1       3.186  -5.016  -3.755  0.00  0.00    -0.081 HD
BRANCH  15  17
ATOM     17  C   UNL     1       1.555  -4.828  -2.543  0.00  0.00    -0.047 C 
BRANCH  17  18
ATOM     18  C   UNL     1       2.264  -5.556  -1.400  0.00  0.00    +0.098 C 
BRANCH  18  19
ATOM     19  O   UNL     1       2.023  -6.960  -1.508  0.00  0.00    -0.394 OA
ATOM     20  H   UNL     1       1.088  -7.204  -1.464  0.00  0.00    +0.210 HD
ENDBRANCH  18  19
BRANCH  18  21
ATOM     21  C   UNL     1       1.727  -5.048  -0.061  0.00  0.00    +0.029 C 
BRANCH  21  22
ATOM     22  C   UNL     1       2.522  -5.683   1.082  0.00  0.00    +0.002 C 
BRANCH  22  24
ATOM     23  C   UNL     1       2.779  -5.810   3.564  0.00  0.00    +0.004 C 
ATOM     24  C   UNL     1       1.985  -5.175   2.421  0.00  0.00    -0.003 C 
ENDBRANCH  22  24
ENDBRANCH  21  22
ENDBRANCH  18  21
ENDBRANCH  17  18
ENDBRANCH  15  17
BRANCH  15  25
ATOM     25  C   UNL     1       1.628  -4.354  -4.894  0.00  0.00    -0.050 C 
BRANCH  25  26
ATOM     26  C   UNL     1       1.992  -2.887  -4.654  0.00  0.00    +0.141 C 
BRANCH  26  27
ATOM     27  O   UNL     1       3.408  -2.726  -4.754  0.00  0.00    -0.385 OA
ATOM     28  C   UNL     1       3.857  -1.385  -4.546  0.00  0.00    +0.193 C 
ENDBRANCH  26  27
ENDBRANCH  25  26
ENDBRANCH  15  25
ENDBRANCH  14  15
ENDBRANCH   1  14
BRANCH   5  29
ATOM     29  O   UNL     1       4.785  -7.665  -4.477  0.00  0.00    -0.435 OA
BRANCH  29  30
ATOM     30  C   UNL     1       4.873  -8.925  -3.974  0.00  0.00    +0.165 A 
ATOM     31  C   UNL     1       4.174  -9.963  -4.571  0.00  0.00    +0.049 A 
ATOM     32  C   UNL     1       4.266 -11.242  -4.058  0.00  0.00    +0.004 A 
ATOM     33  C   UNL     1       5.053 -11.489  -2.949  0.00  0.00    +0.003 A 
ATOM     34  C   UNL     1       5.752 -10.458  -2.350  0.00  0.00    +0.042 A 
ATOM     35  C   UNL     1       5.669  -9.176  -2.863  0.00  0.00    +0.165 A 
ATOM     36  F   UNL     1       6.356  -8.168  -2.281  0.00  0.00    -0.202 F 
ENDBRANCH  29  30
ENDBRANCH   5  29
TORSDOF 14
