REMARK  Name = ZINC09053996
REMARK  5 active torsions:
REMARK  status: ('A' for Active; 'I' for Inactive)
REMARK    1  A    between atoms: C_3  and  C_6
REMARK    2  A    between atoms: C_15  and  C_16
REMARK    3  A    between atoms: C_15  and  N_44
REMARK    4  A    between atoms: C_19  and  C_25
REMARK    5  A    between atoms: C_21  and  N_22
REMARK                            x       y       z     vdW  Elec       q    Type
REMARK                         _______ _______ _______ _____ _____    ______ ____
ROOT
ATOM      1  C   UNL     1      -0.142   4.267  -0.006  0.00  0.00    -0.039 C 
ENDROOT
BRANCH   1  10
ATOM      2  C   UNL     1       1.408   5.429  -1.458  0.00  0.00    +0.001 C 
ATOM      3  C   UNL     1       1.811   5.609  -2.918  0.00  0.00    -0.046 A 
ATOM      4  C   UNL     1       2.579   6.673  -3.387  0.00  0.00    +0.010 A 
ATOM      5  C   UNL     1       2.890   6.756  -4.701  0.00  0.00    +0.045 A 
ATOM      6  S   UNL     1       2.096   5.298  -5.361  0.00  0.00    -0.101 S 
ATOM      7  C   UNL     1       1.413   4.693  -3.844  0.00  0.00    -0.010 A 
ATOM      8  C   UNL     1       0.591   3.470  -3.593  0.00  0.00    +0.024 C 
ATOM      9  C   UNL     1       0.567   3.226  -2.075  0.00  0.00    -0.072 C 
ATOM     10  N   UNL     1       0.245   4.512  -1.409  0.00  0.00    +0.390 N 
ATOM     11  H   UNL     1      -0.543   4.950  -1.901  0.00  0.00    -0.080 HD
BRANCH   2  14
ATOM     12  C   UNL     1       1.129   8.778   0.335  0.00  0.00    +0.008 A 
ATOM     13  C   UNL     1       1.710   7.594  -0.079  0.00  0.00    +0.010 A 
ATOM     14  C   UNL     1       1.001   6.759  -0.878  0.00  0.00    -0.019 A 
ATOM     15  S   UNL     1      -0.541   7.639  -1.057  0.00  0.00    -0.103 S 
ATOM     16  C   UNL     1      -0.135   9.064  -0.061  0.00  0.00    +0.045 A 
ENDBRANCH   2  14
ENDBRANCH   1  10
BRANCH   1  17
ATOM     17  C   UNL     1      -1.519   3.655   0.010  0.00  0.00    -0.034 A 
ATOM     18  C   UNL     1      -2.223   3.510  -1.173  0.00  0.00    +0.005 A 
ATOM     19  C   UNL     1      -3.484   2.952  -1.165  0.00  0.00    +0.013 A 
ATOM     20  C   UNL     1      -4.050   2.532   0.041  0.00  0.00    +0.039 A 
ATOM     21  C   UNL     1      -3.333   2.676   1.229  0.00  0.00    +0.046 A 
ATOM     22  C   UNL     1      -2.075   3.242   1.208  0.00  0.00    +0.128 A 
BRANCH  20  23
ATOM     23  C   UNL     1      -5.402   1.933   0.057  0.00  0.00    +0.242 C 
ATOM     24  O   UNL     1      -5.892   1.568   1.107  0.00  0.00    -0.270 OA
ATOM     25  N   UNL     1      -6.090   1.791  -1.093  0.00  0.00    -0.325 N 
ATOM     26  H   UNL     1      -5.698   2.082  -1.932  0.00  0.00    +0.145 HD
ATOM     27  H   UNL     1      -6.976   1.397  -1.083  0.00  0.00    +0.145 HD
ENDBRANCH  20  23
BRANCH  22  28
ATOM     28  N   UNL     1      -1.315   3.400   2.468  0.00  0.00    +0.057 N 
ATOM     29  O   UNL     1      -1.837   3.123   3.533  0.00  0.00    -0.126 OA
ATOM     30  O   UNL     1      -0.166   3.803   2.440  0.00  0.00    -0.126 OA
ENDBRANCH  22  28
ENDBRANCH   1  17
TORSDOF 5
