REMARK  Name = ZINC04751826
REMARK  6 active torsions:
REMARK  status: ('A' for Active; 'I' for Inactive)
REMARK    1  A    between atoms: C_1  and  C_2
REMARK    2  A    between atoms: C_4  and  C_28
REMARK    3  A    between atoms: N_7  and  C_21
REMARK    4  A    between atoms: C_21  and  C_22
REMARK    5  A    between atoms: C_28  and  O_29
REMARK    6  A    between atoms: O_29  and  C_30
REMARK                            x       y       z     vdW  Elec       q    Type
REMARK                         _______ _______ _______ _____ _____    ______ ____
ROOT
ATOM      1  C   UNL     1       0.808  -6.086  -1.473  0.00  0.00    +0.063 C 
ATOM      2  C   UNL     1       0.309  -4.708  -1.123  0.00  0.00    +0.015 A 
ATOM      3  C   UNL     1      -1.036  -4.526  -0.852  0.00  0.00    +0.027 A 
ATOM      4  C   UNL     1      -1.497  -3.260  -0.532  0.00  0.00    -0.005 A 
ATOM      5  C   UNL     1      -0.573  -2.216  -0.498  0.00  0.00    +0.081 A 
ATOM      6  C   UNL     1       0.780  -2.472  -0.780  0.00  0.00    +0.114 A 
ATOM      7  N   UNL     1       1.716  -1.452  -0.747  0.00  0.00    -0.289 N 
ATOM      8  C   UNL     1       1.403  -0.467   0.288  0.00  0.00    +0.205 C 
ATOM      9  C   UNL     1       2.272   0.743   0.224  0.00  0.00    +0.003 A 
ATOM     10  C   UNL     1       3.640   0.899   0.230  0.00  0.00    +0.008 A 
ATOM     11  C   UNL     1       4.129   2.201   0.170  0.00  0.00    +0.000 A 
ATOM     12  C   UNL     1       3.286   3.293   0.106  0.00  0.00    +0.001 A 
ATOM     13  C   UNL     1       1.906   3.153   0.094  0.00  0.00    +0.013 A 
ATOM     14  C   UNL     1       1.403   1.850   0.149  0.00  0.00    +0.044 A 
ATOM     15  C   UNL     1       0.023   1.356   0.140  0.00  0.00    +0.255 C 
ATOM     16  O   UNL     1      -0.971   2.055   0.175  0.00  0.00    -0.269 OA
ATOM     17  N   UNL     1       0.025   0.020   0.081  0.00  0.00    -0.210 N 
ATOM     18  C   UNL     1      -0.997  -0.835  -0.169  0.00  0.00    +0.258 C 
ATOM     19  O   UNL     1      -2.164  -0.496  -0.131  0.00  0.00    -0.269 OA
ATOM     20  N   UNL     1       1.241  -3.720  -1.098  0.00  0.00    -0.346 N 
ATOM     21  H   UNL     1       2.230  -3.899  -1.306  0.00  0.00    +0.167 HD
ENDROOT
BRANCH   7  22
ATOM     22  C   UNL     1       3.073  -1.988  -0.571  0.00  0.00    +0.143 C 
BRANCH  22  23
ATOM     23  C   UNL     1       3.158  -2.716   0.746  0.00  0.00    -0.030 A 
ATOM     24  C   UNL     1       3.405  -2.012   1.910  0.00  0.00    +0.005 A 
ATOM     25  C   UNL     1       3.478  -2.679   3.119  0.00  0.00    +0.000 A 
ATOM     26  C   UNL     1       3.314  -4.051   3.162  0.00  0.00    +0.000 A 
ATOM     27  C   UNL     1       3.073  -4.756   1.997  0.00  0.00    +0.000 A 
ATOM     28  C   UNL     1       2.994  -4.088   0.789  0.00  0.00    +0.005 A 
ENDBRANCH  22  23
ENDBRANCH   7  22
BRANCH   4  29
ATOM     29  C   UNL     1      -2.953  -3.017  -0.229  0.00  0.00    +0.195 C 
BRANCH  29  30
ATOM     30  O   UNL     1      -3.673  -4.247  -0.334  0.00  0.00    -0.378 OA
ATOM     31  C   UNL     1      -5.071  -4.127  -0.065  0.00  0.00    +0.194 C 
ENDBRANCH  29  30
ENDBRANCH   4  29
TORSDOF 4
