REMARK  Name = ZINC47931982
REMARK  14 active torsions:
REMARK  status: ('A' for Active; 'I' for Inactive)
REMARK    1  A    between atoms: C_1  and  C_2
REMARK    2  A    between atoms: C_2  and  O_3
REMARK    3  A    between atoms: O_3  and  C_4
REMARK    4  A    between atoms: N_6  and  C_7
REMARK    5  A    between atoms: C_7  and  C_9
REMARK    6  A    between atoms: C_7  and  C_12
REMARK    7  A    between atoms: C_9  and  C_10
REMARK    8  A    between atoms: C_9  and  C_11
REMARK    9  A    between atoms: N_14  and  C_15
REMARK   10  A    between atoms: C_15  and  C_16
REMARK   11  A    between atoms: C_16  and  C_18
REMARK   12  A    between atoms: C_16  and  N_26
REMARK   13  A    between atoms: C_21  and  O_24
REMARK   14  A    between atoms: O_24  and  C_25
REMARK                            x       y       z     vdW  Elec       q    Type
REMARK                         _______ _______ _______ _____ _____    ______ ____
ROOT
ATOM      1  C   UNL     1      -5.775  -5.816   1.349  0.00  0.00    +0.093 C 
ENDROOT
BRANCH   1   4
ATOM      2  C   UNL     1      -5.721  -4.032   3.008  0.00  0.00    +0.234 C 
ATOM      3  O   UNL     1      -5.401  -3.262   2.127  0.00  0.00    -0.274 OA
ATOM      4  N   UNL     1      -5.932  -5.332   2.723  0.00  0.00    -0.315 N 
ATOM      5  H   UNL     1      -6.187  -5.948   3.427  0.00  0.00    +0.149 HD
BRANCH   2   6
ATOM      6  C   UNL     1      -5.882  -3.535   4.422  0.00  0.00    +0.165 C 
BRANCH   6   9
ATOM      7  C   UNL     1      -6.137  -1.338   5.443  0.00  0.00    +0.401 C 
ATOM      8  O   UNL     1      -6.856  -1.844   6.282  0.00  0.00    -0.226 OA
ATOM      9  N   UNL     1      -5.599  -2.099   4.469  0.00  0.00    -0.270 N 
ATOM     10  H   UNL     1      -5.025  -1.695   3.800  0.00  0.00    +0.153 HD
BRANCH   7  11
ATOM     11  O   UNL     1      -5.877  -0.018   5.487  0.00  0.00    -0.451 OA
BRANCH  11  13
ATOM     12  C   UNL     1      -6.073   2.198   6.433  0.00  0.00    +0.048 C 
ATOM     13  C   UNL     1      -6.480   0.728   6.547  0.00  0.00    +0.230 C 
ENDBRANCH  11  13
ENDBRANCH   7  11
ENDBRANCH   6   9
BRANCH   6  14
ATOM     14  C   UNL     1      -4.907  -4.277   5.338  0.00  0.00    +0.012 C 
ATOM     15  C   UNL     1      -3.470  -3.925   4.946  0.00  0.00    +0.009 C 
ATOM     16  C   UNL     1      -5.156  -3.864   6.790  0.00  0.00    +0.009 C 
ENDBRANCH   6  14
ENDBRANCH   2   6
ENDBRANCH   1   4
BRANCH   1  17
ATOM     17  C   UNL     1      -5.965  -7.333   1.317  0.00  0.00    -0.020 C 
BRANCH  17  18
ATOM     18  C   UNL     1      -7.388  -7.669   1.685  0.00  0.00    -0.059 A 
ATOM     19  C   UNL     1      -8.389  -7.564   0.737  0.00  0.00    +0.005 A 
ATOM     20  C   UNL     1      -9.694  -7.870   1.072  0.00  0.00    +0.046 A 
ATOM     21  C   UNL     1      -9.999  -8.285   2.360  0.00  0.00    +0.120 A 
ATOM     22  C   UNL     1      -8.992  -8.391   3.309  0.00  0.00    +0.046 A 
ATOM     23  C   UNL     1      -7.689  -8.088   2.968  0.00  0.00    +0.005 A 
BRANCH  21  24
ATOM     24  O   UNL     1     -11.282  -8.587   2.692  0.00  0.00    -0.495 OA
ATOM     25  C   UNL     1     -11.522  -9.008   4.036  0.00  0.00    +0.277 C 
ENDBRANCH  21  24
ENDBRANCH  17  18
BRANCH  17  26
ATOM     26  N   UNL     1      -5.677  -7.835  -0.033  0.00  0.00    +0.385 N 
ATOM     27  C   UNL     1      -4.257  -7.577  -0.383  0.00  0.00    -0.078 C 
ATOM     28  C   UNL     1      -3.974  -8.610  -1.503  0.00  0.00    -0.020 C 
ATOM     29  C   UNL     1      -4.771  -9.851  -1.038  0.00  0.00    -0.020 C 
ATOM     30  C   UNL     1      -5.843  -9.304  -0.078  0.00  0.00    -0.078 C 
ATOM     31  H   UNL     1      -6.287  -7.395  -0.706  0.00  0.00    -0.081 HD
ENDBRANCH  17  26
ENDBRANCH   1  17
TORSDOF 10
