REMARK  Name = ZINC36398836
REMARK  9 active torsions:
REMARK  status: ('A' for Active; 'I' for Inactive)
REMARK    1  A    between atoms: C_1  and  O_2
REMARK    2  A    between atoms: O_2  and  C_3
REMARK    3  A    between atoms: C_6  and  C_9
REMARK    4  A    between atoms: C_9  and  C_10
REMARK    5  A    between atoms: C_9  and  N_22
REMARK    6  A    between atoms: C_10  and  N_11
REMARK    7  A    between atoms: N_11  and  C_12
REMARK    8  A    between atoms: C_12  and  N_14
REMARK    9  A    between atoms: N_14  and  C_15
REMARK                            x       y       z     vdW  Elec       q    Type
REMARK                         _______ _______ _______ _____ _____    ______ ____
ROOT
ATOM      1  C   UNL     1      -4.725  -2.586   0.003  0.00  0.00    -0.020 C 
ENDROOT
BRANCH   1   2
ATOM      2  N   UNL     1      -4.495  -3.754   0.863  0.00  0.00    +0.385 N 
ATOM      3  C   UNL     1      -5.743  -4.514   0.998  0.00  0.00    -0.078 C 
ATOM      4  C   UNL     1      -5.490  -5.776   1.825  0.00  0.00    -0.019 C 
ATOM      5  C   UNL     1      -4.981  -5.376   3.213  0.00  0.00    -0.004 C 
ATOM      6  C   UNL     1      -3.720  -4.521   3.057  0.00  0.00    -0.019 C 
ATOM      7  C   UNL     1      -4.039  -3.306   2.184  0.00  0.00    -0.078 C 
ATOM      8  H   UNL     1      -3.788  -4.343   0.446  0.00  0.00    -0.081 HD
ENDBRANCH   1   2
BRANCH   1  12
ATOM      9  C   UNL     1      -1.128  -0.296  -0.281  0.00  0.00    +0.120 A 
ATOM     10  C   UNL     1      -2.353   0.346  -0.167  0.00  0.00    +0.046 A 
ATOM     11  C   UNL     1      -3.514  -0.397  -0.075  0.00  0.00    +0.005 A 
ATOM     12  C   UNL     1      -3.456  -1.778  -0.097  0.00  0.00    -0.059 A 
ATOM     13  C   UNL     1      -2.237  -2.420  -0.210  0.00  0.00    +0.005 A 
ATOM     14  C   UNL     1      -1.073  -1.682  -0.308  0.00  0.00    +0.046 A 
BRANCH   9  16
ATOM     15  C   UNL     1      -0.116   1.855  -0.336  0.00  0.00    +0.277 C 
ATOM     16  O   UNL     1       0.016   0.432  -0.371  0.00  0.00    -0.495 OA
ENDBRANCH   9  16
ENDBRANCH   1  12
BRANCH   1  17
ATOM     17  C   UNL     1      -5.143  -3.053  -1.392  0.00  0.00    +0.092 C 
BRANCH  17  18
ATOM     18  N   UNL     1      -5.449  -1.888  -2.227  0.00  0.00    -0.328 N 
ATOM     19  H   UNL     1      -5.441  -0.999  -1.839  0.00  0.00    +0.148 HD
BRANCH  18  20
ATOM     20  C   UNL     1      -5.740  -2.052  -3.532  0.00  0.00    +0.130 C 
ATOM     21  S   UNL     1      -5.752  -3.622  -4.216  0.00  0.00    -0.019 S 
BRANCH  20  22
ATOM     22  N   UNL     1      -6.021  -0.980  -4.300  0.00  0.00    -0.323 N 
ATOM     23  H   UNL     1      -6.013  -0.091  -3.912  0.00  0.00    +0.148 HD
BRANCH  22  24
ATOM     24  C   UNL     1      -6.337  -1.159  -5.719  0.00  0.00    +0.075 C 
ATOM     25  C   UNL     1      -7.857  -1.362  -5.911  0.00  0.00    +0.026 C 
ATOM     26  C   UNL     1      -8.305  -0.166  -6.806  0.00  0.00    -0.009 C 
ATOM     27  C   UNL     1      -7.687  -0.472  -8.204  0.00  0.00    +0.004 C 
ATOM     28  C   UNL     1      -6.166  -0.269  -8.012  0.00  0.00    +0.005 C 
ATOM     29  C   UNL     1      -6.009   0.141  -6.516  0.00  0.00    +0.010 C 
ATOM     30  C   UNL     1      -7.332   0.956  -6.298  0.00  0.00    +0.009 C 
ENDBRANCH  22  24
ENDBRANCH  20  22
ENDBRANCH  18  20
ENDBRANCH  17  18
ENDBRANCH   1  17
TORSDOF 8
