REMARK  Name = ZINC59006186
REMARK  6 active torsions:
REMARK  status: ('A' for Active; 'I' for Inactive)
REMARK    1  A    between atoms: C_3  and  C_6
REMARK    2  A    between atoms: N_7  and  N_8
REMARK    3  A    between atoms: C_11  and  S_14
REMARK    4  A    between atoms: S_14  and  C_15
REMARK    5  A    between atoms: C_15  and  C_16
REMARK    6  A    between atoms: N_18  and  C_19
REMARK                            x       y       z     vdW  Elec       q    Type
REMARK                         _______ _______ _______ _____ _____    ______ ____
ROOT
ATOM      1  N   UNL     1       5.584  -0.560  -0.117  0.00  0.00    -0.205 N 
ATOM      2  C   UNL     1       6.246  -1.773  -0.120  0.00  0.00    +0.232 A 
ATOM      3  N   UNL     1       5.682  -2.963  -0.118  0.00  0.00    -0.186 NA
ATOM      4  C   UNL     1       6.628  -3.909  -0.122  0.00  0.00    +0.211 A 
ATOM      5  N   UNL     1       7.806  -3.333  -0.128  0.00  0.00    -0.144 NA
ATOM      6  N   UNL     1       7.585  -1.946  -0.132  0.00  0.00    -0.245 N 
ATOM      7  H   UNL     1       6.089   0.268  -0.123  0.00  0.00    +0.177 HD
ATOM      8  H   UNL     1       8.261  -1.251  -0.140  0.00  0.00    +0.192 HD
ENDROOT
BRANCH   1  10
ATOM      9  C   UNL     1       3.560   0.616  -0.100  0.00  0.00    +0.176 C 
ATOM     10  N   UNL     1       4.183  -0.526  -0.104  0.00  0.00    -0.184 NA
BRANCH   9  13
ATOM     11  C   UNL     1      -0.020   1.341  -0.069  0.00  0.00    +0.042 A 
ATOM     12  C   UNL     1       1.319   1.774  -0.082  0.00  0.00    +0.051 A 
ATOM     13  C   UNL     1       2.094   0.651  -0.087  0.00  0.00    +0.147 A 
ATOM     14  O   UNL     1       1.276  -0.421  -0.077  0.00  0.00    -0.462 OA
ATOM     15  C   UNL     1      -0.001  -0.007  -0.066  0.00  0.00    +0.196 A 
ENDBRANCH   9  13
ENDBRANCH   1  10
BRANCH   4  16
ATOM     16  S   UNL     1       6.337  -5.647  -0.121  0.00  0.00    -0.075 S 
BRANCH  16  17
ATOM     17  C   UNL     1       8.001  -6.370  -0.129  0.00  0.00    +0.173 C 
BRANCH  17  18
ATOM     18  C   UNL     1       7.895  -7.873  -0.129  0.00  0.00    +0.228 C 
ATOM     19  O   UNL     1       6.805  -8.404  -0.123  0.00  0.00    -0.275 OA
ATOM     20  N   UNL     1       9.012  -8.627  -0.134  0.00  0.00    -0.284 N 
ATOM     21  H   UNL     1       9.882  -8.204  -0.204  0.00  0.00    +0.155 HD
BRANCH  20  22
ATOM     22  C   UNL     1       8.916 -10.021  -0.039  0.00  0.00    +0.048 A 
ATOM     23  C   UNL     1       7.851 -10.687  -0.630  0.00  0.00    +0.025 A 
ATOM     24  C   UNL     1       7.759 -12.061  -0.534  0.00  0.00    +0.017 A 
ATOM     25  C   UNL     1       8.727 -12.775   0.150  0.00  0.00    +0.019 A 
ATOM     26  C   UNL     1       9.790 -12.115   0.740  0.00  0.00    +0.032 A 
ATOM     27  C   UNL     1       9.890 -10.740   0.642  0.00  0.00    +0.040 A 
ATOM     28 BR   UNL     1      11.347  -9.838   1.442  0.00  0.00    -0.048 Br
ATOM     29 BR   UNL     1       8.597 -14.658   0.278  0.00  0.00    -0.050 Br
ENDBRANCH  20  22
ENDBRANCH  17  18
ENDBRANCH  16  17
ENDBRANCH   4  16
TORSDOF 6
