REMARK  Name = ZINC09673418
REMARK  5 active torsions:
REMARK  status: ('A' for Active; 'I' for Inactive)
REMARK    1  A    between atoms: C_1  and  C_2
REMARK    2  A    between atoms: C_6  and  N_8
REMARK    3  A    between atoms: C_13  and  C_30
REMARK    4  A    between atoms: C_21  and  C_23
REMARK    5  A    between atoms: C_35  and  C_36
REMARK                            x       y       z     vdW  Elec       q    Type
REMARK                         _______ _______ _______ _____ _____    ______ ____
ROOT
ATOM      1  N   UNL     1       0.018  -2.808   2.391  0.00  0.00    -0.208 N 
ATOM      2  C   UNL     1       0.051  -4.178   2.474  0.00  0.00    +0.234 C 
ATOM      3  O   UNL     1       0.283  -4.966   1.582  0.00  0.00    -0.274 OA
ATOM      4  C   UNL     1      -0.248  -4.475   3.850  0.00  0.00    +0.130 C 
ATOM      5  C   UNL     1      -0.053  -5.523   4.868  0.00  0.00    +0.117 C 
ATOM      6  N   UNL     1      -0.370  -4.761   6.124  0.00  0.00    -0.229 NA
ATOM      7  N   UNL     1      -0.235  -3.401   5.875  0.00  0.00    -0.220 N 
ATOM      8  C   UNL     1       0.461  -3.268   4.590  0.00  0.00    +0.194 C 
ATOM      9  C   UNL     1       0.023  -2.208   3.618  0.00  0.00    +0.249 C 
ATOM     10  O   UNL     1      -0.268  -1.058   3.871  0.00  0.00    -0.273 OA
ATOM     11  C   UNL     1      -0.649  -2.400   6.676  0.00  0.00    +0.261 C 
ATOM     12  O   UNL     1      -0.383  -1.247   6.396  0.00  0.00    -0.269 OA
ATOM     13  H   UNL     1       0.228  -5.050   6.884  0.00  0.00    +0.145 HD
ENDROOT
BRANCH   1  19
ATOM     14  C   UNL     1      -0.099   1.484  -0.008  0.00  0.00    +0.044 C 
ATOM     15  C   UNL     1      -0.069  -0.023  -0.011  0.00  0.00    -0.049 A 
ATOM     16  C   UNL     1      -0.070  -0.712  -1.211  0.00  0.00    +0.003 A 
ATOM     17  C   UNL     1      -0.043  -2.094  -1.218  0.00  0.00    +0.002 A 
ATOM     18  C   UNL     1      -0.014  -2.791  -0.026  0.00  0.00    +0.024 A 
ATOM     19  C   UNL     1      -0.011  -2.103   1.180  0.00  0.00    +0.044 A 
ATOM     20  C   UNL     1      -0.033  -0.715   1.183  0.00  0.00    +0.027 A 
ENDBRANCH   1  19
BRANCH  11  21
ATOM     21  C   UNL     1      -1.429  -2.703   7.895  0.00  0.00    +0.039 A 
ATOM     22  C   UNL     1      -1.643  -4.027   8.279  0.00  0.00    +0.013 A 
ATOM     23  C   UNL     1      -2.372  -4.304   9.418  0.00  0.00    +0.002 A 
ATOM     24  C   UNL     1      -2.890  -3.272  10.179  0.00  0.00    +0.015 A 
ATOM     25  C   UNL     1      -2.682  -1.955   9.804  0.00  0.00    +0.019 A 
ATOM     26  C   UNL     1      -1.949  -1.665   8.671  0.00  0.00    +0.028 A 
ATOM     27 BR   UNL     1      -3.396  -0.552  10.851  0.00  0.00    -0.050 Br
ENDBRANCH  11  21
BRANCH   5  28
ATOM     28  C   UNL     1      -1.017  -6.664   4.665  0.00  0.00    -0.025 A 
ATOM     29  C   UNL     1      -2.212  -6.690   5.361  0.00  0.00    +0.005 A 
ATOM     30  C   UNL     1      -3.096  -7.736   5.175  0.00  0.00    +0.000 A 
ATOM     31  C   UNL     1      -2.787  -8.755   4.294  0.00  0.00    +0.000 A 
ATOM     32  C   UNL     1      -1.593  -8.728   3.598  0.00  0.00    +0.003 A 
ATOM     33  C   UNL     1      -0.710  -7.680   3.780  0.00  0.00    -0.046 A 
ATOM     34  C   UNL     1       0.589  -7.647   3.017  0.00  0.00    +0.044 C 
ENDBRANCH   5  28
TORSDOF 3
