REMARK  Name = ZINC19332215
REMARK  6 active torsions:
REMARK  status: ('A' for Active; 'I' for Inactive)
REMARK    1  A    between atoms: C_4  and  C_7
REMARK    2  A    between atoms: C_11  and  C_26
REMARK    3  A    between atoms: C_12  and  O_13
REMARK    4  A    between atoms: C_17  and  C_18
REMARK    5  A    between atoms: C_21  and  O_25
REMARK    6  A    between atoms: C_22  and  O_24
REMARK                            x       y       z     vdW  Elec       q    Type
REMARK                         _______ _______ _______ _____ _____    ______ ____
ROOT
ATOM      1  C   UNL     1       2.926   0.801   2.803  0.00  0.00    +0.021 C 
ATOM      2  C   UNL     1       1.885  -0.044   2.058  0.00  0.00    -0.061 C 
ATOM      3  N   UNL     1       2.336  -0.244   0.672  0.00  0.00    +0.394 N 
ATOM      4  C   UNL     1       3.595  -1.004   0.641  0.00  0.00    -0.061 C 
ATOM      5  C   UNL     1       4.687  -0.186   1.343  0.00  0.00    +0.021 C 
ATOM      6  C   UNL     1       4.264   0.050   2.799  0.00  0.00    +0.134 C 
ATOM      7  C   UNL     1       4.815   1.170   0.640  0.00  0.00    +0.095 C 
ATOM      8  N   UNL     1       3.510   1.849   0.672  0.00  0.00    -0.310 NA
ATOM      9  C   UNL     1       3.105   2.130   2.058  0.00  0.00    +0.095 C 
ATOM     10  C   UNL     1       2.489   1.046  -0.016  0.00  0.00    +0.033 C 
ATOM     11  H   UNL     1       1.569  -0.826   0.141  0.00  0.00    -0.079 HD
ENDROOT
BRANCH   1  15
ATOM     12  C   UNL     1       1.627   1.531   6.806  0.00  0.00    +0.000 A 
ATOM     13  C   UNL     1       1.817   0.234   6.366  0.00  0.00    +0.000 A 
ATOM     14  C   UNL     1       2.237  -0.002   5.071  0.00  0.00    +0.004 A 
ATOM     15  C   UNL     1       2.468   1.058   4.215  0.00  0.00    -0.039 A 
ATOM     16  C   UNL     1       2.284   2.356   4.656  0.00  0.00    +0.004 A 
ATOM     17  C   UNL     1       1.859   2.591   5.950  0.00  0.00    +0.000 A 
ENDBRANCH   1  15
BRANCH  10  18
ATOM     18  C   UNL     1       1.175   1.783   0.000  0.00  0.00    -0.044 A 
ATOM     19  C   UNL     1       1.160   3.166   0.008  0.00  0.00    +0.007 A 
ATOM     20  C   UNL     1      -0.043   3.847   0.024  0.00  0.00    +0.049 A 
ATOM     21  C   UNL     1      -1.237   3.144   0.031  0.00  0.00    +0.158 A 
ATOM     22  C   UNL     1      -1.222   1.752   0.017  0.00  0.00    +0.158 A 
ATOM     23  C   UNL     1      -0.013   1.076   0.008  0.00  0.00    +0.052 A 
BRANCH  22  24
ATOM     24  O   UNL     1      -2.391   1.058   0.019  0.00  0.00    -0.503 OA
ATOM     25  H   UNL     1      -2.378  -0.042   0.008  0.00  0.00    +0.292 HD
ENDBRANCH  22  24
BRANCH  21  26
ATOM     26  O   UNL     1      -2.421   3.812   0.046  0.00  0.00    -0.503 OA
ATOM     27  H   UNL     1      -3.369   3.253   0.052  0.00  0.00    +0.292 HD
ENDBRANCH  21  26
ENDBRANCH  10  18
BRANCH   5  28
ATOM     28  C   UNL     1       6.000  -0.923   1.286  0.00  0.00    -0.039 A 
ATOM     29  C   UNL     1       6.074  -2.158   0.670  0.00  0.00    +0.004 A 
ATOM     30  C   UNL     1       7.279  -2.832   0.614  0.00  0.00    +0.000 A 
ATOM     31  C   UNL     1       8.409  -2.275   1.183  0.00  0.00    +0.000 A 
ATOM     32  C   UNL     1       8.335  -1.043   1.804  0.00  0.00    +0.000 A 
ATOM     33  C   UNL     1       7.130  -0.367   1.856  0.00  0.00    +0.004 A 
ENDBRANCH   5  28
BRANCH   6  34
ATOM     34  O   UNL     1       5.256   0.833   3.465  0.00  0.00    -0.390 OA
ATOM     35  H   UNL     1       6.284   0.454   3.560  0.00  0.00    +0.210 HD
ENDBRANCH   6  34
TORSDOF 6
