REMARK  Name = ZINC14538015
REMARK  6 active torsions:
REMARK  status: ('A' for Active; 'I' for Inactive)
REMARK    1  A    between atoms: C_1  and  O_2
REMARK    2  A    between atoms: O_2  and  C_3
REMARK    3  A    between atoms: C_3  and  C_4
REMARK    4  A    between atoms: C_4  and  N_5
REMARK    5  A    between atoms: N_8  and  C_22
REMARK    6  A    between atoms: C_16  and  N_61
REMARK                            x       y       z     vdW  Elec       q    Type
REMARK                         _______ _______ _______ _____ _____    ______ ____
ROOT
ATOM      1  N   UNL     1      -1.197  -1.346  -3.516  0.00  0.00    -0.269 N 
ATOM      2  C   UNL     1      -1.306  -0.605  -2.397  0.00  0.00    +0.312 C 
ATOM      3  O   UNL     1      -1.653  -1.051  -1.322  0.00  0.00    -0.252 OA
ATOM      4  N   UNL     1      -0.989   0.679  -2.603  0.00  0.00    -0.220 N 
ATOM      5  C   UNL     1      -0.643   0.906  -3.887  0.00  0.00    +0.247 C 
ATOM      6  O   UNL     1      -0.310   1.962  -4.383  0.00  0.00    -0.273 OA
ATOM      7  C   UNL     1      -0.754  -0.433  -4.577  0.00  0.00    +0.112 C 
ATOM      8  C   UNL     1      -1.791  -0.369  -5.695  0.00  0.00    +0.017 C 
ATOM      9  C   UNL     1      -1.867  -1.729  -6.394  0.00  0.00    -0.076 C 
ATOM     10  C   UNL     1       0.445  -2.213  -5.846  0.00  0.00    -0.076 C 
ATOM     11  C   UNL     1       0.599  -0.869  -5.129  0.00  0.00    +0.017 C 
ATOM     12  N   UNL     1      -0.535  -2.060  -6.944  0.00  0.00    +0.382 N 
ATOM     13  H   UNL     1      -0.230  -1.296  -7.558  0.00  0.00    -0.081 HD
ENDROOT
BRANCH   4  14
ATOM     14  C   UNL     1      -1.019   1.712  -1.564  0.00  0.00    +0.094 C 
ATOM     15  C   UNL     1      -0.055   1.358  -0.411  0.00  0.00    +0.058 C 
ATOM     16  C   UNL     1      -0.739   1.854   0.846  0.00  0.00    -0.042 A 
ATOM     17  C   UNL     1      -0.231   2.095   2.109  0.00  0.00    +0.004 A 
ATOM     18  C   UNL     1      -1.059   2.551   3.116  0.00  0.00    +0.000 A 
ATOM     19  C   UNL     1      -2.400   2.769   2.862  0.00  0.00    +0.000 A 
ATOM     20  C   UNL     1      -2.910   2.529   1.601  0.00  0.00    +0.004 A 
ATOM     21  C   UNL     1      -2.082   2.071   0.590  0.00  0.00    -0.042 A 
ATOM     22  C   UNL     1      -2.389   1.736  -0.854  0.00  0.00    +0.058 C 
ENDBRANCH   4  14
BRANCH  12  23
ATOM     23  C   UNL     1      -0.610  -3.308  -7.730  0.00  0.00    -0.058 C 
ATOM     24  C   UNL     1      -1.612  -3.096  -8.855  0.00  0.00    -0.004 C 
ATOM     25  C   UNL     1      -1.012  -3.268 -10.269  0.00  0.00    +0.067 C 
ATOM     26  S   UNL     1       0.466  -4.314  -9.907  0.00  0.00    -0.162 S 
ATOM     27  C   UNL     1       0.814  -3.655  -8.219  0.00  0.00    +0.054 C 
ENDBRANCH  12  23
BRANCH   1  28
ATOM     28  C   UNL     1      -1.465  -2.780  -3.648  0.00  0.00    +0.138 C 
BRANCH  28  29
ATOM     29  C   UNL     1      -2.942  -3.052  -3.355  0.00  0.00    +0.178 C 
BRANCH  29  31
ATOM     30  C   UNL     1      -5.155  -2.587  -4.150  0.00  0.00    +0.194 C 
ATOM     31  O   UNL     1      -3.751  -2.397  -4.334  0.00  0.00    -0.381 OA
ENDBRANCH  29  31
ENDBRANCH  28  29
ENDBRANCH   1  28
TORSDOF 5
