REMARK  Name = ZINC60301996
REMARK  9 active torsions:
REMARK  status: ('A' for Active; 'I' for Inactive)
REMARK    1  A    between atoms: C_1  and  C_2
REMARK    2  A    between atoms: C_3  and  C_8
REMARK    3  A    between atoms: C_4  and  C_7
REMARK    4  A    between atoms: C_8  and  N_9
REMARK    5  A    between atoms: C_10  and  C_12
REMARK    6  A    between atoms: C_13  and  C_21
REMARK    7  A    between atoms: C_21  and  S_22
REMARK    8  A    between atoms: S_22  and  C_23
REMARK    9  A    between atoms: C_26  and  C_28
REMARK                            x       y       z     vdW  Elec       q    Type
REMARK                         _______ _______ _______ _____ _____    ______ ____
ROOT
ATOM      1  C   UNL     1       2.987   0.421  -4.770  0.00  0.00    +0.194 A 
ATOM      2  C   UNL     1       3.342   0.845  -6.011  0.00  0.00    +0.021 A 
ATOM      3  C   UNL     1       4.804   0.866  -6.029  0.00  0.00    +0.025 A 
ATOM      4  C   UNL     1       5.761   1.201  -6.990  0.00  0.00    +0.012 A 
ATOM      5  C   UNL     1       7.090   1.111  -6.682  0.00  0.00    +0.001 A 
ATOM      6  C   UNL     1       7.493   0.689  -5.423  0.00  0.00    +0.004 A 
ATOM      7  C   UNL     1       6.565   0.354  -4.461  0.00  0.00    +0.047 A 
ATOM      8  C   UNL     1       5.207   0.438  -4.750  0.00  0.00    +0.136 A 
ATOM      9  O   UNL     1       4.094   0.190  -4.034  0.00  0.00    -0.450 OA
ENDROOT
BRANCH   1  11
ATOM     10  N   UNL     1       1.371  -0.174  -3.041  0.00  0.00    -0.305 N 
ATOM     11  C   UNL     1       1.606   0.247  -4.299  0.00  0.00    +0.280 C 
ATOM     12  O   UNL     1       0.674   0.484  -5.045  0.00  0.00    -0.267 OA
ATOM     13  H   UNL     1       2.114  -0.363  -2.446  0.00  0.00    +0.149 HD
BRANCH  10  14
ATOM     14  C   UNL     1      -0.005  -0.348  -2.571  0.00  0.00    +0.145 C 
BRANCH  14  17
ATOM     15  C   UNL     1      -0.018   1.503   0.010  0.00  0.00    +0.069 C 
ATOM     16  C   UNL     1       0.002  -0.004   0.002  0.00  0.00    +0.085 A 
ATOM     17  C   UNL     1       0.008  -0.824  -1.141  0.00  0.00    +0.034 A 
ATOM     18  C   UNL     1       0.027  -2.108  -0.735  0.00  0.00    +0.139 A 
ATOM     19  O   UNL     1       0.034  -2.119   0.606  0.00  0.00    -0.359 OA
ATOM     20  N   UNL     1       0.023  -0.775   1.052  0.00  0.00    -0.083 NA
ATOM     21  C   UNL     1       0.039  -3.320  -1.631  0.00  0.00    +0.089 C 
ENDBRANCH  14  17
ENDBRANCH  10  14
ENDBRANCH   1  11
BRANCH   2  22
ATOM     22  C   UNL     1       2.417   1.216  -7.141  0.00  0.00    +0.116 C 
BRANCH  22  23
ATOM     23  S   UNL     1       2.028   2.986  -7.047  0.00  0.00    -0.092 S 
BRANCH  23  24
ATOM     24  C   UNL     1       0.953   3.259  -8.416  0.00  0.00    +0.159 A 
ATOM     25  N   UNL     1       0.496   2.408  -9.326  0.00  0.00    -0.135 NA
ATOM     26  N   UNL     1      -0.277   2.778 -10.252  0.00  0.00    -0.146 NA
ATOM     27  C   UNL     1      -0.680   4.026 -10.374  0.00  0.00    +0.100 A 
ATOM     28  S   UNL     1       0.155   4.763  -8.972  0.00  0.00    -0.044 S 
ATOM     29  C   UNL     1      -1.591   4.653 -11.398  0.00  0.00    +0.075 C 
ENDBRANCH  23  24
ENDBRANCH  22  23
ENDBRANCH   2  22
TORSDOF 6
