REMARK  Name = ZINC64220495
REMARK  9 active torsions:
REMARK  status: ('A' for Active; 'I' for Inactive)
REMARK    1  A    between atoms: C_1  and  O_2
REMARK    2  A    between atoms: O_2  and  C_3
REMARK    3  A    between atoms: C_3  and  C_5
REMARK    4  A    between atoms: C_5  and  C_7
REMARK    5  A    between atoms: C_5  and  N_17
REMARK    6  A    between atoms: C_7  and  C_8
REMARK    7  A    between atoms: C_18  and  C_20
REMARK    8  A    between atoms: C_20  and  N_21
REMARK    9  A    between atoms: C_22  and  C_24
REMARK                            x       y       z     vdW  Elec       q    Type
REMARK                         _______ _______ _______ _____ _____    ______ ____
ROOT
ATOM      1  N   UNL     1      -2.643  -2.570   0.013  0.00  0.00    -0.301 N 
ATOM      2  C   UNL     1      -3.328  -2.666  -1.143  0.00  0.00    +0.231 C 
ATOM      3  O   UNL     1      -2.786  -2.393  -2.193  0.00  0.00    -0.274 OA
ATOM      4  H   UNL     1      -3.076  -2.788   0.853  0.00  0.00    +0.150 HD
ENDROOT
BRANCH   1   5
ATOM      5  C   UNL     1      -1.244  -2.135   0.003  0.00  0.00    +0.186 C 
BRANCH   5   6
ATOM      6  C   UNL     1      -1.185  -0.630   0.010  0.00  0.00    +0.328 C 
ATOM      7  O   UNL     1      -2.208   0.015   0.023  0.00  0.00    -0.249 OA
BRANCH   6   9
ATOM      8  C   UNL     1      -0.017   1.425   0.010  0.00  0.00    +0.280 C 
ATOM      9  O   UNL     1       0.002  -0.004   0.002  0.00  0.00    -0.467 OA
ENDBRANCH   6   9
ENDBRANCH   5   6
BRANCH   5  10
ATOM     10  C   UNL     1      -0.531  -2.680   1.242  0.00  0.00    +0.067 C 
BRANCH  10  11
ATOM     11  C   UNL     1      -0.482  -4.184   1.173  0.00  0.00    -0.039 C 
ATOM     12  C   UNL     1       0.535  -4.944   0.706  0.00  0.00    -0.001 A 
ATOM     13  C   UNL     1       1.848  -4.610   0.142  0.00  0.00    +0.010 A 
ATOM     14  C   UNL     1       2.668  -5.612  -0.249  0.00  0.00    +0.001 A 
ATOM     15  C   UNL     1       2.297  -6.958  -0.129  0.00  0.00    +0.002 A 
ATOM     16  C   UNL     1       1.107  -7.343   0.379  0.00  0.00    +0.026 A 
ATOM     17  C   UNL     1       0.166  -6.373   0.822  0.00  0.00    +0.043 A 
ATOM     18  N   UNL     1      -1.032  -6.492   1.341  0.00  0.00    -0.380 N 
ATOM     19  C   UNL     1      -1.556  -5.151   1.619  0.00  0.00    +0.144 C 
ATOM     20  H   UNL     1      -1.492  -7.328   1.516  0.00  0.00    +0.160 HD
ENDBRANCH  10  11
ENDBRANCH   5  10
ENDBRANCH   1   5
BRANCH   2  21
ATOM     21  C   UNL     1      -4.767  -3.113  -1.132  0.00  0.00    +0.200 C 
BRANCH  21  22
ATOM     22  N   UNL     1      -5.282  -3.136  -2.503  0.00  0.00    -0.303 N 
ATOM     23  C   UNL     1      -6.556  -3.507  -2.738  0.00  0.00    +0.245 C 
ATOM     24  O   UNL     1      -7.278  -3.823  -1.813  0.00  0.00    -0.270 OA
ATOM     25  H   UNL     1      -4.706  -2.884  -3.242  0.00  0.00    +0.150 HD
BRANCH  23  26
ATOM     26  C   UNL     1      -7.076  -3.530  -4.122  0.00  0.00    +0.038 A 
ATOM     27  C   UNL     1      -6.248  -3.172  -5.188  0.00  0.00    +0.014 A 
ATOM     28  C   UNL     1      -6.737  -3.195  -6.476  0.00  0.00    +0.022 A 
ATOM     29  C   UNL     1      -8.049  -3.571  -6.715  0.00  0.00    +0.059 A 
ATOM     30  C   UNL     1      -8.877  -3.927  -5.662  0.00  0.00    +0.060 A 
ATOM     31  C   UNL     1      -8.395  -3.914  -4.368  0.00  0.00    +0.034 A 
ATOM     32 CL   UNL     1     -10.519  -4.396  -5.971  0.00  0.00    -0.082 Cl
ATOM     33 CL   UNL     1      -8.659  -3.596  -8.340  0.00  0.00    -0.082 Cl
ENDBRANCH  23  26
ENDBRANCH  21  22
ENDBRANCH   2  21
TORSDOF 8
