REMARK  Name = ZINC39678362
REMARK  7 active torsions:
REMARK  status: ('A' for Active; 'I' for Inactive)
REMARK    1  A    between atoms: C_1  and  C_2
REMARK    2  A    between atoms: C_5  and  C_9
REMARK    3  A    between atoms: C_6  and  C_8
REMARK    4  A    between atoms: C_13  and  C_22
REMARK    5  A    between atoms: N_24  and  C_25
REMARK    6  A    between atoms: C_25  and  C_26
REMARK    7  A    between atoms: C_31  and  N_32
REMARK                            x       y       z     vdW  Elec       q    Type
REMARK                         _______ _______ _______ _____ _____    ______ ____
ROOT
ATOM      1  C   UNL     1      -0.023  -5.259   0.384  0.00  0.00    +0.247 C 
ATOM      2  O   UNL     1       0.380  -5.793   1.399  0.00  0.00    -0.270 OA
ATOM      3  N   UNL     1      -0.033  -5.942  -0.777  0.00  0.00    -0.296 N 
ATOM      4  C   UNL     1      -0.383  -5.436  -2.126  0.00  0.00    +0.121 C 
ATOM      5  C   UNL     1       0.631  -6.116  -3.073  0.00  0.00    +0.100 C 
ATOM      6  C   UNL     1       1.077  -7.384  -2.327  0.00  0.00    -0.004 C 
ATOM      7  C   UNL     1       0.310  -7.368  -0.996  0.00  0.00    +0.115 C 
ATOM      8  C   UNL     1       2.579  -7.342  -2.063  0.00  0.00    -0.010 C 
ATOM      9  C   UNL     1       3.008  -8.639  -1.371  0.00  0.00    -0.082 C 
ATOM     10  N   UNL     1       2.672  -9.785  -2.225  0.00  0.00    +0.379 N 
ATOM     11  C   UNL     1       1.217  -9.872  -2.397  0.00  0.00    -0.082 C 
ATOM     12  C   UNL     1       0.713  -8.627  -3.132  0.00  0.00    -0.010 C 
ATOM     13  H   UNL     1       3.110  -9.671  -3.127  0.00  0.00    -0.086 HD
ATOM     14  H   UNL     1       3.010 -10.633  -1.795  0.00  0.00    -0.086 HD
ENDROOT
BRANCH   1  19
ATOM     15  C   UNL     1      -1.885   0.184   0.537  0.00  0.00    +0.044 C 
ATOM     16  C   UNL     1      -1.397  -1.242   0.497  0.00  0.00    -0.050 A 
ATOM     17  C   UNL     1      -0.462  -1.623  -0.449  0.00  0.00    +0.004 A 
ATOM     18  C   UNL     1      -0.011  -2.926  -0.490  0.00  0.00    +0.013 A 
ATOM     19  C   UNL     1      -0.501  -3.861   0.424  0.00  0.00    +0.040 A 
ATOM     20  C   UNL     1      -1.444  -3.469   1.375  0.00  0.00    -0.038 A 
ATOM     21  C   UNL     1      -1.883  -2.161   1.409  0.00  0.00    +0.007 A 
ATOM     22  C   UNL     1      -1.979  -4.471   2.365  0.00  0.00    +0.044 C 
ENDBRANCH   1  19
BRANCH   5  23
ATOM     23  C   UNL     1      -0.031  -6.477  -4.378  0.00  0.00    +0.218 C 
ATOM     24  O   UNL     1      -1.137  -6.974  -4.380  0.00  0.00    -0.275 OA
ATOM     25  N   UNL     1       0.607  -6.248  -5.543  0.00  0.00    -0.311 N 
ATOM     26  H   UNL     1       1.492  -5.850  -5.542  0.00  0.00    +0.149 HD
BRANCH  25  27
ATOM     27  C   UNL     1      -0.036  -6.599  -6.812  0.00  0.00    +0.141 C 
BRANCH  27  28
ATOM     28  C   UNL     1       0.879  -6.243  -7.955  0.00  0.00    -0.009 A 
ATOM     29  C   UNL     1       0.679  -5.075  -8.663  0.00  0.00    +0.007 A 
ATOM     30  C   UNL     1       1.519  -4.748  -9.712  0.00  0.00    +0.000 A 
ATOM     31  C   UNL     1       2.561  -5.590 -10.055  0.00  0.00    +0.002 A 
ATOM     32  C   UNL     1       2.767  -6.759  -9.351  0.00  0.00    +0.023 A 
ATOM     33  C   UNL     1       1.929  -7.088  -8.293  0.00  0.00    +0.034 A 
BRANCH  33  34
ATOM     34  N   UNL     1       2.138  -8.268  -7.575  0.00  0.00    -0.330 N 
ATOM     35  C   UNL     1       1.497  -9.522  -7.994  0.00  0.00    +0.105 C 
ATOM     36  C   UNL     1       2.575 -10.599  -8.148  0.00  0.00    +0.019 C 
ATOM     37  C   UNL     1       3.374 -10.705  -6.847  0.00  0.00    +0.003 C 
ATOM     38  C   UNL     1       4.063  -9.369  -6.559  0.00  0.00    +0.019 C 
ATOM     39  C   UNL     1       3.007  -8.280  -6.391  0.00  0.00    +0.105 C 
ENDBRANCH  33  34
ENDBRANCH  27  28
ENDBRANCH  25  27
ENDBRANCH   5  23
TORSDOF 5
