REMARK  Name = ZINC61685149
REMARK  5 active torsions:
REMARK  status: ('A' for Active; 'I' for Inactive)
REMARK    1  A    between atoms: C_1  and  C_2
REMARK    2  A    between atoms: C_3  and  N_17
REMARK    3  A    between atoms: C_7  and  S_8
REMARK    4  A    between atoms: S_8  and  N_11
REMARK    5  A    between atoms: N_11  and  C_12
REMARK                            x       y       z     vdW  Elec       q    Type
REMARK                         _______ _______ _______ _____ _____    ______ ____
ROOT
ATOM      1  C   UNL     1      -0.018   1.503   0.010  0.00  0.00    +0.048 C 
ATOM      2  C   UNL     1       0.002  -0.004   0.002  0.00  0.00    -0.003 A 
ATOM      3  C   UNL     1       0.006  -0.693  -1.204  0.00  0.00    +0.029 A 
ATOM      4  C   UNL     1       0.025  -2.082  -1.208  0.00  0.00    +0.023 A 
ATOM      5  C   UNL     1       0.041  -2.773  -0.012  0.00  0.00    +0.004 A 
ATOM      6  C   UNL     1       0.037  -2.085   1.187  0.00  0.00    +0.029 A 
ATOM      7  C   UNL     1       0.023  -0.702   1.194  0.00  0.00    +0.115 A 
ENDROOT
BRANCH   7   8
ATOM      8  S   UNL     1       0.025   0.171   2.724  0.00  0.00    +0.093 S 
ATOM      9  O   UNL     1      -1.015   1.136   2.643  0.00  0.00    -0.148 OA
ATOM     10  O   UNL     1       0.075  -0.810   3.751  0.00  0.00    -0.148 OA
BRANCH   8  11
ATOM     11  N   UNL     1       1.448   1.014   2.805  0.00  0.00    -0.074 NA
BRANCH  11  12
ATOM     12  C   UNL     1       1.726   1.803   3.916  0.00  0.00    +0.204 A 
ATOM     13  C   UNL     1       2.892   2.577   4.116  0.00  0.00    +0.091 A 
ATOM     14  C   UNL     1       2.785   3.193   5.307  0.00  0.00    +0.232 A 
ATOM     15  O   UNL     1       1.613   2.841   5.857  0.00  0.00    -0.361 OA
ATOM     16  N   UNL     1       0.953   1.965   4.960  0.00  0.00    -0.060 NA
ENDBRANCH  11  12
ENDBRANCH   8  11
ENDBRANCH   7   8
BRANCH   3  17
ATOM     17  N   UNL     1      -0.010   0.010  -2.412  0.00  0.00    -0.358 N 
ATOM     18  H   UNL     1      -0.024   0.980  -2.408  0.00  0.00    +0.142 HD
ATOM     19  H   UNL     1      -0.008  -0.472  -3.253  0.00  0.00    +0.142 HD
ENDBRANCH   3  17
TORSDOF 4
