REMARK  Name = ZINC39638988
REMARK  6 active torsions:
REMARK  status: ('A' for Active; 'I' for Inactive)
REMARK    1  A    between atoms: C_5  and  C_7
REMARK    2  A    between atoms: C_7  and  C_8
REMARK    3  A    between atoms: C_8  and  N_9
REMARK    4  A    between atoms: C_10  and  C_12
REMARK    5  A    between atoms: C_23  and  C_25
REMARK    6  A    between atoms: C_28  and  C_30
REMARK                            x       y       z     vdW  Elec       q    Type
REMARK                         _______ _______ _______ _____ _____    ______ ____
ROOT
ATOM      1  C   UNL     1       1.536  -6.353   2.551  0.00  0.00    +0.100 C 
ATOM      2  C   UNL     1       2.691  -6.871   1.664  0.00  0.00    +0.121 C 
ATOM      3  N   UNL     1       3.809  -7.110   2.607  0.00  0.00    -0.294 N 
ATOM      4  C   UNL     1       3.160  -7.685   3.810  0.00  0.00    +0.115 C 
ATOM      5  C   UNL     1       1.846  -6.893   3.958  0.00  0.00    -0.004 C 
ATOM      6  C   UNL     1       0.725  -7.814   4.429  0.00  0.00    -0.010 C 
ATOM      7  C   UNL     1       1.027  -8.291   5.853  0.00  0.00    -0.082 C 
ATOM      8  N   UNL     1       1.143  -7.132   6.745  0.00  0.00    +0.379 N 
ATOM      9  C   UNL     1       2.283  -6.300   6.340  0.00  0.00    -0.082 C 
ATOM     10  C   UNL     1       2.034  -5.738   4.937  0.00  0.00    -0.010 C 
ATOM     11  C   UNL     1       5.120  -6.861   2.415  0.00  0.00    +0.282 C 
ATOM     12  O   UNL     1       5.923  -7.115   3.293  0.00  0.00    -0.267 OA
ATOM     13  H   UNL     1       0.296  -6.585   6.697  0.00  0.00    -0.086 HD
ATOM     14  H   UNL     1       1.282  -7.451   7.692  0.00  0.00    -0.086 HD
ENDROOT
BRANCH  11  15
ATOM     15  C   UNL     1       5.577  -6.284   1.148  0.00  0.00    +0.190 A 
ATOM     16  C   UNL     1       6.882  -5.987   0.820  0.00  0.00    +0.055 A 
ATOM     17  C   UNL     1       6.861  -5.459  -0.475  0.00  0.00    +0.051 A 
ATOM     18  C   UNL     1       5.559  -5.453  -0.886  0.00  0.00    +0.139 A 
ATOM     19  O   UNL     1       4.795  -5.958   0.098  0.00  0.00    -0.450 OA
BRANCH  18  20
ATOM     20  C   UNL     1       5.072  -4.978  -2.196  0.00  0.00    +0.052 A 
ATOM     21  C   UNL     1       5.465  -3.728  -2.680  0.00  0.00    +0.014 A 
ATOM     22  C   UNL     1       5.006  -3.290  -3.904  0.00  0.00    +0.001 A 
ATOM     23  C   UNL     1       4.157  -4.084  -4.655  0.00  0.00    +0.003 A 
ATOM     24  C   UNL     1       3.761  -5.323  -4.184  0.00  0.00    +0.039 A 
ATOM     25  C   UNL     1       4.218  -5.779  -2.961  0.00  0.00    +0.134 A 
ATOM     26  F   UNL     1       3.836  -6.991  -2.505  0.00  0.00    -0.205 F 
ENDBRANCH  18  20
ENDBRANCH  11  15
BRANCH   1  28
ATOM     27  N   UNL     1       0.356  -4.189   2.754  0.00  0.00    -0.315 N 
ATOM     28  C   UNL     1       1.516  -4.847   2.560  0.00  0.00    +0.218 C 
ATOM     29  O   UNL     1       2.544  -4.225   2.393  0.00  0.00    -0.275 OA
ATOM     30  H   UNL     1      -0.467  -4.686   2.887  0.00  0.00    +0.149 HD
BRANCH  27  31
ATOM     31  C   UNL     1       0.336  -2.724   2.762  0.00  0.00    +0.109 C 
BRANCH  31  32
ATOM     32  C   UNL     1      -1.094  -2.235   3.000  0.00  0.00    +0.056 C 
BRANCH  32  37
ATOM     33  C   UNL     1      -1.052   1.340   4.214  0.00  0.00    +0.000 A 
ATOM     34  C   UNL     1      -1.152   2.038   3.025  0.00  0.00    +0.003 A 
ATOM     35  C   UNL     1      -1.233   1.355   1.827  0.00  0.00    +0.038 A 
ATOM     36  C   UNL     1      -1.214  -0.030   1.817  0.00  0.00    +0.127 A 
ATOM     37  C   UNL     1      -1.114  -0.728   3.008  0.00  0.00    -0.011 A 
ATOM     38  C   UNL     1      -1.033  -0.042   4.206  0.00  0.00    +0.006 A 
ATOM     39  F   UNL     1      -1.294  -0.699   0.646  0.00  0.00    -0.205 F 
ENDBRANCH  32  37
ENDBRANCH  31  32
ENDBRANCH  27  31
ENDBRANCH   1  28
TORSDOF 6
