REMARK  Name = ZINC01283362
REMARK  6 active torsions:
REMARK  status: ('A' for Active; 'I' for Inactive)
REMARK    1  A    between atoms: C_1  and  C_2
REMARK    2  A    between atoms: C_16  and  C_18
REMARK    3  A    between atoms: C_21  and  O_26
REMARK    4  A    between atoms: C_22  and  O_24
REMARK    5  A    between atoms: O_24  and  C_25
REMARK    6  A    between atoms: C_31  and  C_33
REMARK                            x       y       z     vdW  Elec       q    Type
REMARK                         _______ _______ _______ _____ _____    ______ ____
ROOT
ATOM      1  C   UNL     1       0.265  -7.287   9.610  0.00  0.00    +0.044 C 
ATOM      2  C   UNL     1       0.189  -6.131   8.646  0.00  0.00    -0.050 A 
ATOM      3  C   UNL     1       0.057  -4.837   9.129  0.00  0.00    +0.007 A 
ATOM      4  C   UNL     1      -0.014  -3.765   8.266  0.00  0.00    +0.047 A 
ATOM      5  C   UNL     1       0.047  -3.977   6.891  0.00  0.00    +0.139 A 
ATOM      6  C   UNL     1       0.181  -5.291   6.412  0.00  0.00    +0.065 A 
ATOM      7  C   UNL     1       0.252  -6.363   7.300  0.00  0.00    +0.018 A 
ATOM      8  C   UNL     1       0.244  -5.495   4.951  0.00  0.00    +0.199 A 
ATOM      9  O   UNL     1       0.360  -6.606   4.464  0.00  0.00    -0.287 OA
ATOM     10  C   UNL     1       0.160  -4.294   4.115  0.00  0.00    +0.072 A 
ATOM     11  C   UNL     1       0.032  -3.076   4.695  0.00  0.00    +0.199 A 
ATOM     12  O   UNL     1      -0.022  -2.942   6.035  0.00  0.00    -0.450 OA
ATOM     13  C   UNL     1      -0.024  -2.051   3.623  0.00  0.00    +0.288 C 
ATOM     14  O   UNL     1      -0.133  -0.856   3.809  0.00  0.00    -0.266 OA
ATOM     15  N   UNL     1       0.061  -2.637   2.416  0.00  0.00    -0.238 N 
ATOM     16  C   UNL     1       0.186  -4.085   2.623  0.00  0.00    +0.151 C 
ATOM     17  C   UNL     1       0.040  -1.984   1.186  0.00  0.00    +0.129 A 
ATOM     18  C   UNL     1       0.039  -2.728   0.011  0.00  0.00    +0.044 A 
ATOM     19  C   UNL     1       0.019  -2.067  -1.204  0.00  0.00    +0.005 A 
ATOM     20  C   UNL     1      -0.006  -0.679  -1.202  0.00  0.00    +0.023 A 
ATOM     21  C   UNL     1       0.002  -0.004   0.002  0.00  0.00    +0.040 A 
ATOM     22  N   UNL     1       0.022  -0.661   1.146  0.00  0.00    -0.237 NA
ATOM     23  C   UNL     1      -0.018   1.503   0.010  0.00  0.00    +0.065 C 
ENDROOT
BRANCH  16  24
ATOM     24  C   UNL     1      -0.969  -4.804   1.976  0.00  0.00    -0.018 A 
ATOM     25  C   UNL     1      -2.238  -4.258   2.030  0.00  0.00    +0.009 A 
ATOM     26  C   UNL     1      -3.301  -4.911   1.433  0.00  0.00    +0.049 A 
ATOM     27  C   UNL     1      -3.097  -6.120   0.788  0.00  0.00    +0.158 A 
ATOM     28  C   UNL     1      -1.820  -6.672   0.739  0.00  0.00    +0.162 A 
ATOM     29  C   UNL     1      -0.759  -6.010   1.335  0.00  0.00    +0.055 A 
BRANCH  28  30
ATOM     30  O   UNL     1      -1.615  -7.859   0.107  0.00  0.00    -0.491 OA
ATOM     31  C   UNL     1      -0.279  -8.365   0.096  0.00  0.00    +0.277 C 
ENDBRANCH  28  30
BRANCH  27  32
ATOM     32  O   UNL     1      -4.142  -6.767   0.206  0.00  0.00    -0.503 OA
ATOM     33  H   UNL     1      -4.600  -7.383   0.793  0.00  0.00    +0.292 HD
ENDBRANCH  27  32
ENDBRANCH  16  24
TORSDOF 3
