REMARK  Name = ZINC33170012
REMARK  7 active torsions:
REMARK  status: ('A' for Active; 'I' for Inactive)
REMARK    1  A    between atoms: C_1  and  C_2
REMARK    2  A    between atoms: C_5  and  C_7
REMARK    3  A    between atoms: C_7  and  N_8
REMARK    4  A    between atoms: C_9  and  C_11
REMARK    5  A    between atoms: C_14  and  C_16
REMARK    6  A    between atoms: C_19  and  S_22
REMARK    7  A    between atoms: S_22  and  N_25
REMARK                            x       y       z     vdW  Elec       q    Type
REMARK                         _______ _______ _______ _____ _____    ______ ____
ROOT
ATOM      1  C   UNL     1       2.483   5.421   3.025  0.00  0.00    +0.304 A 
ATOM      2  N   UNL     1       2.263   4.711   4.109  0.00  0.00    -0.102 NA
ATOM      3  N   UNL     1       2.511   5.431   5.147  0.00  0.00    -0.107 NA
ATOM      4  C   UNL     1       2.900   6.631   4.763  0.00  0.00    +0.249 A 
ATOM      5  O   UNL     1       2.895   6.645   3.418  0.00  0.00    -0.412 OA
ENDROOT
BRANCH   4   6
ATOM      6  C   UNL     1       3.278   7.752   5.647  0.00  0.00    +0.039 A 
ATOM      7  C   UNL     1       3.678   8.973   5.100  0.00  0.00    +0.015 A 
ATOM      8  C   UNL     1       4.026  10.016   5.932  0.00  0.00    +0.029 A 
ATOM      9  C   UNL     1       3.988   9.853   7.306  0.00  0.00    +0.106 A 
ATOM     10  C   UNL     1       3.598   8.644   7.854  0.00  0.00    +0.029 A 
ATOM     11  C   UNL     1       3.243   7.593   7.034  0.00  0.00    +0.015 A 
BRANCH   9  12
ATOM     12  S   UNL     1       4.441  11.189   8.361  0.00  0.00    +0.061 S 
ATOM     13  O   UNL     1       4.244  12.382   7.613  0.00  0.00    -0.153 OA
ATOM     14  O   UNL     1       3.800  10.957   9.607  0.00  0.00    -0.153 OA
BRANCH  12  15
ATOM     15  N   UNL     1       6.069  11.067   8.635  0.00  0.00    -0.177 NA
ATOM     16  C   UNL     1       6.699  10.325   9.738  0.00  0.00    +0.109 C 
ATOM     17  C   UNL     1       8.225  10.513   9.604  0.00  0.00    +0.018 C 
ATOM     18  C   UNL     1       8.341  11.818   8.773  0.00  0.00    +0.018 C 
ATOM     19  C   UNL     1       7.128  11.688   7.818  0.00  0.00    +0.109 C 
ENDBRANCH  12  15
ENDBRANCH   9  12
ENDBRANCH   4   6
BRANCH   1  21
ATOM     20  N   UNL     1       1.901   3.705   1.386  0.00  0.00    -0.300 N 
ATOM     21  C   UNL     1       2.316   4.962   1.635  0.00  0.00    +0.301 C 
ATOM     22  O   UNL     1       2.554   5.718   0.713  0.00  0.00    -0.265 OA
ATOM     23  H   UNL     1       1.686   3.021   2.220  0.00  0.00    +0.150 HD
BRANCH  20  24
ATOM     24  C   UNL     1       1.735   3.249   0.003  0.00  0.00    +0.179 C 
BRANCH  24  29
ATOM     25  C   UNL     1       1.803  -1.795  -0.024  0.00  0.00    +0.086 C 
ATOM     26  C   UNL     1       1.295  -0.376  -0.012  0.00  0.00    +0.102 A 
ATOM     27  C   UNL     1       0.002  -0.004   0.002  0.00  0.00    +0.045 A 
ATOM     28  C   UNL     1      -0.017   1.410   0.010  0.00  0.00    +0.046 A 
ATOM     29  C   UNL     1       1.265   1.817  -0.000  0.00  0.00    +0.122 A 
ATOM     30  O   UNL     1       2.055   0.731  -0.014  0.00  0.00    -0.463 OA
ENDBRANCH  24  29
ENDBRANCH  20  24
ENDBRANCH   1  21
TORSDOF 6
