REMARK  Name = ZINC35388499
REMARK  9 active torsions:
REMARK  status: ('A' for Active; 'I' for Inactive)
REMARK    1  A    between atoms: C_1  and  C_2
REMARK    2  A    between atoms: N_11  and  C_15
REMARK    3  A    between atoms: C_15  and  N_16
REMARK    4  A    between atoms: N_16  and  C_17
REMARK    5  A    between atoms: N_16  and  C_30
REMARK    6  A    between atoms: C_17  and  C_18
REMARK    7  A    between atoms: C_21  and  C_23
REMARK    8  A    between atoms: C_30  and  C_31
REMARK    9  A    between atoms: C_30  and  C_32
REMARK                            x       y       z     vdW  Elec       q    Type
REMARK                         _______ _______ _______ _____ _____    ______ ____
ROOT
ATOM      1  N   UNL     1       3.941   3.040   2.469  0.00  0.00    +0.398 N 
ATOM      2  H   UNL     1       3.309   3.811   2.623  0.00  0.00    -0.078 HD
ENDROOT
BRANCH   1   3
ATOM      3  C   UNL     1       3.837   2.593   1.074  0.00  0.00    -0.072 C 
ATOM      4  C   UNL     1       4.689   1.338   0.875  0.00  0.00    -0.013 C 
ATOM      5  C   UNL     1       2.377   2.275   0.748  0.00  0.00    -0.013 C 
ENDBRANCH   1   3
BRANCH   1   6
ATOM      6  C   UNL     1       3.589   1.931   3.366  0.00  0.00    +0.044 C 
BRANCH   6  16
ATOM      7  C   UNL     1       2.987   0.759   7.623  0.00  0.00    +0.010 C 
ATOM      8  C   UNL     1       3.972   1.854   8.037  0.00  0.00    +0.018 C 
ATOM      9  C   UNL     1       3.466   2.541   9.308  0.00  0.00    +0.006 C 
ATOM     10  C   UNL     1       4.442   3.649   9.710  0.00  0.00    +0.000 C 
ATOM     11  C   UNL     1       4.535   4.682   8.585  0.00  0.00    +0.003 C 
ATOM     12  C   UNL     1       5.044   4.003   7.311  0.00  0.00    +0.035 C 
ATOM     13  C   UNL     1       4.091   2.880   6.916  0.00  0.00    +0.115 C 
ATOM     14  C   UNL     1       4.556   2.217   5.640  0.00  0.00    +0.245 C 
ATOM     15  O   UNL     1       5.602   1.633   5.456  0.00  0.00    -0.273 OA
ATOM     16  N   UNL     1       3.561   2.412   4.750  0.00  0.00    -0.241 N 
ATOM     17  C   UNL     1       2.546   3.100   5.287  0.00  0.00    +0.308 C 
ATOM     18  O   UNL     1       1.536   3.399   4.680  0.00  0.00    -0.252 OA
ATOM     19  N   UNL     1       2.770   3.424   6.575  0.00  0.00    -0.285 N 
ATOM     20  H   UNL     1       2.176   3.918   7.161  0.00  0.00    +0.151 HD
ENDBRANCH   6  16
ENDBRANCH   1   6
BRANCH   1  21
ATOM     21  C   UNL     1       5.318   3.473   2.743  0.00  0.00    +0.023 C 
BRANCH  21  22
ATOM     22  C   UNL     1       5.642   4.680   1.901  0.00  0.00    +0.202 A 
ATOM     23  N   UNL     1       5.394   5.922   2.209  0.00  0.00    -0.114 NA
ATOM     24  N   UNL     1       5.804   6.690   1.262  0.00  0.00    -0.107 NA
ATOM     25  C   UNL     1       6.332   5.958   0.309  0.00  0.00    +0.249 A 
ATOM     26  O   UNL     1       6.244   4.671   0.699  0.00  0.00    -0.422 OA
BRANCH  25  27
ATOM     27  C   UNL     1       6.919   6.453  -0.955  0.00  0.00    +0.052 A 
ATOM     28  C   UNL     1       7.441   5.553  -1.885  0.00  0.00    +0.014 A 
ATOM     29  C   UNL     1       7.987   6.021  -3.062  0.00  0.00    +0.001 A 
ATOM     30  C   UNL     1       8.018   7.380  -3.322  0.00  0.00    +0.001 A 
ATOM     31  C   UNL     1       7.503   8.278  -2.405  0.00  0.00    +0.016 A 
ATOM     32  C   UNL     1       6.949   7.822  -1.225  0.00  0.00    +0.030 A 
ATOM     33 BR   UNL     1       6.237   9.051   0.025  0.00  0.00    -0.050 Br
ENDBRANCH  25  27
ENDBRANCH  21  22
ENDBRANCH   1  21
TORSDOF 6
