REMARK  Name = ZINC63362199
REMARK  7 active torsions:
REMARK  status: ('A' for Active; 'I' for Inactive)
REMARK    1  A    between atoms: C_1  and  C_2
REMARK    2  A    between atoms: C_2  and  C_3
REMARK    3  A    between atoms: C_3  and  C_4
REMARK    4  A    between atoms: C_4  and  N_5
REMARK    5  A    between atoms: C_6  and  C_8
REMARK    6  A    between atoms: C_13  and  N_14
REMARK    7  A    between atoms: C_17  and  C_33
REMARK                            x       y       z     vdW  Elec       q    Type
REMARK                         _______ _______ _______ _____ _____    ______ ____
ROOT
ATOM      1  N   UNL     1       1.894  -6.598  -3.227  0.00  0.00    -0.192 N 
ATOM      2  C   UNL     1       0.649  -7.114  -3.283  0.00  0.00    +0.253 C 
ATOM      3  O   UNL     1      -0.216  -6.850  -4.090  0.00  0.00    -0.272 OA
ATOM      4  C   UNL     1       0.557  -8.092  -2.132  0.00  0.00    +0.137 C 
ATOM      5  C   UNL     1      -0.534  -7.650  -1.151  0.00  0.00    +0.139 C 
ATOM      6  C   UNL     1      -0.210  -8.312   0.183  0.00  0.00    -0.034 C 
ATOM      7  C   UNL     1      -1.280  -9.028   0.514  0.00  0.00    -0.001 A 
ATOM      8  C   UNL     1      -1.586  -9.832   1.708  0.00  0.00    +0.010 A 
ATOM      9  C   UNL     1      -2.794 -10.455   1.718  0.00  0.00    +0.001 A 
ATOM     10  C   UNL     1      -3.717 -10.359   0.672  0.00  0.00    +0.002 A 
ATOM     11  C   UNL     1      -3.521  -9.638  -0.461  0.00  0.00    +0.026 A 
ATOM     12  C   UNL     1      -2.287  -8.935  -0.586  0.00  0.00    +0.043 A 
ATOM     13  N   UNL     1      -1.849  -8.159  -1.549  0.00  0.00    -0.375 N 
ATOM     14  C   UNL     1       1.124  -8.172   0.874  0.00  0.00    +0.052 C 
ATOM     15  C   UNL     1       2.211  -8.537  -0.157  0.00  0.00    +0.115 C 
ATOM     16  N   UNL     1       1.854  -7.919  -1.438  0.00  0.00    -0.268 N 
ATOM     17  C   UNL     1       2.586  -7.087  -2.189  0.00  0.00    +0.317 C 
ATOM     18  O   UNL     1       3.745  -6.805  -1.955  0.00  0.00    -0.252 OA
ATOM     19  C   UNL     1       0.353  -9.529  -2.617  0.00  0.00    +0.044 C 
ATOM     20  H   UNL     1      -2.307  -7.958  -2.380  0.00  0.00    +0.160 HD
ENDROOT
BRANCH   1  26
ATOM     21  C   UNL     1       2.254  -4.298  -3.906  0.00  0.00    +0.059 A 
ATOM     22  C   UNL     1       2.771  -3.382  -4.825  0.00  0.00    +0.015 A 
ATOM     23  C   UNL     1       3.415  -3.832  -5.957  0.00  0.00    +0.001 A 
ATOM     24  C   UNL     1       3.554  -5.191  -6.189  0.00  0.00    +0.002 A 
ATOM     25  C   UNL     1       3.048  -6.108  -5.289  0.00  0.00    +0.025 A 
ATOM     26  C   UNL     1       2.401  -5.672  -4.141  0.00  0.00    +0.058 A 
BRANCH  21  28
ATOM     27  N   UNL     1       1.425  -2.500  -2.470  0.00  0.00    -0.311 N 
ATOM     28  C   UNL     1       1.564  -3.822  -2.692  0.00  0.00    +0.246 C 
ATOM     29  O   UNL     1       1.120  -4.622  -1.892  0.00  0.00    -0.270 OA
ATOM     30  H   UNL     1       1.779  -1.861  -3.109  0.00  0.00    +0.149 HD
BRANCH  27  31
ATOM     31  C   UNL     1       0.739  -2.027  -1.265  0.00  0.00    +0.104 C 
BRANCH  31  32
ATOM     32  C   UNL     1       0.718  -0.497  -1.257  0.00  0.00    +0.018 C 
BRANCH  32  34
ATOM     33  C   UNL     1      -0.019   1.526   0.010  0.00  0.00    +0.004 C 
ATOM     34  C   UNL     1       0.002  -0.004   0.002  0.00  0.00    -0.002 C 
ENDBRANCH  32  34
ENDBRANCH  31  32
ENDBRANCH  27  31
ENDBRANCH  21  28
ENDBRANCH   1  26
TORSDOF 5
