REMARK  Name = ZINC09379513
REMARK  8 active torsions:
REMARK  status: ('A' for Active; 'I' for Inactive)
REMARK    1  A    between atoms: C_1  and  C_2
REMARK    2  A    between atoms: C_5  and  S_8
REMARK    3  A    between atoms: S_8  and  N_11
REMARK    4  A    between atoms: C_15  and  C_17
REMARK    5  A    between atoms: N_19  and  C_20
REMARK    6  A    between atoms: C_20  and  C_21
REMARK    7  A    between atoms: C_21  and  N_22
REMARK    8  A    between atoms: C_23  and  C_31
REMARK                            x       y       z     vdW  Elec       q    Type
REMARK                         _______ _______ _______ _____ _____    ______ ____
ROOT
ATOM      1  C   UNL     1       3.482   7.431  -2.917  0.00  0.00    +0.232 C 
ATOM      2  O   UNL     1       2.936   7.197  -3.974  0.00  0.00    -0.274 OA
ATOM      3  N   UNL     1       3.513   6.491  -1.951  0.00  0.00    -0.312 N 
ATOM      4  H   UNL     1       3.950   6.679  -1.105  0.00  0.00    +0.149 HD
ENDROOT
BRANCH   1   9
ATOM      5  N   UNL     1       4.533   9.364  -3.966  0.00  0.00    -0.165 NA
ATOM      6  C   UNL     1       3.801  10.629  -4.158  0.00  0.00    +0.110 C 
ATOM      7  C   UNL     1       3.425  11.091  -2.728  0.00  0.00    +0.019 C 
ATOM      8  C   UNL     1       3.109   9.737  -2.034  0.00  0.00    +0.031 C 
ATOM      9  C   UNL     1       4.125   8.774  -2.682  0.00  0.00    +0.165 C 
BRANCH   5  10
ATOM     10  S   UNL     1       5.633   8.715  -5.020  0.00  0.00    +0.062 S 
ATOM     11  O   UNL     1       5.768   7.344  -4.673  0.00  0.00    -0.153 OA
ATOM     12  O   UNL     1       5.247   9.138  -6.320  0.00  0.00    -0.153 OA
BRANCH  10  17
ATOM     13  C   UNL     1      10.955  11.316  -3.869  0.00  0.00    +0.044 C 
ATOM     14  C   UNL     1       9.626  10.666  -4.157  0.00  0.00    -0.050 A 
ATOM     15  C   UNL     1       9.302   9.461  -3.561  0.00  0.00    +0.005 A 
ATOM     16  C   UNL     1       8.083   8.866  -3.825  0.00  0.00    +0.029 A 
ATOM     17  C   UNL     1       7.187   9.475  -4.684  0.00  0.00    +0.106 A 
ATOM     18  C   UNL     1       7.513  10.677  -5.284  0.00  0.00    +0.029 A 
ATOM     19  C   UNL     1       8.731  11.275  -5.017  0.00  0.00    +0.005 A 
ENDBRANCH  10  17
ENDBRANCH   5  10
ENDBRANCH   1   9
BRANCH   3  20
ATOM     20  C   UNL     1       2.888   5.186  -2.179  0.00  0.00    +0.126 C 
BRANCH  20  21
ATOM     21  C   UNL     1       3.064   4.312  -0.936  0.00  0.00    +0.142 C 
BRANCH  21  22
ATOM     22  N   UNL     1       2.439   3.007  -1.163  0.00  0.00    -0.326 N 
ATOM     23  C   UNL     1       3.039   1.907  -1.692  0.00  0.00    +0.108 A 
ATOM     24  N   UNL     1       2.192   0.921  -1.753  0.00  0.00    -0.233 NA
ATOM     25  C   UNL     1       0.989   1.322  -1.267  0.00  0.00    +0.089 A 
ATOM     26  C   UNL     1       1.131   2.666  -0.882  0.00  0.00    +0.069 A 
ATOM     27  C   UNL     1       0.049   3.348  -0.344  0.00  0.00    +0.028 A 
ATOM     28  C   UNL     1      -1.159   2.700  -0.190  0.00  0.00    +0.002 A 
ATOM     29  C   UNL     1      -1.300   1.375  -0.575  0.00  0.00    +0.002 A 
ATOM     30  C   UNL     1      -0.244   0.686  -1.102  0.00  0.00    +0.030 A 
ATOM     31  C   UNL     1       4.476   1.839  -2.142  0.00  0.00    +0.086 C 
ENDBRANCH  21  22
ENDBRANCH  20  21
ENDBRANCH   3  20
TORSDOF 6
