REMARK  Name = ZINC23610003
REMARK  11 active torsions:
REMARK  status: ('A' for Active; 'I' for Inactive)
REMARK    1  A    between atoms: C_1  and  C_2
REMARK    2  A    between atoms: C_18  and  S_19
REMARK    3  A    between atoms: S_19  and  C_20
REMARK    4  A    between atoms: C_20  and  C_21
REMARK    5  A    between atoms: C_22  and  C_31
REMARK    6  A    between atoms: C_23  and  N_30
REMARK    7  A    between atoms: C_25  and  C_26
REMARK    8  A    between atoms: C_26  and  O_28
REMARK    9  A    between atoms: O_28  and  C_29
REMARK   10  A    between atoms: C_31  and  O_33
REMARK   11  A    between atoms: O_33  and  C_34
REMARK                            x       y       z     vdW  Elec       q    Type
REMARK                         _______ _______ _______ _____ _____    ______ ____
ROOT
ATOM      1  C   UNL     1       1.294   4.586   7.717  0.00  0.00    +0.045 C 
ATOM      2  C   UNL     1       1.373   5.155   6.324  0.00  0.00    -0.032 A 
ATOM      3  C   UNL     1       2.594   5.247   5.671  0.00  0.00    +0.008 A 
ATOM      4  C   UNL     1       2.622   5.776   4.393  0.00  0.00    +0.047 A 
ATOM      5  C   UNL     1       1.433   6.194   3.808  0.00  0.00    +0.142 A 
ATOM      6  N   UNL     1       0.288   6.095   4.465  0.00  0.00    -0.237 NA
ATOM      7  C   UNL     1       0.230   5.591   5.682  0.00  0.00    +0.116 A 
ATOM      8  N   UNL     1       1.446   6.730   2.518  0.00  0.00    -0.239 N 
ATOM      9  C   UNL     1       1.637   8.058   2.345  0.00  0.00    +0.268 A 
ATOM     10  O   UNL     1       1.799   8.802   3.295  0.00  0.00    -0.267 OA
ATOM     11  C   UNL     1       1.643   8.570   0.968  0.00  0.00    +0.065 A 
ATOM     12  C   UNL     1       1.832   9.922   0.686  0.00  0.00    +0.015 A 
ATOM     13  C   UNL     1       1.829  10.346  -0.614  0.00  0.00    +0.001 A 
ATOM     14  C   UNL     1       1.639   9.445  -1.654  0.00  0.00    +0.002 A 
ATOM     15  C   UNL     1       1.450   8.115  -1.406  0.00  0.00    +0.028 A 
ATOM     16  C   UNL     1       1.449   7.650  -0.087  0.00  0.00    +0.079 A 
ATOM     17  N   UNL     1       1.272   6.340   0.203  0.00  0.00    -0.223 NA
ATOM     18  C   UNL     1       1.266   5.907   1.440  0.00  0.00    +0.178 A 
ENDROOT
BRANCH  18  19
ATOM     19  S   UNL     1       1.023   4.186   1.727  0.00  0.00    -0.082 S 
BRANCH  19  20
ATOM     20  C   UNL     1       0.846   3.605   0.021  0.00  0.00    +0.114 C 
BRANCH  20  21
ATOM     21  C   UNL     1       0.622   2.115   0.019  0.00  0.00    -0.000 A 
ATOM     22  C   UNL     1      -0.656   1.582   0.080  0.00  0.00    +0.092 A 
ATOM     23  C   UNL     1      -0.780   0.186   0.072  0.00  0.00    +0.078 A 
ATOM     24  S   UNL     1       0.866  -0.349  -0.017  0.00  0.00    -0.066 S 
ATOM     25  C   UNL     1       1.674   1.240  -0.043  0.00  0.00    +0.103 A 
BRANCH  23  26
ATOM     26  N   UNL     1      -1.926  -0.573   0.123  0.00  0.00    -0.352 N 
ATOM     27  H   UNL     1      -1.859  -1.671   0.110  0.00  0.00    +0.143 HD
ATOM     28  H   UNL     1      -2.909  -0.082   0.178  0.00  0.00    +0.143 HD
ENDBRANCH  23  26
BRANCH  25  29
ATOM     29  C   UNL     1       3.103   1.536  -0.113  0.00  0.00    +0.346 C 
ATOM     30  O   UNL     1       3.486   2.691  -0.122  0.00  0.00    -0.244 OA
BRANCH  29  31
ATOM     31  O   UNL     1       3.999   0.529  -0.168  0.00  0.00    -0.464 OA
ATOM     32  C   UNL     1       5.380   0.891  -0.234  0.00  0.00    +0.280 C 
ENDBRANCH  29  31
ENDBRANCH  25  29
BRANCH  22  33
ATOM     33  C   UNL     1      -1.837   2.448   0.142  0.00  0.00    +0.342 C 
ATOM     34  O   UNL     1      -2.278   2.798   1.220  0.00  0.00    -0.245 OA
BRANCH  33  35
ATOM     35  O   UNL     1      -2.435   2.857  -0.995  0.00  0.00    -0.464 OA
ATOM     36  C   UNL     1      -3.600   3.713  -0.857  0.00  0.00    +0.280 C 
ENDBRANCH  33  35
ENDBRANCH  22  33
ENDBRANCH  20  21
ENDBRANCH  19  20
ENDBRANCH  18  19
TORSDOF 8
