REMARK  Name = ZINC17878914
REMARK  5 active torsions:
REMARK  status: ('A' for Active; 'I' for Inactive)
REMARK    1  A    between atoms: C_1  and  C_2
REMARK    2  A    between atoms: C_7  and  N_8
REMARK    3  A    between atoms: C_7  and  N_48
REMARK    4  A    between atoms: C_15  and  C_18
REMARK    5  A    between atoms: C_15  and  O_26
REMARK                            x       y       z     vdW  Elec       q    Type
REMARK                         _______ _______ _______ _____ _____    ______ ____
ROOT
ATOM      1  N   UNL     1      -2.541   1.277   0.033  0.00  0.00    -0.285 N 
ATOM      2  C   UNL     1      -1.230   1.755   0.017  0.00  0.00    +0.041 A 
ATOM      3  C   UNL     1      -0.013   1.076   0.008  0.00  0.00    +0.024 A 
ATOM      4  C   UNL     1       1.173   1.780   0.000  0.00  0.00    +0.002 A 
ATOM      5  C   UNL     1       1.165   3.163   0.008  0.00  0.00    +0.000 A 
ATOM      6  C   UNL     1      -0.039   3.845   0.023  0.00  0.00    +0.009 A 
ATOM      7  C   UNL     1      -1.224   3.144   0.031  0.00  0.00    +0.016 A 
ATOM      8  C   UNL     1      -2.673   3.574   0.047  0.00  0.00    +0.189 C 
ATOM      9  C   UNL     1      -3.444   2.271   0.047  0.00  0.00    +0.256 C 
ATOM     10  O   UNL     1      -4.651   2.148   0.058  0.00  0.00    -0.272 OA
ENDROOT
BRANCH   8  11
ATOM     11  C   UNL     1      -2.979   4.379   1.312  0.00  0.00    +0.187 C 
ATOM     12  C   UNL     1      -4.412   4.898   1.308  0.00  0.00    +0.255 C 
ATOM     13  O   UNL     1      -5.381   4.164   1.300  0.00  0.00    -0.272 OA
ATOM     14  N   UNL     1      -4.507   6.201   1.313  0.00  0.00    -0.159 NA
ATOM     15  C   UNL     1      -3.469   7.023   1.320  0.00  0.00    +0.145 C 
ATOM     16  S   UNL     1      -2.080   5.981   1.322  0.00  0.00    -0.077 S 
ATOM     17  N   UNL     1      -3.487   8.387   1.325  0.00  0.00    -0.340 N 
ATOM     18  H   UNL     1      -2.654   8.883   1.330  0.00  0.00    +0.144 HD
ATOM     19  H   UNL     1      -4.334   8.861   1.323  0.00  0.00    +0.144 HD
ENDBRANCH   8  11
BRANCH   8  20
ATOM     20  O   UNL     1      -2.981   4.341  -1.119  0.00  0.00    -0.373 OA
ATOM     21  H   UNL     1      -2.833   3.869  -1.950  0.00  0.00    +0.211 HD
ENDBRANCH   8  20
BRANCH   1  22
ATOM     22  C   UNL     1      -2.892  -0.145   0.028  0.00  0.00    +0.038 C 
BRANCH  22  29
ATOM     23  C   UNL     1      -4.119  -2.498  -5.035  0.00  0.00    +0.007 C 
ATOM     24  C   UNL     1      -4.133  -2.129  -3.550  0.00  0.00    -0.018 C 
ATOM     25  C   UNL     1      -2.783  -2.483  -2.921  0.00  0.00    -0.015 C 
ATOM     26  C   UNL     1      -2.783  -2.058  -1.451  0.00  0.00    -0.076 C 
ATOM     27  C   UNL     1      -4.334  -0.255  -1.913  0.00  0.00    -0.076 C 
ATOM     28  C   UNL     1      -4.380  -0.626  -3.397  0.00  0.00    -0.015 C 
ATOM     29  N   UNL     1      -3.001  -0.598  -1.374  0.00  0.00    +0.390 N 
ATOM     30  H   UNL     1      -2.283  -0.124  -1.934  0.00  0.00    -0.080 HD
ENDBRANCH  22  29
ENDBRANCH   1  22
TORSDOF 4
