REMARK  Name = ZINC05569268
REMARK  9 active torsions:
REMARK  status: ('A' for Active; 'I' for Inactive)
REMARK    1  A    between atoms: C_3  and  O_30
REMARK    2  A    between atoms: C_6  and  C_7
REMARK    3  A    between atoms: N_8  and  N_9
REMARK    4  A    between atoms: C_10  and  C_12
REMARK    5  A    between atoms: C_12  and  N_56
REMARK    6  A    between atoms: C_15  and  C_18
REMARK    7  A    between atoms: N_20  and  N_21
REMARK    8  A    between atoms: C_22  and  C_23
REMARK    9  A    between atoms: C_26  and  O_29
REMARK                            x       y       z     vdW  Elec       q    Type
REMARK                         _______ _______ _______ _____ _____    ______ ____
ROOT
ATOM      1  C   UNL     1      -9.720   0.771   0.151  0.00  0.00    -0.077 C 
ATOM      2  C   UNL     1      -8.418   1.569   0.266  0.00  0.00    -0.006 C 
ATOM      3  C   UNL     1      -7.232   0.644  -0.016  0.00  0.00    +0.073 C 
ATOM      4  C   UNL     1      -7.395   0.028  -1.409  0.00  0.00    -0.006 C 
ATOM      5  C   UNL     1      -8.725  -0.725  -1.475  0.00  0.00    -0.077 C 
ATOM      6  N   UNL     1      -9.828   0.226  -1.219  0.00  0.00    +0.385 N 
ATOM      7  H   UNL     1      -9.764   0.999  -1.891  0.00  0.00    -0.081 HD
ENDROOT
BRANCH   3   8
ATOM      8  C   UNL     1      -5.951   1.437   0.037  0.00  0.00    +0.235 C 
ATOM      9  O   UNL     1      -5.983   2.626   0.277  0.00  0.00    -0.274 OA
ATOM     10  N   UNL     1      -4.770   0.825  -0.183  0.00  0.00    -0.207 N 
ATOM     11  H   UNL     1      -4.745  -0.125  -0.375  0.00  0.00    +0.177 HD
BRANCH  10  12
ATOM     12  N   UNL     1      -3.580   1.562  -0.133  0.00  0.00    -0.188 NA
ATOM     13  C   UNL     1      -2.443   0.974  -0.344  0.00  0.00    +0.138 C 
BRANCH  13  14
ATOM     14  C   UNL     1      -1.190   1.749  -0.293  0.00  0.00    -0.005 A 
ATOM     15  C   UNL     1       0.035   1.118  -0.520  0.00  0.00    +0.013 A 
ATOM     16  C   UNL     1       1.203   1.848  -0.476  0.00  0.00    +0.046 A 
ATOM     17  C   UNL     1       1.164   3.209  -0.201  0.00  0.00    +0.117 A 
ATOM     18  C   UNL     1      -0.052   3.840   0.031  0.00  0.00    +0.046 A 
ATOM     19  C   UNL     1      -1.224   3.118  -0.011  0.00  0.00    +0.013 A 
BRANCH  17  20
ATOM     20  O   UNL     1       2.318   3.925  -0.159  0.00  0.00    -0.507 OA
ATOM     21  H   UNL     1       2.576   4.304  -1.010  0.00  0.00    +0.292 HD
ENDBRANCH  17  20
ENDBRANCH  13  14
ENDBRANCH  10  12
ENDBRANCH   3   8
BRANCH   6  22
ATOM     22  C   UNL     1     -11.129  -0.453  -1.390  0.00  0.00    +0.020 C 
BRANCH  22  24
ATOM     23  N   UNL     1     -13.516   0.198  -1.383  0.00  0.00    -0.209 N 
ATOM     24  C   UNL     1     -12.224   0.582  -1.355  0.00  0.00    +0.216 C 
ATOM     25  O   UNL     1     -11.943   1.761  -1.301  0.00  0.00    -0.276 OA
ATOM     26  H   UNL     1     -13.741  -0.745  -1.425  0.00  0.00    +0.177 HD
BRANCH  23  28
ATOM     27  C   UNL     1     -15.777   0.790  -1.377  0.00  0.00    +0.138 C 
ATOM     28  N   UNL     1     -14.534   1.160  -1.350  0.00  0.00    -0.188 NA
BRANCH  27  34
ATOM     29  C   UNL     1     -16.527   3.161  -1.275  0.00  0.00    +0.013 A 
ATOM     30  C   UNL     1     -17.531   4.104  -1.248  0.00  0.00    +0.046 A 
ATOM     31  C   UNL     1     -18.862   3.706  -1.277  0.00  0.00    +0.117 A 
ATOM     32  C   UNL     1     -19.186   2.357  -1.339  0.00  0.00    +0.046 A 
ATOM     33  C   UNL     1     -18.188   1.407  -1.371  0.00  0.00    +0.013 A 
ATOM     34  C   UNL     1     -16.848   1.803  -1.342  0.00  0.00    -0.005 A 
BRANCH  31  35
ATOM     35  O   UNL     1     -19.849   4.639  -1.246  0.00  0.00    -0.507 OA
ATOM     36  H   UNL     1     -20.142   4.870  -0.354  0.00  0.00    +0.292 HD
ENDBRANCH  31  35
ENDBRANCH  27  34
ENDBRANCH  23  28
ENDBRANCH  22  24
ENDBRANCH   6  22
TORSDOF 9
