REMARK  Name = ZINC63122552
REMARK  9 active torsions:
REMARK  status: ('A' for Active; 'I' for Inactive)
REMARK    1  A    between atoms: C_1  and  C_2
REMARK    2  A    between atoms: N_4  and  C_5
REMARK    3  A    between atoms: C_8  and  S_11
REMARK    4  A    between atoms: S_11  and  C_12
REMARK    5  A    between atoms: C_12  and  C_13
REMARK    6  A    between atoms: N_15  and  CA_16
REMARK    7  A    between atoms: CA_16  and  CB_18
REMARK    8  A    between atoms: CA_16  and  C_28
REMARK    9  A    between atoms: CB_18  and  CG_19
REMARK                            x       y       z     vdW  Elec       q    Type
REMARK                         _______ _______ _______ _____ _____    ______ ____
ROOT
ATOM      1  C   UNK A   0      -2.636  -8.647   0.400  0.00  0.00    +0.224 C 
ATOM      2  O   UNK A   0      -1.613  -9.293   0.477  0.00  0.00    -0.275 OA
ATOM      3  N   TRP A   1      -3.829  -9.273   0.387  0.00  0.00    -0.301 N 
ATOM      4  H   TRP A   1      -4.647  -8.755   0.324  0.00  0.00    +0.150 HD
ENDROOT
BRANCH   1   5
ATOM      5  C   UNK A   0      -2.572  -7.143   0.318  0.00  0.00    +0.170 C 
BRANCH   5   6
ATOM      6  S   UNK A   0      -0.840  -6.608   0.357  0.00  0.00    -0.116 S 
BRANCH   6  10
ATOM      7  C   UNK A   0      -1.081  -2.091   0.092  0.00  0.00    +0.033 A 
ATOM      8  C   UNK A   0       0.156  -2.716   0.178  0.00  0.00    +0.024 A 
ATOM      9  C   UNK A   0       0.230  -4.092   0.259  0.00  0.00    +0.016 A 
ATOM     10  C   UNK A   0      -0.933  -4.852   0.255  0.00  0.00    +0.008 A 
ATOM     11  C   UNK A   0      -2.171  -4.226   0.169  0.00  0.00    +0.016 A 
ATOM     12  C   UNK A   0      -2.244  -2.849   0.093  0.00  0.00    +0.024 A 
BRANCH   7  16
ATOM     13  C   UNK A   0      -2.194   1.470   0.609  0.00  0.00    +0.109 C 
ATOM     14  C   UNK A   0      -2.169  -0.037   0.608  0.00  0.00    +0.214 C 
ATOM     15  O   UNK A   0      -3.061  -0.658   1.146  0.00  0.00    -0.276 OA
ATOM     16  N   UNK A   0      -1.156  -0.694   0.009  0.00  0.00    -0.286 N 
ATOM     17  H   UNK A   0      -0.478  -0.200  -0.478  0.00  0.00    +0.155 HD
ENDBRANCH   7  16
ENDBRANCH   6  10
ENDBRANCH   5   6
ENDBRANCH   1   5
BRANCH   3  18
ATOM     18  CA  TRP A   1      -3.891 -10.734   0.467  0.00  0.00    +0.190 C 
BRANCH  18  19
ATOM     19  C   TRP A   1      -3.731 -11.320  -0.913  0.00  0.00    +0.376 C 
ATOM     20  O   TRP A   1      -3.580 -10.585  -1.873  0.00  0.00    -0.244 OA
ATOM     21  OXT TRP A   1      -3.753 -12.529  -1.068  0.00  0.00    -0.244 OA
ENDBRANCH  18  19
BRANCH  18  22
ATOM     22  CB  TRP A   1      -5.242 -11.157   1.047  0.00  0.00    +0.067 C 
BRANCH  22  23
ATOM     23  CG  TRP A   1      -5.350 -10.675   2.470  0.00  0.00    -0.039 C 
ATOM     24  CD2 TRP A   1      -5.936  -9.534   2.900  0.00  0.00    -0.001 A 
ATOM     25  CE3 TRP A   1      -6.620  -8.441   2.198  0.00  0.00    +0.010 A 
ATOM     26  CZ3 TRP A   1      -7.113  -7.407   2.917  0.00  0.00    +0.001 A 
ATOM     27  CH2 TRP A   1      -6.987  -7.352   4.311  0.00  0.00    +0.002 A 
ATOM     28  CZ2 TRP A   1      -6.372  -8.318   5.027  0.00  0.00    +0.026 A 
ATOM     29  CE2 TRP A   1      -5.816  -9.452   4.374  0.00  0.00    +0.043 A 
ATOM     30  NE1 TRP A   1      -5.182 -10.502   4.837  0.00  0.00    -0.380 N 
ATOM     31  CD1 TRP A   1      -4.832 -11.372   3.708  0.00  0.00    +0.144 C 
ATOM     32  HE1 TRP A   1      -4.981 -10.676   5.769  0.00  0.00    +0.160 HD
ENDBRANCH  22  23
ENDBRANCH  18  22
ENDBRANCH   3  18
TORSDOF 8
