REMARK  Name = ZINC39666574
REMARK  9 active torsions:
REMARK  status: ('A' for Active; 'I' for Inactive)
REMARK    1  A    between atoms: C_1  and  C_2
REMARK    2  A    between atoms: C_2  and  C_4
REMARK    3  A    between atoms: C_2  and  O_29
REMARK    4  A    between atoms: C_4  and  N_5
REMARK    5  A    between atoms: C_6  and  C_8
REMARK    6  A    between atoms: C_19  and  C_21
REMARK    7  A    between atoms: C_25  and  O_26
REMARK    8  A    between atoms: O_26  and  C_27
REMARK    9  A    between atoms: O_29  and  C_30
REMARK                            x       y       z     vdW  Elec       q    Type
REMARK                         _______ _______ _______ _____ _____    ______ ____
ROOT
ATOM      1  C   UNL     1       1.341  -4.080   1.649  0.00  0.00    +0.100 C 
ATOM      2  C   UNL     1      -0.098  -4.621   1.493  0.00  0.00    +0.121 C 
ATOM      3  N   UNL     1      -0.089  -5.918   2.209  0.00  0.00    -0.296 N 
ATOM      4  C   UNL     1       0.742  -5.670   3.412  0.00  0.00    +0.115 C 
ATOM      5  C   UNL     1       1.889  -4.770   2.909  0.00  0.00    -0.004 C 
ATOM      6  C   UNL     1       2.245  -3.731   3.968  0.00  0.00    -0.010 C 
ATOM      7  C   UNL     1       2.841  -4.436   5.189  0.00  0.00    -0.082 C 
ATOM      8  N   UNL     1       4.038  -5.186   4.788  0.00  0.00    +0.379 N 
ATOM      9  C   UNL     1       3.671  -6.245   3.840  0.00  0.00    -0.082 C 
ATOM     10  C   UNL     1       3.110  -5.615   2.561  0.00  0.00    -0.010 C 
ATOM     11  C   UNL     1      -0.699  -7.065   1.849  0.00  0.00    +0.251 C 
ATOM     12  O   UNL     1      -1.262  -7.143   0.774  0.00  0.00    -0.270 OA
ATOM     13  H   UNL     1       4.696  -4.558   4.351  0.00  0.00    -0.086 HD
ATOM     14  H   UNL     1       4.463  -5.600   5.604  0.00  0.00    -0.086 HD
ENDROOT
BRANCH  11  15
ATOM     15  C   UNL     1      -0.684  -8.222   2.757  0.00  0.00    +0.087 A 
ATOM     16  C   UNL     1      -0.543  -8.069   4.119  0.00  0.00    +0.063 A 
ATOM     17  S   UNL     1      -0.584  -9.636   4.718  0.00  0.00    -0.081 S 
ATOM     18  C   UNL     1      -0.788 -10.545   3.202  0.00  0.00    +0.120 A 
ATOM     19  C   UNL     1      -0.824  -9.573   2.263  0.00  0.00    +0.158 A 
ATOM     20 CL   UNL     1      -0.917 -12.263   2.983  0.00  0.00    -0.072 Cl
BRANCH  19  21
ATOM     21  O   UNL     1      -0.976  -9.849   0.939  0.00  0.00    -0.492 OA
ATOM     22  C   UNL     1       0.216 -10.065   0.180  0.00  0.00    +0.277 C 
ENDBRANCH  19  21
ENDBRANCH  11  15
BRANCH   1  24
ATOM     23  N   UNL     1       2.354  -1.838   1.395  0.00  0.00    -0.312 N 
ATOM     24  C   UNL     1       1.322  -2.585   1.835  0.00  0.00    +0.218 C 
ATOM     25  O   UNL     1       0.378  -2.054   2.381  0.00  0.00    -0.275 OA
ATOM     26  H   UNL     1       3.109  -2.262   0.959  0.00  0.00    +0.149 HD
BRANCH  23  27
ATOM     27  C   UNL     1       2.335  -0.384   1.577  0.00  0.00    +0.148 C 
BRANCH  27  29
ATOM     28  C   UNL     1       3.595   1.737   1.183  0.00  0.00    +0.053 C 
ATOM     29  C   UNL     1       3.615   0.219   0.994  0.00  0.00    +0.187 C 
BRANCH  29  30
ATOM     30  O   UNL     1       4.750  -0.330   1.666  0.00  0.00    -0.486 OA
BRANCH  30  31
ATOM     31  C   UNL     1       5.874  -0.518   0.925  0.00  0.00    +0.139 A 
ATOM     32  C   UNL     1       5.923  -0.075  -0.388  0.00  0.00    +0.047 A 
ATOM     33  C   UNL     1       7.067  -0.268  -1.139  0.00  0.00    +0.004 A 
ATOM     34  C   UNL     1       8.163  -0.901  -0.582  0.00  0.00    +0.002 A 
ATOM     35  C   UNL     1       8.117  -1.344   0.727  0.00  0.00    +0.023 A 
ATOM     36  C   UNL     1       6.977  -1.149   1.484  0.00  0.00    +0.083 A 
ATOM     37 CL   UNL     1       6.923  -1.699   3.130  0.00  0.00    -0.080 Cl
ENDBRANCH  30  31
ENDBRANCH  29  30
ENDBRANCH  27  29
ENDBRANCH  23  27
ENDBRANCH   1  24
TORSDOF 7
