REMARK  Name = ZINC36289235
REMARK  8 active torsions:
REMARK  status: ('A' for Active; 'I' for Inactive)
REMARK    1  A    between atoms: C_1  and  C_2
REMARK    2  A    between atoms: C_2  and  C_25
REMARK    3  A    between atoms: N_9  and  C_24
REMARK    4  A    between atoms: C_11  and  C_12
REMARK    5  A    between atoms: C_12  and  C_14
REMARK    6  A    between atoms: C_14  and  S_15
REMARK    7  A    between atoms: S_15  and  C_16
REMARK    8  A    between atoms: C_20  and  N_22
REMARK                            x       y       z     vdW  Elec       q    Type
REMARK                         _______ _______ _______ _____ _____    ______ ____
ROOT
ATOM      1  C   UNL     1       0.264  -2.792   2.959  0.00  0.00    +0.168 C 
ATOM      2  O   UNL     1       1.459  -2.618   3.098  0.00  0.00    -0.292 OA
ENDROOT
BRANCH   1  13
ATOM      3  C   UNL     1      -0.156   0.757   0.723  0.00  0.00    +0.022 C 
ATOM      4  C   UNL     1      -0.136  -0.553  -0.068  0.00  0.00    +0.030 C 
ATOM      5  C   UNL     1       0.952  -0.521  -1.117  0.00  0.00    -0.015 A 
ATOM      6  C   UNL     1       1.173   0.291  -2.207  0.00  0.00    +0.006 A 
ATOM      7  C   UNL     1       2.280   0.082  -3.011  0.00  0.00    +0.000 A 
ATOM      8  C   UNL     1       3.160  -0.944  -2.717  0.00  0.00    +0.002 A 
ATOM      9  C   UNL     1       2.942  -1.758  -1.626  0.00  0.00    +0.024 A 
ATOM     10  C   UNL     1       1.829  -1.554  -0.811  0.00  0.00    +0.038 A 
ATOM     11  N   UNL     1       1.400  -2.233   0.328  0.00  0.00    -0.305 N 
ATOM     12  C   UNL     1       0.250  -1.709   0.830  0.00  0.00    +0.024 C 
ATOM     13  C   UNL     1      -0.423  -2.139   1.925  0.00  0.00    +0.067 C 
ATOM     14  C   UNL     1       2.104  -3.376   0.915  0.00  0.00    +0.135 C 
ATOM     15  C   UNL     1      -1.499  -0.808  -0.714  0.00  0.00    +0.022 C 
ENDBRANCH   1  13
BRANCH   1  16
ATOM     16  C   UNL     1      -0.479  -3.709   3.896  0.00  0.00    +0.156 C 
BRANCH  16  17
ATOM     17  S   UNL     1       0.677  -4.395   5.113  0.00  0.00    -0.078 S 
BRANCH  17  18
ATOM     18  C   UNL     1      -0.330  -5.431   6.122  0.00  0.00    +0.192 A 
ATOM     19  N   UNL     1      -1.623  -5.533   5.852  0.00  0.00    -0.207 NA
ATOM     20  C   UNL     1      -2.415  -6.306   6.592  0.00  0.00    +0.122 A 
ATOM     21  C   UNL     1      -1.867  -7.012   7.659  0.00  0.00    +0.086 A 
ATOM     22  C   UNL     1      -0.504  -6.880   7.911  0.00  0.00    +0.122 A 
ATOM     23  N   UNL     1       0.226  -6.092   7.126  0.00  0.00    -0.207 NA
ATOM     24  N   UNL     1      -3.767  -6.407   6.303  0.00  0.00    -0.343 N 
ATOM     25  H   UNL     1      -4.142  -5.912   5.559  0.00  0.00    +0.144 HD
ATOM     26  H   UNL     1      -4.338  -6.972   6.847  0.00  0.00    +0.144 HD
BRANCH  22  27
ATOM     27  N   UNL     1       0.084  -7.563   8.964  0.00  0.00    -0.343 N 
ATOM     28  H   UNL     1      -0.454  -8.138   9.530  0.00  0.00    +0.144 HD
ATOM     29  H   UNL     1       1.034  -7.467   9.134  0.00  0.00    +0.144 HD
ENDBRANCH  22  27
ENDBRANCH  17  18
ENDBRANCH  16  17
ENDBRANCH   1  16
TORSDOF 5
