REMARK  Name = ZINC66570738
REMARK  5 active torsions:
REMARK  status: ('A' for Active; 'I' for Inactive)
REMARK    1  A    between atoms: C_3  and  C_6
REMARK    2  A    between atoms: C_9  and  C_14
REMARK    3  A    between atoms: N_16  and  N_17
REMARK    4  A    between atoms: C_18  and  C_20
REMARK    5  A    between atoms: C_20  and  C_21
REMARK                            x       y       z     vdW  Elec       q    Type
REMARK                         _______ _______ _______ _____ _____    ______ ____
ROOT
ATOM      1  C   UNL     1       7.785   2.836  -0.058  0.00  0.00    +0.265 C 
ATOM      2  O   UNL     1       8.089   4.012  -0.144  0.00  0.00    -0.268 OA
ATOM      3  N   UNL     1       8.747   1.896   0.025  0.00  0.00    -0.230 N 
ATOM      4  H   UNL     1       8.508   0.956   0.019  0.00  0.00    +0.173 HD
ENDROOT
BRANCH   1   8
ATOM      5  C   UNL     1       3.704   1.742  -0.015  0.00  0.00    +0.056 A 
ATOM      6  C   UNL     1       4.673   0.747  -0.044  0.00  0.00    +0.028 A 
ATOM      7  C   UNL     1       6.014   1.090  -0.058  0.00  0.00    +0.020 A 
ATOM      8  C   UNL     1       6.372   2.443  -0.044  0.00  0.00    +0.102 A 
ATOM      9  C   UNL     1       5.355   3.429  -0.015  0.00  0.00    +0.261 A 
ATOM     10  O   UNL     1       5.654   4.611  -0.002  0.00  0.00    -0.267 OA
ATOM     11  N   UNL     1       4.060   3.063  -0.007  0.00  0.00    -0.321 N 
ATOM     12  H   UNL     1       3.370   3.745   0.010  0.00  0.00    +0.169 HD
BRANCH   5  15
ATOM     13  C   UNL     1       0.337   0.081   0.012  0.00  0.00    +0.008 A 
ATOM     14  C   UNL     1       1.711   0.110  -0.006  0.00  0.00    +0.017 A 
ATOM     15  C   UNL     1       2.287   1.373  -0.001  0.00  0.00    +0.036 A 
ATOM     16  S   UNL     1       0.851   2.429   0.029  0.00  0.00    -0.095 S 
ATOM     17  C   UNL     1      -0.347   1.251   0.033  0.00  0.00    +0.046 A 
ENDBRANCH   5  15
ENDBRANCH   1   8
BRANCH   3  18
ATOM     18  N   UNL     1      10.092   2.276   0.119  0.00  0.00    -0.234 N 
ATOM     19  C   UNL     1      11.054   1.335   0.201  0.00  0.00    +0.229 C 
ATOM     20  O   UNL     1      10.755   0.160   0.194  0.00  0.00    -0.274 OA
ATOM     21  H   UNL     1      10.332   3.216   0.125  0.00  0.00    +0.173 HD
BRANCH  19  22
ATOM     22  C   UNL     1      12.501   1.744   0.303  0.00  0.00    +0.101 C 
BRANCH  22  23
ATOM     23  C   UNL     1      13.380   0.494   0.383  0.00  0.00    -0.002 C 
ATOM     24  C   UNL     1      13.271  -0.290  -0.926  0.00  0.00    +0.004 C 
ATOM     25  C   UNL     1      14.150  -1.540  -0.846  0.00  0.00    +0.000 C 
ATOM     26  C   UNL     1      15.605  -1.127  -0.618  0.00  0.00    +0.000 C 
ATOM     27  C   UNL     1      15.714  -0.343   0.691  0.00  0.00    +0.000 C 
ATOM     28  C   UNL     1      14.835   0.907   0.611  0.00  0.00    +0.004 C 
ENDBRANCH  22  23
ENDBRANCH  19  22
ENDBRANCH   3  18
TORSDOF 5
