REMARK  Name = ZINC05809422
REMARK  3 active torsions:
REMARK  status: ('A' for Active; 'I' for Inactive)
REMARK    1  A    between atoms: C_1  and  C_2
REMARK    2  A    between atoms: C_5  and  C_15
REMARK    3  A    between atoms: C_18  and  N_21
REMARK                            x       y       z     vdW  Elec       q    Type
REMARK                         _______ _______ _______ _____ _____    ______ ____
ROOT
ATOM      1  C   UNL     1       5.781   2.388  -1.350  0.00  0.00    +0.022 C 
ATOM      2  C   UNL     1       4.748   1.315  -0.998  0.00  0.00    +0.086 C 
ATOM      3  C   UNL     1       3.684   1.938  -0.146  0.00  0.00    +0.072 C 
ATOM      4  C   UNL     1       2.476   1.080  -0.016  0.00  0.00    +0.050 C 
ATOM      5  N   UNL     1       2.406  -0.156   0.075  0.00  0.00    -0.250 NA
ATOM      6  C   UNL     1       3.110  -1.287  -0.004  0.00  0.00    +0.080 A 
ATOM      7  C   UNL     1       2.338  -2.471   0.082  0.00  0.00    +0.029 A 
ATOM      8  C   UNL     1       2.915  -3.711  -0.005  0.00  0.00    +0.002 A 
ATOM      9  C   UNL     1       4.284  -3.819  -0.181  0.00  0.00    +0.001 A 
ATOM     10  C   UNL     1       5.050  -2.677  -0.254  0.00  0.00    +0.019 A 
ATOM     11  C   UNL     1       4.485  -1.408  -0.156  0.00  0.00    +0.064 A 
ATOM     12  S   UNL     1       5.589  -0.053  -0.212  0.00  0.00    +0.059 S 
ATOM     13  O   UNL     1       5.822   0.258   1.155  0.00  0.00    -0.252 OA
ENDROOT
BRANCH   4  14
ATOM     14  C   UNL     1       1.187   1.793   0.000  0.00  0.00    -0.004 A 
ATOM     15  C   UNL     1      -0.012   1.078  -0.061  0.00  0.00    +0.012 A 
ATOM     16  C   UNL     1      -1.215   1.753  -0.051  0.00  0.00    +0.033 A 
ATOM     17  C   UNL     1      -1.236   3.135   0.030  0.00  0.00    +0.126 A 
ATOM     18  C   UNL     1      -0.052   3.849   0.092  0.00  0.00    +0.033 A 
ATOM     19  C   UNL     1       1.158   3.188   0.077  0.00  0.00    +0.012 A 
BRANCH  17  20
ATOM     20  N   UNL     1      -2.531   3.852   0.047  0.00  0.00    +0.056 N 
ATOM     21  O   UNL     1      -2.553   5.067   0.114  0.00  0.00    -0.126 OA
ATOM     22  O   UNL     1      -3.574   3.225  -0.007  0.00  0.00    -0.126 OA
ENDBRANCH  17  20
ENDBRANCH   4  14
TORSDOF 2
