REMARK  Name = ZINC14477924
REMARK  5 active torsions:
REMARK  status: ('A' for Active; 'I' for Inactive)
REMARK    1  A    between atoms: C_4  and  N_33
REMARK    2  A    between atoms: C_5  and  C_7
REMARK    3  A    between atoms: C_18  and  S_23
REMARK    4  A    between atoms: S_23  and  N_26
REMARK    5  A    between atoms: N_26  and  C_27
REMARK                            x       y       z     vdW  Elec       q    Type
REMARK                         _______ _______ _______ _____ _____    ______ ____
ROOT
ATOM      1  C   UNL     1       2.483   1.447  -0.006  0.00  0.00    +0.107 C 
ATOM      2  C   UNL     1       2.199   0.163  -0.765  0.00  0.00    +0.029 C 
ATOM      3  C   UNL     1       3.301  -0.903  -0.775  0.00  0.00    +0.033 C 
ATOM      4  C   UNL     1       2.484  -2.190  -0.903  0.00  0.00    -0.030 C 
ATOM      5  C   UNL     1       1.270  -1.995  -0.433  0.00  0.00    -0.023 C 
ATOM      6  C   UNL     1       1.169  -0.615   0.108  0.00  0.00    +0.049 C 
ATOM      7  C   UNL     1      -0.102   0.140   0.091  0.00  0.00    -0.018 A 
ATOM      8  C   UNL     1      -1.332  -0.481   0.120  0.00  0.00    +0.034 A 
ATOM      9  C   UNL     1      -2.493   0.270   0.120  0.00  0.00    +0.106 A 
ATOM     10  C   UNL     1      -2.422   1.651   0.090  0.00  0.00    +0.030 A 
ATOM     11  C   UNL     1      -1.196   2.282   0.055  0.00  0.00    +0.025 A 
ATOM     12  C   UNL     1      -0.023   1.537   0.050  0.00  0.00    +0.031 A 
ATOM     13  N   UNL     1       1.209   2.199  -0.004  0.00  0.00    -0.336 N 
ATOM     14  H   UNL     1       1.228   3.168  -0.040  0.00  0.00    +0.147 HD
ENDROOT
BRANCH   1  19
ATOM     15  C   UNL     1       2.358   0.852   3.720  0.00  0.00    +0.000 A 
ATOM     16  C   UNL     1       3.680   0.560   3.998  0.00  0.00    +0.002 A 
ATOM     17  C   UNL     1       4.615   0.555   2.980  0.00  0.00    +0.033 A 
ATOM     18  C   UNL     1       4.228   0.842   1.684  0.00  0.00    +0.131 A 
ATOM     19  C   UNL     1       2.906   1.134   1.407  0.00  0.00    +0.003 A 
ATOM     20  C   UNL     1       1.971   1.143   2.426  0.00  0.00    +0.008 A 
BRANCH  18  21
ATOM     21  N   UNL     1       5.229   0.838   0.594  0.00  0.00    +0.057 N 
ATOM     22  O   UNL     1       6.371   0.478   0.818  0.00  0.00    -0.126 OA
ATOM     23  O   UNL     1       4.911   1.194  -0.527  0.00  0.00    -0.126 OA
ENDBRANCH  18  21
ENDBRANCH   1  19
BRANCH   9  24
ATOM     24  S   UNL     1      -4.062  -0.531   0.158  0.00  0.00    +0.059 S 
ATOM     25  O   UNL     1      -4.997   0.381  -0.400  0.00  0.00    -0.153 OA
ATOM     26  O   UNL     1      -3.864  -1.836  -0.368  0.00  0.00    -0.153 OA
BRANCH  24  27
ATOM     27  N   UNL     1      -4.476  -0.721   1.750  0.00  0.00    -0.187 NA
ATOM     28  H   UNL     1      -4.554  -1.611   2.128  0.00  0.00    +0.148 HD
BRANCH  27  29
ATOM     29  C   UNL     1      -4.725   0.455   2.587  0.00  0.00    +0.077 C 
ATOM     30  C   UNL     1      -3.446   0.823   3.343  0.00  0.00    +0.020 C 
ATOM     31  C   UNL     1      -3.706   2.051   4.217  0.00  0.00    +0.002 C 
ATOM     32  C   UNL     1      -4.819   1.737   5.220  0.00  0.00    +0.000 C 
ATOM     33  C   UNL     1      -6.097   1.369   4.464  0.00  0.00    +0.002 C 
ATOM     34  C   UNL     1      -5.838   0.141   3.590  0.00  0.00    +0.020 C 
ENDBRANCH  27  29
ENDBRANCH  24  27
ENDBRANCH   9  24
TORSDOF 5
