REMARK  Name = ZINC51952149
REMARK  9 active torsions:
REMARK  status: ('A' for Active; 'I' for Inactive)
REMARK    1  A    between atoms: C_1  and  C_2
REMARK    2  A    between atoms: C_2  and  C_3
REMARK    3  A    between atoms: C_3  and  C_4
REMARK    4  A    between atoms: C_4  and  C_6
REMARK    5  A    between atoms: C_4  and  C_7
REMARK    6  A    between atoms: C_7  and  C_9
REMARK    7  A    between atoms: C_7  and  O_22
REMARK    8  A    between atoms: N_16  and  C_21
REMARK    9  A    between atoms: N_19  and  C_20
REMARK                            x       y       z     vdW  Elec       q    Type
REMARK                         _______ _______ _______ _____ _____    ______ ____
ROOT
ATOM      1  C   UNL     1       1.412  -4.056   2.523  0.00  0.00    -0.003 A 
ATOM      2  C   UNL     1       0.387  -4.761   3.124  0.00  0.00    +0.035 A 
ATOM      3  C   UNL     1       0.406  -6.147   3.116  0.00  0.00    +0.070 A 
ATOM      4  C   UNL     1       1.461  -6.826   2.502  0.00  0.00    +0.071 A 
ATOM      5  C   UNL     1       2.486  -6.110   1.902  0.00  0.00    +0.043 A 
ATOM      6  C   UNL     1       2.456  -4.728   1.909  0.00  0.00    +0.026 A 
ATOM      7 BR   UNL     1       3.849  -3.752   1.084  0.00  0.00    -0.050 Br
ATOM      8  N   UNL     1       1.207  -8.187   2.653  0.00  0.00    -0.295 N 
ATOM      9  C   UNL     1       0.051  -8.330   3.328  0.00  0.00    +0.330 A 
ATOM     10  O   UNL     1      -0.458  -9.394   3.629  0.00  0.00    -0.246 OA
ATOM     11  N   UNL     1      -0.456  -7.118   3.622  0.00  0.00    -0.295 N 
ATOM     12  C   UNL     1      -1.702  -6.863   4.349  0.00  0.00    +0.154 C 
ATOM     13  C   UNL     1       2.053  -9.277   2.161  0.00  0.00    +0.154 C 
ENDROOT
BRANCH   1  14
ATOM     14  C   UNL     1       1.392  -2.549   2.532  0.00  0.00    +0.148 C 
BRANCH  14  15
ATOM     15  C   UNL     1       0.763  -2.041   1.233  0.00  0.00    +0.019 C 
ATOM     16  C   UNL     1       1.586  -2.533   0.041  0.00  0.00    +0.010 C 
BRANCH  15  17
ATOM     17  C   UNL     1       0.742  -0.511   1.242  0.00  0.00    +0.006 C 
BRANCH  17  19
ATOM     18  C   UNL     1      -0.019   1.526   0.010  0.00  0.00    +0.004 C 
ATOM     19  C   UNL     1       0.002  -0.004   0.002  0.00  0.00    -0.003 C 
ENDBRANCH  17  19
ENDBRANCH  15  17
ENDBRANCH  14  15
BRANCH  14  20
ATOM     20  O   UNL     1       0.623  -2.090   3.645  0.00  0.00    -0.387 OA
ATOM     21  H   UNL     1      -0.297  -2.387   3.638  0.00  0.00    +0.210 HD
ENDBRANCH  14  20
ENDBRANCH   1  14
TORSDOF 5
