REMARK  Name = ZINC07986419
REMARK  8 active torsions:
REMARK  status: ('A' for Active; 'I' for Inactive)
REMARK    1  A    between atoms: C_11  and  C_13
REMARK    2  A    between atoms: C_13  and  C_14
REMARK    3  A    between atoms: C_14  and  C_15
REMARK    4  A    between atoms: C_15  and  C_16
REMARK    5  A    between atoms: N_18  and  C_19
REMARK    6  A    between atoms: C_19  and  C_20
REMARK    7  A    between atoms: C_20  and  C_22
REMARK    8  A    between atoms: C_20  and  N_55
REMARK                            x       y       z     vdW  Elec       q    Type
REMARK                         _______ _______ _______ _____ _____    ______ ____
ROOT
ATOM      1  C   UNL     1       3.220   7.765   0.018  0.00  0.00    +0.213 C 
ATOM      2  O   UNL     1       2.080   8.153   0.161  0.00  0.00    -0.276 OA
ATOM      3  N   UNL     1       4.234   8.653  -0.028  0.00  0.00    -0.317 N 
ATOM      4  H   UNL     1       5.145   8.342  -0.142  0.00  0.00    +0.149 HD
ENDROOT
BRANCH   1   5
ATOM      5  C   UNL     1       3.504   6.291  -0.108  0.00  0.00    +0.096 C 
BRANCH   5   6
ATOM      6  C   UNL     1       2.191   5.510  -0.025  0.00  0.00    +0.017 C 
BRANCH   6   7
ATOM      7  C   UNL     1       2.479   4.013  -0.153  0.00  0.00    +0.075 C 
BRANCH   7  18
ATOM      8  C   UNL     1      -3.547   1.940   0.328  0.00  0.00    +0.001 A 
ATOM      9  C   UNL     1      -3.504   3.325   0.416  0.00  0.00    +0.002 A 
ATOM     10  C   UNL     1      -2.307   4.000   0.338  0.00  0.00    +0.028 A 
ATOM     11  C   UNL     1      -1.120   3.285   0.169  0.00  0.00    +0.078 A 
ATOM     12  C   UNL     1      -1.168   1.876   0.074  0.00  0.00    +0.065 A 
ATOM     13  C   UNL     1      -2.389   1.212   0.162  0.00  0.00    +0.015 A 
ATOM     14  C   UNL     1       0.101   1.152  -0.098  0.00  0.00    +0.259 A 
ATOM     15  O   UNL     1       0.129  -0.062  -0.181  0.00  0.00    -0.267 OA
ATOM     16  N   UNL     1       1.234   1.889  -0.165  0.00  0.00    -0.310 N 
ATOM     17  H   UNL     1       2.115   1.432  -0.285  0.00  0.00    +0.170 HD
ATOM     18  C   UNL     1       1.185   3.243  -0.070  0.00  0.00    +0.110 A 
ATOM     19  N   UNL     1       0.082   3.909   0.087  0.00  0.00    -0.234 NA
ENDBRANCH   7  18
ENDBRANCH   6   7
ENDBRANCH   5   6
ENDBRANCH   1   5
BRANCH   3  20
ATOM     20  C   UNL     1       3.958  10.086   0.095  0.00  0.00    +0.094 C 
BRANCH  20  21
ATOM     21  C   UNL     1       5.278  10.858   0.130  0.00  0.00    -0.013 C 
BRANCH  21  26
ATOM     22  C   UNL     1       4.296  12.468   1.671  0.00  0.00    -0.078 C 
ATOM     23  C   UNL     1       4.566  13.955   2.012  0.00  0.00    -0.020 C 
ATOM     24  C   UNL     1       6.022  14.161   1.534  0.00  0.00    -0.020 C 
ATOM     25  C   UNL     1       6.267  13.047   0.499  0.00  0.00    -0.078 C 
ATOM     26  N   UNL     1       5.010  12.304   0.395  0.00  0.00    +0.386 N 
ATOM     27  H   UNL     1       4.443  12.687  -0.371  0.00  0.00    -0.081 HD
ENDBRANCH  21  26
BRANCH  21  28
ATOM     28  C   UNL     1       5.984  10.707  -1.192  0.00  0.00    -0.022 A 
ATOM     29  C   UNL     1       7.006   9.880  -1.524  0.00  0.00    +0.009 A 
ATOM     30  C   UNL     1       7.501   9.912  -2.815  0.00  0.00    +0.008 A 
ATOM     31  C   UNL     1       6.951  10.768  -3.709  0.00  0.00    +0.045 A 
ATOM     32  S   UNL     1       5.687  11.563  -2.730  0.00  0.00    -0.103 S 
ENDBRANCH  21  28
ENDBRANCH  20  21
ENDBRANCH   3  20
TORSDOF 8
