REMARK  Name = ZINC18272445
REMARK  7 active torsions:
REMARK  status: ('A' for Active; 'I' for Inactive)
REMARK    1  A    between atoms: C_1  and  N_2
REMARK    2  A    between atoms: N_2  and  C_3
REMARK    3  A    between atoms: N_2  and  C_4
REMARK    4  A    between atoms: C_7  and  N_10
REMARK    5  A    between atoms: C_14  and  C_15
REMARK    6  A    between atoms: C_20  and  N_22
REMARK    7  A    between atoms: N_22  and  C_23
REMARK                            x       y       z     vdW  Elec       q    Type
REMARK                         _______ _______ _______ _____ _____    ______ ____
ROOT
ATOM      1  C   UNL     1      -1.744  -1.180  -5.574  0.00  0.00    +0.046 C 
ATOM      2  C   UNL     1      -2.631  -0.912  -4.573  0.00  0.00    +0.081 C 
ATOM      3  C   UNL     1      -2.671  -1.416  -3.185  0.00  0.00    +0.276 C 
ATOM      4  O   UNL     1      -1.834  -2.196  -2.759  0.00  0.00    -0.267 OA
ATOM      5  N   UNL     1      -3.658  -0.978  -2.432  0.00  0.00    -0.152 NA
ATOM      6  C   UNL     1      -4.571  -0.133  -2.881  0.00  0.00    +0.175 C 
ATOM      7  S   UNL     1      -4.066   0.155  -4.570  0.00  0.00    -0.050 S 
ENDROOT
BRANCH   1  12
ATOM      8  N   UNL     1       0.394  -1.812  -4.463  0.00  0.00    -0.316 N 
ATOM      9  C   UNL     1       1.242  -2.874  -4.513  0.00  0.00    +0.092 A 
ATOM     10  C   UNL     1       0.764  -3.776  -5.406  0.00  0.00    +0.020 A 
ATOM     11  C   UNL     1      -0.424  -3.268  -5.938  0.00  0.00    +0.027 A 
ATOM     12  C   UNL     1      -0.649  -2.041  -5.336  0.00  0.00    +0.048 A 
BRANCH   8  16
ATOM     13  C   UNL     1       0.863   1.564  -2.059  0.00  0.00    +0.029 A 
ATOM     14  C   UNL     1       0.841   0.300  -1.484  0.00  0.00    +0.025 A 
ATOM     15  C   UNL     1       0.686  -0.817  -2.280  0.00  0.00    +0.028 A 
ATOM     16  C   UNL     1       0.552  -0.677  -3.655  0.00  0.00    +0.047 A 
ATOM     17  C   UNL     1       0.573   0.587  -4.230  0.00  0.00    +0.028 A 
ATOM     18  C   UNL     1       0.723   1.704  -3.434  0.00  0.00    +0.025 A 
BRANCH  13  20
ATOM     19  C   UNL     1       1.006   4.032  -1.855  0.00  0.00    +0.129 C 
ATOM     20  N   UNL     1       1.020   2.696  -1.253  0.00  0.00    -0.336 N 
ATOM     21  C   UNL     1       1.199   2.546   0.193  0.00  0.00    +0.129 C 
ENDBRANCH  13  20
ENDBRANCH   8  16
ENDBRANCH   1  12
BRANCH   6  22
ATOM     22  N   UNL     1      -5.644   0.398  -2.210  0.00  0.00    -0.192 NA
BRANCH  22  23
ATOM     23  C   UNL     1      -6.229  -0.310  -1.155  0.00  0.00    +0.056 A 
ATOM     24  C   UNL     1      -5.761  -1.574  -0.822  0.00  0.00    +0.028 A 
ATOM     25  C   UNL     1      -6.341  -2.272   0.220  0.00  0.00    +0.040 A 
ATOM     26  C   UNL     1      -7.388  -1.711   0.932  0.00  0.00    +0.124 A 
ATOM     27  C   UNL     1      -7.857  -0.451   0.601  0.00  0.00    +0.040 A 
ATOM     28  C   UNL     1      -7.276   0.253  -0.436  0.00  0.00    +0.028 A 
ATOM     29  F   UNL     1      -7.954  -2.395   1.950  0.00  0.00    -0.205 F 
ENDBRANCH  22  23
ENDBRANCH   6  22
TORSDOF 5
