REMARK  Name = ZINC57346442
REMARK  4 active torsions:
REMARK  status: ('A' for Active; 'I' for Inactive)
REMARK    1  A    between atoms: C_2  and  C_9
REMARK    2  A    between atoms: C_9  and  N_10
REMARK    3  A    between atoms: C_12  and  C_27
REMARK    4  A    between atoms: C_18  and  N_22
REMARK                            x       y       z     vdW  Elec       q    Type
REMARK                         _______ _______ _______ _____ _____    ______ ____
ROOT
ATOM      1  N   UNL     1       1.154   4.077   1.393  0.00  0.00    -0.341 N 
ATOM      2  C   UNL     1      -0.018   4.265   2.011  0.00  0.00    +0.105 A 
ATOM      3  C   UNL     1      -0.098   4.716   3.315  0.00  0.00    +0.126 A 
ATOM      4  C   UNL     1       1.148   4.999   4.048  0.00  0.00    +0.204 A 
ATOM      5  O   UNL     1       1.130   5.399   5.199  0.00  0.00    -0.286 OA
ATOM      6  C   UNL     1       2.416   4.778   3.332  0.00  0.00    +0.049 A 
ATOM      7  C   UNL     1       2.368   4.311   2.006  0.00  0.00    +0.055 A 
ATOM      8  C   UNL     1       3.557   4.095   1.320  0.00  0.00    +0.052 A 
ATOM      9  C   UNL     1       4.769   4.335   1.948  0.00  0.00    +0.067 A 
ATOM     10  C   UNL     1       4.805   4.794   3.268  0.00  0.00    +0.145 A 
ATOM     11  C   UNL     1       3.644   5.021   3.951  0.00  0.00    +0.054 A 
ATOM     12  F   UNL     1       5.994   5.024   3.867  0.00  0.00    -0.204 F 
ENDROOT
BRANCH   9  13
ATOM     13  N   UNL     1       5.959   4.117   1.259  0.00  0.00    -0.328 N 
ATOM     14  C   UNL     1       6.709   2.853   1.223  0.00  0.00    +0.105 C 
ATOM     15  C   UNL     1       7.967   3.091   0.362  0.00  0.00    +0.020 C 
ATOM     16  C   UNL     1       8.147   4.631   0.428  0.00  0.00    +0.020 C 
ATOM     17  C   UNL     1       6.673   5.114   0.441  0.00  0.00    +0.105 C 
ENDBRANCH   9  13
BRANCH   3  18
ATOM     18  C   UNL     1      -1.402   4.911   3.957  0.00  0.00    +0.392 C 
ATOM     19  O   UNL     1      -2.431   4.673   3.338  0.00  0.00    -0.240 OA
ATOM     20  O   UNL     1      -1.461   5.311   5.112  0.00  0.00    -0.240 OA
ENDBRANCH   3  18
BRANCH   1  21
ATOM     21  C   UNL     1       1.149   3.595   0.010  0.00  0.00    +0.157 C 
BRANCH  21  23
ATOM     22  C   UNL     1      -0.017   1.381   0.010  0.00  0.00    +0.044 A 
ATOM     23  C   UNL     1       1.170   2.088   0.002  0.00  0.00    -0.022 A 
ATOM     24  C   UNL     1       2.377   1.415  -0.013  0.00  0.00    +0.044 A 
ATOM     25  C   UNL     1       2.399   0.031  -0.021  0.00  0.00    +0.126 A 
ATOM     26  C   UNL     1       1.210  -0.679  -0.013  0.00  0.00    +0.076 A 
ATOM     27  C   UNL     1       0.002  -0.004   0.002  0.00  0.00    +0.126 A 
ATOM     28  F   UNL     1      -1.158  -0.696   0.010  0.00  0.00    -0.205 F 
ATOM     29  F   UNL     1       3.579  -0.627  -0.036  0.00  0.00    -0.205 F 
ENDBRANCH  21  23
ENDBRANCH   1  21
TORSDOF 4
