REMARK  Name = ZINC03108735
REMARK  8 active torsions:
REMARK  status: ('A' for Active; 'I' for Inactive)
REMARK    1  A    between atoms: C_1  and  C_2
REMARK    2  A    between atoms: C_5  and  N_9
REMARK    3  A    between atoms: C_14  and  C_15
REMARK    4  A    between atoms: C_14  and  C_16
REMARK    5  A    between atoms: C_16  and  C_17
REMARK    6  A    between atoms: N_23  and  C_24
REMARK    7  A    between atoms: C_25  and  C_31
REMARK    8  A    between atoms: C_29  and  C_30
REMARK                            x       y       z     vdW  Elec       q    Type
REMARK                         _______ _______ _______ _____ _____    ______ ____
ROOT
ATOM      1  N   UNL     1      -0.090   0.634  -2.060  0.00  0.00    -0.268 N 
ATOM      2  C   UNL     1       1.215   0.657  -2.393  0.00  0.00    +0.143 C 
ATOM      3  S   UNL     1       1.916  -0.360  -3.579  0.00  0.00    -0.018 S 
ATOM      4  N   UNL     1       1.898   1.566  -1.692  0.00  0.00    -0.283 N 
ATOM      5  C   UNL     1       1.141   2.219  -0.847  0.00  0.00    +0.125 C 
ATOM      6  C   UNL     1      -0.257   1.658  -1.013  0.00  0.00    +0.098 C 
ATOM      7  C   UNL     1      -0.742   1.022   0.291  0.00  0.00    +0.040 C 
ATOM      8  N   UNL     1       1.531   3.201   0.008  0.00  0.00    -0.234 NA
ATOM      9  H   UNL     1       2.977   1.694  -1.861  0.00  0.00    +0.155 HD
ENDROOT
BRANCH   1  14
ATOM     10  C   UNL     1      -4.117  -2.715  -4.241  0.00  0.00    +0.044 C 
ATOM     11  C   UNL     1      -3.047  -1.826  -3.661  0.00  0.00    -0.049 A 
ATOM     12  C   UNL     1      -2.786  -0.596  -4.237  0.00  0.00    +0.005 A 
ATOM     13  C   UNL     1      -1.807   0.222  -3.708  0.00  0.00    +0.025 A 
ATOM     14  C   UNL     1      -1.083  -0.192  -2.597  0.00  0.00    +0.050 A 
ATOM     15  C   UNL     1      -1.344  -1.431  -2.025  0.00  0.00    +0.039 A 
ATOM     16  C   UNL     1      -2.329  -2.242  -2.556  0.00  0.00    +0.020 A 
ATOM     17 BR   UNL     1      -0.357  -2.003  -0.517  0.00  0.00    -0.048 Br
ENDBRANCH   1  14
BRANCH   8  18
ATOM     18  C   UNL     1       2.881   3.557   0.096  0.00  0.00    +0.071 A 
ATOM     19  C   UNL     1       3.834   2.598   0.414  0.00  0.00    -0.025 A 
ATOM     20  C   UNL     1       5.166   2.951   0.495  0.00  0.00    +0.005 A 
ATOM     21  C   UNL     1       5.551   4.260   0.270  0.00  0.00    +0.001 A 
ATOM     22  C   UNL     1       4.604   5.218  -0.043  0.00  0.00    +0.005 A 
ATOM     23  C   UNL     1       3.271   4.871  -0.130  0.00  0.00    -0.025 A 
ATOM     24  C   UNL     1       2.240   5.916  -0.470  0.00  0.00    +0.046 C 
ATOM     25  C   UNL     1       3.414   1.172   0.667  0.00  0.00    +0.046 C 
ENDBRANCH   8  18
BRANCH   6  26
ATOM     26  C   UNL     1      -1.224   2.750  -1.475  0.00  0.00    +0.068 C 
BRANCH  26  27
ATOM     27  C   UNL     1      -1.474   3.712  -0.343  0.00  0.00    -0.045 A 
ATOM     28  C   UNL     1      -2.408   3.408   0.630  0.00  0.00    +0.004 A 
ATOM     29  C   UNL     1      -2.635   4.289   1.671  0.00  0.00    +0.000 A 
ATOM     30  C   UNL     1      -1.932   5.478   1.735  0.00  0.00    +0.000 A 
ATOM     31  C   UNL     1      -1.002   5.784   0.760  0.00  0.00    +0.000 A 
ATOM     32  C   UNL     1      -0.773   4.902  -0.279  0.00  0.00    +0.004 A 
ENDBRANCH  26  27
ENDBRANCH   6  26
TORSDOF 4
