REMARK  Name = ZINC63372642
REMARK  13 active torsions:
REMARK  status: ('A' for Active; 'I' for Inactive)
REMARK    1  A    between atoms: C_1  and  C_2
REMARK    2  A    between atoms: C_2  and  C_3
REMARK    3  A    between atoms: C_3  and  O_4
REMARK    4  A    between atoms: O_4  and  C_5
REMARK    5  A    between atoms: C_8  and  C_14
REMARK    6  A    between atoms: C_10  and  O_11
REMARK    7  A    between atoms: O_11  and  C_12
REMARK    8  A    between atoms: C_12  and  C_13
REMARK    9  A    between atoms: N_21  and  C_36
REMARK   10  A    between atoms: C_24  and  C_35
REMARK   11  A    between atoms: C_36  and  C_37
REMARK   12  A    between atoms: C_37  and  C_38
REMARK   13  A    between atoms: C_37  and  C_39
REMARK                            x       y       z     vdW  Elec       q    Type
REMARK                         _______ _______ _______ _____ _____    ______ ____
ROOT
ATOM      1  C   UNL     1      -6.306  -4.560  -0.375  0.00  0.00    +0.065 C 
ATOM      2  C   UNL     1      -6.994  -3.998  -1.631  0.00  0.00    +0.121 C 
ATOM      3  N   UNL     1      -7.534  -2.657  -1.333  0.00  0.00    -0.283 N 
ATOM      4  C   UNL     1      -7.101  -1.626  -2.067  0.00  0.00    +0.234 C 
ATOM      5  O   UNL     1      -6.270  -1.854  -2.921  0.00  0.00    -0.274 OA
ATOM      6  C   UNL     1      -7.566  -0.216  -1.916  0.00  0.00    +0.203 C 
ATOM      7  N   UNL     1      -8.566  -0.077  -0.870  0.00  0.00    -0.291 N 
ATOM      8  C   UNL     1      -8.996  -1.093  -0.123  0.00  0.00    +0.242 C 
ATOM      9  O   UNL     1      -9.836  -0.859   0.720  0.00  0.00    -0.273 OA
ATOM     10  C   UNL     1      -8.512  -2.499  -0.255  0.00  0.00    +0.135 C 
ATOM     11  C   UNL     1      -7.861  -2.954   1.055  0.00  0.00    +0.139 C 
ATOM     12  C   UNL     1      -7.248  -4.325   0.779  0.00  0.00    -0.027 C 
ATOM     13  C   UNL     1      -7.730  -5.145   1.704  0.00  0.00    -0.000 A 
ATOM     14  C   UNL     1      -7.433  -6.552   2.018  0.00  0.00    +0.010 A 
ATOM     15  C   UNL     1      -8.143  -7.101   3.039  0.00  0.00    +0.001 A 
ATOM     16  C   UNL     1      -9.106  -6.400   3.770  0.00  0.00    +0.002 A 
ATOM     17  C   UNL     1      -9.436  -5.102   3.557  0.00  0.00    +0.026 A 
ATOM     18  C   UNL     1      -8.750  -4.413   2.516  0.00  0.00    +0.043 A 
ATOM     19  N   UNL     1      -8.843  -3.150   2.122  0.00  0.00    -0.375 N 
ATOM     20  C   UNL     1      -9.710  -3.409  -0.536  0.00  0.00    +0.044 C 
ATOM     21  H   UNL     1      -9.449  -2.475   2.466  0.00  0.00    +0.160 HD
ENDROOT
BRANCH   1  25
ATOM     22  C   UNL     1      -2.616  -2.510   0.310  0.00  0.00    +0.162 A 
ATOM     23  C   UNL     1      -3.808  -1.803   0.270  0.00  0.00    +0.050 A 
ATOM     24  C   UNL     1      -4.999  -2.469   0.048  0.00  0.00    +0.008 A 
ATOM     25  C   UNL     1      -5.005  -3.839  -0.134  0.00  0.00    -0.035 A 
ATOM     26  C   UNL     1      -3.820  -4.550  -0.095  0.00  0.00    +0.053 A 
ATOM     27  C   UNL     1      -2.622  -3.888   0.121  0.00  0.00    +0.162 A 
BRANCH  22  28
ATOM     28  O   UNL     1      -1.444  -1.856   0.528  0.00  0.00    -0.488 OA
BRANCH  28  29
ATOM     29  C   UNL     1      -1.514  -0.441   0.714  0.00  0.00    +0.229 C 
BRANCH  29  31
ATOM     30  C   UNL     1      -0.183   1.629   1.143  0.00  0.00    +0.007 C 
ATOM     31  C   UNL     1      -0.107   0.114   0.944  0.00  0.00    +0.038 C 
ENDBRANCH  29  31
ENDBRANCH  28  29
ENDBRANCH  22  28
BRANCH  27  32
ATOM     32  O   UNL     1      -1.454  -4.585   0.154  0.00  0.00    -0.489 OA
BRANCH  32  33
ATOM     33  C   UNL     1      -1.536  -5.997  -0.049  0.00  0.00    +0.226 C 
ATOM     34  C   UNL     1      -0.134  -6.605   0.022  0.00  0.00    +0.048 C 
ENDBRANCH  32  33
ENDBRANCH  27  32
ENDBRANCH   1  25
BRANCH   7  35
ATOM     35  C   UNL     1      -9.131   1.252  -0.624  0.00  0.00    +0.111 C 
BRANCH  35  36
ATOM     36  C   UNL     1      -8.207   2.034   0.311  0.00  0.00    +0.000 C 
ATOM     37  C   UNL     1      -8.722   3.468   0.455  0.00  0.00    +0.009 C 
ATOM     38  C   UNL     1      -8.182   1.361   1.684  0.00  0.00    +0.009 C 
ENDBRANCH  35  36
ENDBRANCH   7  35
TORSDOF 8
