REMARK  Name = ZINC12117294
REMARK  4 active torsions:
REMARK  status: ('A' for Active; 'I' for Inactive)
REMARK    1  A    between atoms: C_1  and  O_2
REMARK    2  A    between atoms: O_2  and  C_3
REMARK    3  A    between atoms: C_15  and  C_16
REMARK    4  A    between atoms: C_15  and  N_55
REMARK                            x       y       z     vdW  Elec       q    Type
REMARK                         _______ _______ _______ _____ _____    ______ ____
ROOT
ATOM      1  C   UNL     1      -0.328   1.369   0.042  0.00  0.00    +0.122 A 
ATOM      2  C   UNL     1       0.843   2.107   0.132  0.00  0.00    +0.048 A 
ATOM      3  C   UNL     1       2.066   1.463   0.201  0.00  0.00    +0.031 A 
ATOM      4  C   UNL     1       2.117   0.083   0.176  0.00  0.00    +0.067 A 
ATOM      5  C   UNL     1       0.940  -0.668   0.100  0.00  0.00    +0.055 A 
ATOM      6  C   UNL     1      -0.282  -0.017   0.029  0.00  0.00    +0.070 A 
ATOM      7  N   UNL     1       0.996  -2.067   0.118  0.00  0.00    -0.331 N 
ATOM      8  C   UNL     1       2.179  -2.768  -0.400  0.00  0.00    +0.069 C 
ATOM      9  C   UNL     1       2.076  -2.898  -1.920  0.00  0.00    +0.013 C 
ATOM     10  C   UNL     1       0.864  -3.763  -2.275  0.00  0.00    -0.076 C 
ATOM     11  C   UNL     1       1.050  -4.985  -0.190  0.00  0.00    -0.076 C 
ATOM     12  C   UNL     1       2.269  -4.159   0.229  0.00  0.00    +0.013 C 
ATOM     13  C   UNL     1       3.401  -1.964  -0.036  0.00  0.00    +0.047 A 
ATOM     14  N   UNL     1       3.339  -0.610   0.210  0.00  0.00    -0.316 N 
ATOM     15  C   UNL     1       4.587  -0.162   0.482  0.00  0.00    +0.092 A 
ATOM     16  C   UNL     1       5.434  -1.216   0.434  0.00  0.00    +0.020 A 
ATOM     17  C   UNL     1       4.671  -2.359   0.108  0.00  0.00    +0.025 A 
ATOM     18  H   UNL     1       0.251  -2.576   0.474  0.00  0.00    +0.147 HD
ATOM     19  N   UNL     1       1.033  -5.098  -1.664  0.00  0.00    +0.383 N 
ATOM     20  H   UNL     1       1.926  -5.497  -1.978  0.00  0.00    -0.081 HD
ENDROOT
BRANCH   1  22
ATOM     21  C   UNL     1      -1.503   3.435  -0.022  0.00  0.00    +0.277 C 
ATOM     22  O   UNL     1      -1.526   2.007  -0.041  0.00  0.00    -0.495 OA
ENDBRANCH   1  22
BRANCH  19  23
ATOM     23  C   UNL     1      -0.066  -5.990  -2.089  0.00  0.00    -0.041 C 
BRANCH  23  24
ATOM     24  C   UNL     1       0.245  -7.393  -1.636  0.00  0.00    -0.042 A 
ATOM     25  C   UNL     1      -0.450  -7.946  -0.575  0.00  0.00    +0.052 A 
ATOM     26  C   UNL     1      -0.166  -9.235  -0.158  0.00  0.00    +0.167 A 
ATOM     27  C   UNL     1       0.820  -9.974  -0.808  0.00  0.00    +0.168 A 
ATOM     28  C   UNL     1       1.512  -9.415  -1.869  0.00  0.00    +0.069 A 
ATOM     29  C   UNL     1       1.220  -8.128  -2.285  0.00  0.00    +0.046 A 
ATOM     30 CL   UNL     1       2.083  -7.432  -3.621  0.00  0.00    -0.083 Cl
ATOM     31  O   UNL     1       0.908 -11.200  -0.215  0.00  0.00    -0.453 OA
ATOM     32  C   UNL     1       0.255 -11.059   1.060  0.00  0.00    +0.466 C 
ATOM     33  O   UNL     1      -0.695  -9.999   0.842  0.00  0.00    -0.453 OA
ENDBRANCH  23  24
ENDBRANCH  19  23
TORSDOF 3
