REMARK  Name = ZINC01004363
REMARK  8 active torsions:
REMARK  status: ('A' for Active; 'I' for Inactive)
REMARK    1  A    between atoms: C_1  and  O_2
REMARK    2  A    between atoms: O_2  and  C_3
REMARK    3  A    between atoms: C_5  and  C_20
REMARK    4  A    between atoms: C_8  and  O_9
REMARK    5  A    between atoms: O_9  and  C_10
REMARK    6  A    between atoms: C_10  and  C_11
REMARK    7  A    between atoms: C_20  and  N_21
REMARK    8  A    between atoms: N_21  and  N_22
REMARK                            x       y       z     vdW  Elec       q    Type
REMARK                         _______ _______ _______ _____ _____    ______ ____
ROOT
ATOM      1  C   UNL     1      -0.787   2.893   1.346  0.00  0.00    +0.163 A 
ATOM      2  C   UNL     1      -0.254   3.751   0.398  0.00  0.00    +0.054 A 
ATOM      3  C   UNL     1      -0.368   5.119   0.561  0.00  0.00    -0.024 A 
ATOM      4  C   UNL     1      -1.002   5.635   1.676  0.00  0.00    +0.024 A 
ATOM      5  C   UNL     1      -1.532   4.784   2.629  0.00  0.00    +0.063 A 
ATOM      6  C   UNL     1      -1.426   3.411   2.468  0.00  0.00    +0.176 A 
ATOM      7 BR   UNL     1      -2.400   5.494   4.152  0.00  0.00    -0.046 Br
ENDROOT
BRANCH   1   9
ATOM      8  C   UNL     1      -0.013   1.086   0.008  0.00  0.00    +0.277 C 
ATOM      9  O   UNL     1      -0.682   1.547   1.184  0.00  0.00    -0.491 OA
ENDBRANCH   1   9
BRANCH   6  10
ATOM     10  O   UNL     1      -1.947   2.573   3.404  0.00  0.00    -0.483 OA
BRANCH  10  11
ATOM     11  C   UNL     1      -1.087   2.184   4.477  0.00  0.00    +0.266 C 
BRANCH  11  12
ATOM     12  C   UNL     1      -1.830   1.262   5.408  0.00  0.00    +0.008 A 
ATOM     13  C   UNL     1      -3.145   0.925   5.144  0.00  0.00    +0.010 A 
ATOM     14  C   UNL     1      -3.827   0.079   5.997  0.00  0.00    +0.020 A 
ATOM     15  C   UNL     1      -3.195  -0.431   7.117  0.00  0.00    +0.042 A 
ATOM     16  C   UNL     1      -1.880  -0.095   7.383  0.00  0.00    +0.040 A 
ATOM     17  C   UNL     1      -1.196   0.748   6.525  0.00  0.00    +0.049 A 
ATOM     18 CL   UNL     1       0.457   1.166   6.854  0.00  0.00    -0.083 Cl
ATOM     19 CL   UNL     1      -4.053  -1.494   8.189  0.00  0.00    -0.083 Cl
ENDBRANCH  11  12
ENDBRANCH  10  11
ENDBRANCH   6  10
BRANCH   3  20
ATOM     20  C   UNL     1       0.207   6.050  -0.475  0.00  0.00    +0.157 C 
BRANCH  20  21
ATOM     21  N   UNL     1       1.600   6.365  -0.131  0.00  0.00    -0.260 N 
ATOM     22  H   UNL     1       1.664   6.752   0.798  0.00  0.00    +0.168 HD
BRANCH  21  23
ATOM     23  N   UNL     1       2.153   7.209  -1.052  0.00  0.00    -0.129 N 
ATOM     24  C   UNL     1       3.410   7.709  -1.058  0.00  0.00    +0.251 A 
ATOM     25  N   UNL     1       3.517   8.474  -2.122  0.00  0.00    -0.091 NA
ATOM     26  N   UNL     1       2.415   8.487  -2.780  0.00  0.00    -0.020 NA
ATOM     27  N   UNL     1       1.539   7.740  -2.200  0.00  0.00    -0.024 NA
ATOM     28  N   UNL     1       4.397   7.461  -0.121  0.00  0.00    -0.325 N 
ATOM     29  H   UNL     1       4.216   6.877   0.632  0.00  0.00    +0.145 HD
ATOM     30  H   UNL     1       5.271   7.871  -0.217  0.00  0.00    +0.145 HD
ENDBRANCH  21  23
ENDBRANCH  20  21
ENDBRANCH   3  20
TORSDOF 7
