REMARK  Name = ZINC11369146
REMARK  8 active torsions:
REMARK  status: ('A' for Active; 'I' for Inactive)
REMARK    1  A    between atoms: C_1  and  O_2
REMARK    2  A    between atoms: O_2  and  C_3
REMARK    3  A    between atoms: C_8  and  C_9
REMARK    4  A    between atoms: C_12  and  S_15
REMARK    5  A    between atoms: N_13  and  N_14
REMARK    6  A    between atoms: S_15  and  C_16
REMARK    7  A    between atoms: C_16  and  C_18
REMARK    8  A    between atoms: C_16  and  C_24
REMARK                            x       y       z     vdW  Elec       q    Type
REMARK                         _______ _______ _______ _____ _____    ______ ____
ROOT
ATOM      1  C   UNL     1       1.262  -2.178   0.361  0.00  0.00    +0.185 A 
ATOM      2  N   UNL     1       2.229  -2.897  -0.162  0.00  0.00    -0.127 NA
ATOM      3  N   UNL     1       1.915  -4.143  -0.131  0.00  0.00    -0.121 NA
ATOM      4  C   UNL     1       0.729  -4.296   0.414  0.00  0.00    +0.210 A 
ATOM      5  N   UNL     1       0.275  -3.052   0.751  0.00  0.00    -0.224 N 
ENDROOT
BRANCH   1  11
ATOM      6  C   UNL     1       2.329   0.058   0.068  0.00  0.00    +0.131 A 
ATOM      7  C   UNL     1       2.300   1.436   0.210  0.00  0.00    +0.046 A 
ATOM      8  C   UNL     1       1.204   2.051   0.785  0.00  0.00    +0.004 A 
ATOM      9  C   UNL     1       0.129   1.297   1.222  0.00  0.00    +0.001 A 
ATOM     10  C   UNL     1       0.142  -0.076   1.087  0.00  0.00    +0.015 A 
ATOM     11  C   UNL     1       1.243  -0.708   0.508  0.00  0.00    +0.062 A 
BRANCH   6  13
ATOM     12  C   UNL     1       4.476   0.299  -0.923  0.00  0.00    +0.277 C 
ATOM     13  O   UNL     1       3.406  -0.547  -0.497  0.00  0.00    -0.494 OA
ENDBRANCH   6  13
ENDBRANCH   1  11
BRANCH   5  14
ATOM     14  N   UNL     1      -0.914  -2.742   1.347  0.00  0.00    -0.295 N 
ATOM     15  H   UNL     1      -1.633  -2.580   0.658  0.00  0.00    +0.163 HD
ATOM     16  H   UNL     1      -1.192  -3.462   1.998  0.00  0.00    +0.163 HD
ENDBRANCH   5  14
BRANCH   4  17
ATOM     17  S   UNL     1      -0.114  -5.822   0.670  0.00  0.00    -0.067 S 
BRANCH  17  18
ATOM     18  C   UNL     1       1.104  -6.973  -0.013  0.00  0.00    +0.170 C 
BRANCH  18  19
ATOM     19  C   UNL     1       0.639  -8.389   0.211  0.00  0.00    -0.025 A 
ATOM     20  C   UNL     1      -0.643  -8.760  -0.147  0.00  0.00    +0.005 A 
ATOM     21  C   UNL     1      -1.069 -10.059   0.055  0.00  0.00    +0.000 A 
ATOM     22  C   UNL     1      -0.215 -10.986   0.623  0.00  0.00    +0.000 A 
ATOM     23  C   UNL     1       1.066 -10.613   0.986  0.00  0.00    +0.000 A 
ATOM     24  C   UNL     1       1.493  -9.315   0.780  0.00  0.00    +0.005 A 
ENDBRANCH  18  19
BRANCH  18  25
ATOM     25  C   UNL     1       1.258  -6.723  -1.492  0.00  0.00    +0.228 C 
ATOM     26  O   UNL     1       2.325  -6.358  -1.937  0.00  0.00    -0.274 OA
ATOM     27  N   UNL     1       0.209  -6.905  -2.318  0.00  0.00    -0.328 N 
ATOM     28  H   UNL     1      -0.663  -7.125  -1.955  0.00  0.00    +0.145 HD
ATOM     29  H   UNL     1       0.327  -6.816  -3.277  0.00  0.00    +0.145 HD
ENDBRANCH  18  25
ENDBRANCH  17  18
ENDBRANCH   4  17
TORSDOF 7
