REMARK  Name = ZINC13132351
REMARK  5 active torsions:
REMARK  status: ('A' for Active; 'I' for Inactive)
REMARK    1  A    between atoms: C_1  and  C_2
REMARK    2  A    between atoms: C_2  and  C_3
REMARK    3  A    between atoms: C_6  and  C_9
REMARK    4  A    between atoms: C_12  and  C_21
REMARK    5  A    between atoms: C_24  and  C_27
REMARK                            x       y       z     vdW  Elec       q    Type
REMARK                         _______ _______ _______ _____ _____    ______ ____
ROOT
ATOM      1  C   UNL     1       2.797  -1.919   4.683  0.00  0.00    +0.106 C 
ATOM      2  C   UNL     1       3.040  -0.755   5.651  0.00  0.00    +0.058 C 
ATOM      3  C   UNL     1       1.703  -0.103   6.023  0.00  0.00    +0.143 C 
ATOM      4  N   UNL     1       0.762  -1.150   6.421  0.00  0.00    -0.224 N 
ATOM      5  C   UNL     1       0.904  -2.461   6.112  0.00  0.00    +0.216 A 
ATOM      6  N   UNL     1      -0.106  -3.112   6.624  0.00  0.00    -0.180 NA
ATOM      7  C   UNL     1      -0.913  -2.253   7.265  0.00  0.00    +0.233 A 
ATOM      8  N   UNL     1      -0.415  -1.041   7.163  0.00  0.00    -0.132 NA
ATOM      9  N   UNL     1      -2.091  -2.591   7.932  0.00  0.00    -0.326 N 
ATOM     10  N   UNL     1       1.978  -2.939   5.366  0.00  0.00    -0.307 N 
ATOM     11  H   UNL     1      -2.385  -3.515   7.958  0.00  0.00    +0.145 HD
ATOM     12  H   UNL     1      -2.615  -1.903   8.370  0.00  0.00    +0.145 HD
ATOM     13  H   UNL     1       2.179  -3.886   5.299  0.00  0.00    +0.149 HD
ENDROOT
BRANCH   3  14
ATOM     14  C   UNL     1       1.909   0.856   7.167  0.00  0.00    -0.023 A 
ATOM     15  C   UNL     1       2.408   0.397   8.372  0.00  0.00    +0.006 A 
ATOM     16  C   UNL     1       2.598   1.276   9.422  0.00  0.00    +0.004 A 
ATOM     17  C   UNL     1       2.289   2.615   9.266  0.00  0.00    -0.050 A 
ATOM     18  C   UNL     1       1.792   3.074   8.061  0.00  0.00    +0.004 A 
ATOM     19  C   UNL     1       1.606   2.195   7.010  0.00  0.00    +0.006 A 
ATOM     20  C   UNL     1       2.495   3.574  10.411  0.00  0.00    +0.044 C 
ENDBRANCH   3  14
BRANCH   1  24
ATOM     21  C   UNL     1       0.731  -0.503   1.223  0.00  0.00    -0.048 A 
ATOM     22  C   UNL     1       2.097  -0.710   1.176  0.00  0.00    +0.004 A 
ATOM     23  C   UNL     1       2.766  -1.167   2.296  0.00  0.00    +0.006 A 
ATOM     24  C   UNL     1       2.068  -1.419   3.463  0.00  0.00    -0.027 A 
ATOM     25  C   UNL     1       0.702  -1.212   3.510  0.00  0.00    +0.006 A 
ATOM     26  C   UNL     1       0.034  -0.750   2.391  0.00  0.00    +0.004 A 
BRANCH  21  28
ATOM     27  C   UNL     1      -0.019   1.526   0.010  0.00  0.00    +0.009 C 
ATOM     28  C   UNL     1       0.002  -0.004   0.002  0.00  0.00    +0.032 C 
ENDBRANCH  21  28
ENDBRANCH   1  24
TORSDOF 3
