REMARK  Name = ZINC39575449
REMARK  10 active torsions:
REMARK  status: ('A' for Active; 'I' for Inactive)
REMARK    1  A    between atoms: C_1  and  C_2
REMARK    2  A    between atoms: C_2  and  C_3
REMARK    3  A    between atoms: N_11  and  C_15
REMARK    4  A    between atoms: C_15  and  C_16
REMARK    5  A    between atoms: C_16  and  O_18
REMARK    6  A    between atoms: O_18  and  C_19
REMARK    7  A    between atoms: C_19  and  C_20
REMARK    8  A    between atoms: N_22  and  C_23
REMARK    9  A    between atoms: C_28  and  C_29
REMARK   10  A    between atoms: C_29  and  C_31
REMARK                            x       y       z     vdW  Elec       q    Type
REMARK                         _______ _______ _______ _____ _____    ______ ____
ROOT
ATOM      1  O   UNL     1      -3.645  -4.092  -6.773  0.00  0.00    -0.454 OA
ENDROOT
BRANCH   1   2
ATOM      2  C   UNL     1      -2.522  -3.528  -6.300  0.00  0.00    +0.326 C 
ATOM      3  O   UNL     1      -2.267  -2.377  -6.564  0.00  0.00    -0.249 OA
BRANCH   2   4
ATOM      4  C   UNL     1      -1.581  -4.331  -5.439  0.00  0.00    +0.238 C 
BRANCH   4  13
ATOM      5  C   UNL     1       0.948  -0.440  -1.532  0.00  0.00    -0.011 C 
ATOM      6  C   UNL     1       0.109  -0.048  -2.750  0.00  0.00    +0.006 C 
ATOM      7  C   UNL     1       0.796  -0.547  -4.024  0.00  0.00    +0.035 C 
ATOM      8  C   UNL     1       0.953  -2.062  -3.960  0.00  0.00    +0.113 C 
ATOM      9  C   UNL     1       1.766  -2.470  -2.737  0.00  0.00    +0.035 C 
ATOM     10  C   UNL     1       1.075  -1.964  -1.469  0.00  0.00    +0.006 C 
ATOM     11  C   UNL     1      -0.401  -2.733  -3.942  0.00  0.00    +0.247 C 
ATOM     12  O   UNL     1      -1.269  -2.611  -3.105  0.00  0.00    -0.273 OA
ATOM     13  N   UNL     1      -0.440  -3.496  -5.054  0.00  0.00    -0.213 N 
ATOM     14  C   UNL     1       0.692  -3.397  -5.760  0.00  0.00    +0.310 C 
ATOM     15  O   UNL     1       0.894  -3.991  -6.801  0.00  0.00    -0.252 OA
ATOM     16  N   UNL     1       1.583  -2.565  -5.188  0.00  0.00    -0.285 N 
ATOM     17  H   UNL     1       2.467  -2.342  -5.521  0.00  0.00    +0.151 HD
BRANCH   5  19
ATOM     18  C   UNL     1       0.253   1.598  -0.266  0.00  0.00    +0.004 C 
ATOM     19  C   UNL     1       0.268   0.068  -0.259  0.00  0.00    -0.000 C 
ENDBRANCH   5  19
ENDBRANCH   4  13
ENDBRANCH   2   4
ENDBRANCH   1   2
BRANCH   1  20
ATOM     20  C   UNL     1      -4.491  -3.272  -7.582  0.00  0.00    +0.328 C 
BRANCH  20  21
ATOM     21  C   UNL     1      -5.693  -4.069  -8.019  0.00  0.00    +0.255 C 
ATOM     22  O   UNL     1      -5.814  -5.225  -7.672  0.00  0.00    -0.272 OA
ATOM     23  N   UNL     1      -6.635  -3.497  -8.796  0.00  0.00    -0.282 N 
ATOM     24  H   UNL     1      -6.583  -2.551  -9.004  0.00  0.00    +0.155 HD
BRANCH  23  25
ATOM     25  C   UNL     1      -7.681  -4.265  -9.301  0.00  0.00    +0.044 A 
ATOM     26  C   UNL     1      -7.526  -5.635  -9.465  0.00  0.00    +0.024 A 
ATOM     27  C   UNL     1      -8.564  -6.394  -9.965  0.00  0.00    +0.002 A 
ATOM     28  C   UNL     1      -9.768  -5.797 -10.308  0.00  0.00    +0.001 A 
ATOM     29  C   UNL     1      -9.941  -4.440 -10.152  0.00  0.00    +0.013 A 
ATOM     30  C   UNL     1      -8.901  -3.658  -9.641  0.00  0.00    +0.043 A 
BRANCH  30  31
ATOM     31  C   UNL     1      -9.081  -2.206  -9.466  0.00  0.00    +0.195 C 
ATOM     32  O   UNL     1      -9.136  -1.478 -10.438  0.00  0.00    -0.287 OA
BRANCH  31  33
ATOM     33  C   UNL     1      -9.196  -1.634  -8.108  0.00  0.00    +0.022 A 
ATOM     34  C   UNL     1      -9.236  -2.475  -6.993  0.00  0.00    +0.012 A 
ATOM     35  C   UNL     1      -9.343  -1.934  -5.729  0.00  0.00    +0.001 A 
ATOM     36  C   UNL     1      -9.412  -0.562  -5.563  0.00  0.00    +0.000 A 
ATOM     37  C   UNL     1      -9.374   0.277  -6.663  0.00  0.00    +0.001 A 
ATOM     38  C   UNL     1      -9.260  -0.250  -7.933  0.00  0.00    +0.012 A 
ENDBRANCH  31  33
ENDBRANCH  30  31
ENDBRANCH  23  25
ENDBRANCH  20  21
ENDBRANCH   1  20
TORSDOF 9
