REMARK  Name = ZINC41046180
REMARK  4 active torsions:
REMARK  status: ('A' for Active; 'I' for Inactive)
REMARK    1  A    between atoms: C_3  and  S_11
REMARK    2  A    between atoms: C_4  and  C_8
REMARK    3  A    between atoms: C_6  and  N_7
REMARK    4  A    between atoms: S_11  and  C_12
REMARK                            x       y       z     vdW  Elec       q    Type
REMARK                         _______ _______ _______ _____ _____    ______ ____
ROOT
ATOM      1  C   UNL     1       0.009   1.354  -0.387  0.00  0.00    +0.024 A 
ATOM      2  C   UNL     1       1.187   2.069  -0.357  0.00  0.00    +0.017 A 
ATOM      3  C   UNL     1       2.384   1.430  -0.061  0.00  0.00    +0.027 A 
ATOM      4  C   UNL     1       2.391   0.052   0.208  0.00  0.00    +0.052 A 
ATOM      5  C   UNL     1       1.192  -0.664   0.174  0.00  0.00    +0.037 A 
ATOM      6  C   UNL     1       0.008  -0.012  -0.122  0.00  0.00    +0.025 A 
ENDROOT
BRANCH   4   7
ATOM      7  C   UNL     1       3.657  -0.635   0.522  0.00  0.00    +0.243 C 
ATOM      8  O   UNL     1       4.699  -0.008   0.550  0.00  0.00    -0.270 OA
ATOM      9  N   UNL     1       3.659  -1.958   0.779  0.00  0.00    -0.325 N 
ATOM     10  H   UNL     1       2.829  -2.458   0.757  0.00  0.00    +0.145 HD
ATOM     11  H   UNL     1       4.492  -2.410   0.987  0.00  0.00    +0.145 HD
ENDBRANCH   4   7
BRANCH   6  12
ATOM     12  N   UNL     1      -1.194  -0.729  -0.155  0.00  0.00    -0.358 N 
ATOM     13  H   UNL     1      -2.024  -0.274  -0.363  0.00  0.00    +0.142 HD
ATOM     14  H   UNL     1      -1.195  -1.682   0.029  0.00  0.00    +0.142 HD
ENDBRANCH   6  12
BRANCH   3  15
ATOM     15  S   UNL     1       3.889   2.345  -0.023  0.00  0.00    -0.060 S 
BRANCH  15  16
ATOM     16  C   UNL     1       3.371   4.024  -0.159  0.00  0.00    +0.163 A 
ATOM     17  N   UNL     1       2.151   4.544  -0.143  0.00  0.00    -0.135 NA
ATOM     18  N   UNL     1       1.956   5.786  -0.254  0.00  0.00    -0.149 NA
ATOM     19  C   UNL     1       2.948   6.643  -0.390  0.00  0.00    +0.182 A 
ATOM     20  S   UNL     1       4.340   5.518  -0.348  0.00  0.00    -0.047 S 
ENDBRANCH  15  16
ENDBRANCH   3  15
TORSDOF 4
