REMARK  Name = ZINC31946122
REMARK  2 active torsions:
REMARK  status: ('A' for Active; 'I' for Inactive)
REMARK    1  A    between atoms: N_11  and  C_14
REMARK    2  A    between atoms: C_14  and  C_15
REMARK                            x       y       z     vdW  Elec       q    Type
REMARK                         _______ _______ _______ _____ _____    ______ ____
ROOT
ATOM      1  C   UNL     1      -0.760   1.597  -1.227  0.00  0.00    +0.005 C 
ATOM      2  C   UNL     1      -0.013   1.086   0.008  0.00  0.00    +0.005 C 
ATOM      3  C   UNL     1      -0.738   1.584   1.266  0.00  0.00    +0.043 C 
ATOM      4  C   UNL     1      -2.205   1.311   1.102  0.00  0.00    -0.004 A 
ATOM      5  C   UNL     1      -2.859   0.990  -0.041  0.00  0.00    -0.023 A 
ATOM      6  C   UNL     1      -4.288   0.771   0.067  0.00  0.00    +0.079 A 
ATOM      7  C   UNL     1      -4.847   0.917   1.356  0.00  0.00    +0.138 A 
ATOM      8  S   UNL     1      -3.457   1.336   2.360  0.00  0.00    -0.071 S 
ATOM      9  N   UNL     1      -6.135   0.752   1.636  0.00  0.00    -0.123 NA
ATOM     10  N   UNL     1      -6.930   0.438   0.660  0.00  0.00    -0.061 NA
ATOM     11  N   UNL     1      -6.484   0.269  -0.651  0.00  0.00    -0.201 N 
ATOM     12  C   UNL     1      -5.184   0.422  -1.002  0.00  0.00    +0.279 A 
ATOM     13  O   UNL     1      -4.800   0.274  -2.149  0.00  0.00    -0.265 OA
ATOM     14  C   UNL     1      -2.100   0.873  -1.360  0.00  0.00    +0.037 C 
ENDROOT
BRANCH  11  15
ATOM     15  C   UNL     1      -7.457  -0.086  -1.687  0.00  0.00    +0.244 C 
BRANCH  15  16
ATOM     16  C   UNL     1      -7.559  -1.587  -1.787  0.00  0.00    +0.237 C 
ATOM     17  O   UNL     1      -6.886  -2.290  -1.063  0.00  0.00    -0.274 OA
ATOM     18  N   UNL     1      -8.399  -2.147  -2.679  0.00  0.00    -0.298 N 
ATOM     19  C   UNL     1      -9.229  -1.313  -3.562  0.00  0.00    +0.123 C 
ATOM     20  C   UNL     1     -10.680  -1.782  -3.460  0.00  0.00    +0.100 C 
ATOM     21  N   UNL     1     -10.746  -3.225  -3.725  0.00  0.00    -0.313 NA
ATOM     22  C   UNL     1      -9.998  -3.987  -2.717  0.00  0.00    +0.100 C 
ATOM     23  C   UNL     1      -8.515  -3.609  -2.793  0.00  0.00    +0.123 C 
ATOM     24  H   UNL     1     -11.796  -3.554  -3.705  0.00  0.00    +0.122 HD
ENDBRANCH  15  16
ENDBRANCH  11  15
TORSDOF 2
