REMARK  Name = ZINC67096386
REMARK  6 active torsions:
REMARK  status: ('A' for Active; 'I' for Inactive)
REMARK    1  A    between atoms: C_1  and  C_2
REMARK    2  A    between atoms: C_2  and  C_21
REMARK    3  A    between atoms: C_8  and  O_11
REMARK    4  A    between atoms: O_11  and  C_12
REMARK    5  A    between atoms: C_12  and  C_13
REMARK    6  A    between atoms: C_15  and  C_18
REMARK                            x       y       z     vdW  Elec       q    Type
REMARK                         _______ _______ _______ _____ _____    ______ ____
ROOT
ATOM      1  C   UNL     1      -0.019   1.526   0.010  0.00  0.00    +0.056 C 
ATOM      2  C   UNL     1       0.002  -0.004   0.002  0.00  0.00    +0.109 C 
ATOM      3  C   UNL     1       0.832  -0.534  -1.191  0.00  0.00    +0.086 C 
ATOM      4  C   UNL     1       2.204  -0.704  -0.568  0.00  0.00    +0.002 A 
ATOM      5  C   UNL     1       3.456  -0.875  -1.120  0.00  0.00    +0.007 A 
ATOM      6  C   UNL     1       4.564  -1.000  -0.301  0.00  0.00    +0.004 A 
ATOM      7  C   UNL     1       4.412  -0.953   1.073  0.00  0.00    +0.049 A 
ATOM      8  C   UNL     1       3.157  -0.786   1.631  0.00  0.00    +0.163 A 
ATOM      9  C   UNL     1       2.034  -0.662   0.808  0.00  0.00    +0.166 A 
ATOM     10  O   UNL     1       0.721  -0.510   1.139  0.00  0.00    -0.482 OA
ATOM     11  C   UNL     1      -1.422  -0.563  -0.032  0.00  0.00    +0.056 C 
ENDROOT
BRANCH   8  12
ATOM     12  O   UNL     1       3.016  -0.742   2.983  0.00  0.00    -0.480 OA
BRANCH  12  13
ATOM     13  C   UNL     1       4.205  -0.874   3.764  0.00  0.00    +0.308 C 
BRANCH  13  14
ATOM     14  C   UNL     1       3.855  -0.802   5.228  0.00  0.00    +0.209 A 
ATOM     15  N   UNL     1       3.804   0.316   5.961  0.00  0.00    -0.192 NA
ATOM     16  C   UNL     1       3.471   0.031   7.189  0.00  0.00    +0.231 A 
ATOM     17  O   UNL     1       3.297  -1.294   7.280  0.00  0.00    -0.338 OA
ATOM     18  N   UNL     1       3.548  -1.817   5.984  0.00  0.00    -0.058 NA
BRANCH  16  19
ATOM     19  C   UNL     1       3.309   1.022   8.313  0.00  0.00    +0.078 C 
ATOM     20  C   UNL     1       3.111   0.463   9.724  0.00  0.00    +0.014 C 
ATOM     21  C   UNL     1       1.938   1.110   8.985  0.00  0.00    +0.014 C 
ENDBRANCH  16  19
ENDBRANCH  13  14
ENDBRANCH  12  13
ENDBRANCH   8  12
TORSDOF 4
