REMARK  Name = ZINC05402094
REMARK  8 active torsions:
REMARK  status: ('A' for Active; 'I' for Inactive)
REMARK    1  A    between atoms: C_1  and  C_2
REMARK    2  A    between atoms: C_9  and  N_27
REMARK    3  A    between atoms: C_10  and  C_13
REMARK    4  A    between atoms: N_17  and  C_21
REMARK    5  A    between atoms: N_27  and  C_28
REMARK    6  A    between atoms: C_28  and  C_29
REMARK    7  A    between atoms: C_29  and  C_30
REMARK    8  A    between atoms: C_30  and  N_31
REMARK                            x       y       z     vdW  Elec       q    Type
REMARK                         _______ _______ _______ _____ _____    ______ ____
ROOT
ATOM      1  C   UNL     1       2.456   3.979   0.353  0.00  0.00    +0.047 C 
ATOM      2  C   UNL     1       1.192   3.205   0.080  0.00  0.00    -0.007 A 
ATOM      3  C   UNL     1       1.247   1.865  -0.163  0.00  0.00    +0.008 A 
ATOM      4  C   UNL     1       0.062   1.159  -0.416  0.00  0.00    +0.019 A 
ATOM      5  C   UNL     1      -1.125   1.807  -0.423  0.00  0.00    +0.096 A 
ATOM      6  N   UNL     1      -1.190   3.146  -0.176  0.00  0.00    -0.267 N 
ATOM      7  C   UNL     1      -0.052   3.861   0.074  0.00  0.00    +0.145 A 
ATOM      8  N   UNL     1      -0.096   5.172   0.313  0.00  0.00    -0.214 NA
ATOM      9  C   UNL     1      -1.240   5.840   0.320  0.00  0.00    +0.134 A 
ATOM     10  C   UNL     1      -2.450   5.152   0.068  0.00  0.00    +0.081 A 
ATOM     11  C   UNL     1      -2.393   3.761  -0.184  0.00  0.00    +0.267 A 
ATOM     12  O   UNL     1      -3.411   3.128  -0.406  0.00  0.00    -0.267 OA
ENDROOT
BRANCH  10  13
ATOM     13  C   UNL     1      -3.688   5.838   0.068  0.00  0.00    +0.037 C 
ATOM     14  C   UNL     1      -3.876   6.906  -0.760  0.00  0.00    +0.077 C 
ATOM     15  C   UNL     1      -4.981   7.800  -0.850  0.00  0.00    +0.259 C 
ATOM     16  O   UNL     1      -5.949   7.674  -0.120  0.00  0.00    -0.269 OA
ATOM     17  N   UNL     1      -4.925   8.773  -1.742  0.00  0.00    -0.252 N 
ATOM     18  C   UNL     1      -3.854   8.908  -2.556  0.00  0.00    +0.121 C 
ATOM     19  S   UNL     1      -3.574  10.076  -3.776  0.00  0.00    -0.027 S 
ATOM     20  S   UNL     1      -2.805   7.559  -2.035  0.00  0.00    -0.061 S 
BRANCH  17  21
ATOM     21  C   UNL     1      -6.042   9.714  -1.856  0.00  0.00    +0.083 C 
ATOM     22  C   UNL     1      -6.630   9.639  -3.267  0.00  0.00    +0.023 C 
ATOM     23  C   UNL     1      -7.797  10.621  -3.385  0.00  0.00    +0.002 C 
ATOM     24  C   UNL     1      -7.296  12.042  -3.116  0.00  0.00    +0.000 C 
ATOM     25  C   UNL     1      -6.708  12.117  -1.706  0.00  0.00    +0.002 C 
ATOM     26  C   UNL     1      -5.541  11.134  -1.587  0.00  0.00    +0.023 C 
ENDBRANCH  17  21
ENDBRANCH  10  13
BRANCH   9  27
ATOM     27  N   UNL     1      -1.251   7.195   0.571  0.00  0.00    -0.328 N 
ATOM     28  H   UNL     1      -2.091   7.680   0.575  0.00  0.00    +0.147 HD
BRANCH  27  29
ATOM     29  C   UNL     1       0.005   7.902   0.831  0.00  0.00    +0.104 C 
BRANCH  29  30
ATOM     30  C   UNL     1      -0.285   9.383   1.077  0.00  0.00    +0.040 C 
BRANCH  30  31
ATOM     31  C   UNL     1       1.028  10.122   1.349  0.00  0.00    +0.124 C 
BRANCH  31  32
ATOM     32  N   UNL     1       0.750  11.541   1.585  0.00  0.00    -0.337 N 
ATOM     33  C   UNL     1       0.712  12.529   0.638  0.00  0.00    +0.106 A 
ATOM     34  C   UNL     1       0.420  13.675   1.283  0.00  0.00    +0.130 A 
ATOM     35  N   UNL     1       0.293  13.396   2.589  0.00  0.00    -0.244 NA
ATOM     36  C   UNL     1       0.489  12.119   2.777  0.00  0.00    +0.199 A 
ENDBRANCH  31  32
ENDBRANCH  30  31
ENDBRANCH  29  30
ENDBRANCH  27  29
ENDBRANCH   9  27
TORSDOF 7
