REMARK  Name = ZINC23529497
REMARK  10 active torsions:
REMARK  status: ('A' for Active; 'I' for Inactive)
REMARK    1  A    between atoms: C_1  and  C_2
REMARK    2  A    between atoms: C_3  and  C_8
REMARK    3  A    between atoms: C_5  and  C_7
REMARK    4  A    between atoms: C_8  and  O_10
REMARK    5  A    between atoms: O_10  and  C_11
REMARK    6  A    between atoms: C_11  and  C_12
REMARK    7  A    between atoms: C_15  and  C_28
REMARK    8  A    between atoms: C_18  and  C_20
REMARK    9  A    between atoms: C_23  and  O_26
REMARK   10  A    between atoms: O_26  and  C_27
REMARK                            x       y       z     vdW  Elec       q    Type
REMARK                         _______ _______ _______ _____ _____    ______ ____
ROOT
ATOM      1  C   UNL     1      -3.606   1.965   0.030  0.00  0.00    +0.273 C 
ATOM      2  O   UNL     1      -3.463   3.170   0.036  0.00  0.00    -0.270 OA
ATOM      3  N   UNL     1      -4.844   1.433   0.033  0.00  0.00    -0.179 N 
ATOM      4  C   UNL     1      -6.103   2.195   0.043  0.00  0.00    +0.173 C 
ATOM      5  C   UNL     1      -7.188   1.100   0.042  0.00  0.00    +0.090 C 
ATOM      6  C   UNL     1      -6.403  -0.192   0.031  0.00  0.00    +0.069 C 
ATOM      7  N   UNL     1      -5.141   0.071   0.021  0.00  0.00    -0.181 NA
ENDROOT
BRANCH   6   8
ATOM      8  C   UNL     1      -6.989  -1.544   0.026  0.00  0.00    -0.002 A 
ATOM      9  C   UNL     1      -8.377  -1.706   0.037  0.00  0.00    +0.013 A 
ATOM     10  C   UNL     1      -8.921  -2.973   0.026  0.00  0.00    +0.046 A 
ATOM     11  C   UNL     1      -8.092  -4.087   0.016  0.00  0.00    +0.120 A 
ATOM     12  C   UNL     1      -6.712  -3.931   0.011  0.00  0.00    +0.046 A 
ATOM     13  C   UNL     1      -6.159  -2.668   0.016  0.00  0.00    +0.013 A 
BRANCH  11  14
ATOM     14  O   UNL     1      -8.632  -5.333   0.011  0.00  0.00    -0.495 OA
ATOM     15  C   UNL     1     -10.059  -5.422   0.017  0.00  0.00    +0.277 C 
ENDBRANCH  11  14
ENDBRANCH   6   8
BRANCH   4  16
ATOM     16  C   UNL     1      -6.212   3.055  -1.190  0.00  0.00    +0.128 A 
ATOM     17  C   UNL     1      -6.715   4.301  -1.237  0.00  0.00    +0.046 A 
ATOM     18  C   UNL     1      -6.625   4.729  -2.581  0.00  0.00    +0.041 A 
ATOM     19  C   UNL     1      -6.071   3.719  -3.275  0.00  0.00    +0.195 A 
ATOM     20  O   UNL     1      -5.818   2.709  -2.426  0.00  0.00    -0.466 OA
ENDBRANCH   4  16
BRANCH   1  21
ATOM     21  C   UNL     1      -2.398   1.063   0.019  0.00  0.00    +0.330 C 
BRANCH  21  22
ATOM     22  O   UNL     1      -1.192   1.870   0.018  0.00  0.00    -0.451 OA
BRANCH  22  23
ATOM     23  C   UNL     1      -0.014   1.212   0.009  0.00  0.00    +0.348 C 
ATOM     24  O   UNL     1       0.002  -0.004   0.002  0.00  0.00    -0.244 OA
BRANCH  23  27
ATOM     25  C   UNL     1       2.858   0.024  -0.012  0.00  0.00    +0.067 C 
ATOM     26  C   UNL     1       2.553   1.499  -0.009  0.00  0.00    +0.060 A 
ATOM     27  C   UNL     1       1.244   1.962   0.001  0.00  0.00    +0.119 A 
ATOM     28  S   UNL     1       1.523   3.727   0.008  0.00  0.00    -0.066 S 
ATOM     29  C   UNL     1       3.259   3.681  -0.008  0.00  0.00    +0.076 A 
ATOM     30  N   UNL     1       3.512   2.389  -0.018  0.00  0.00    -0.249 NA
ATOM     31  C   UNL     1       4.232   4.832  -0.010  0.00  0.00    +0.073 C 
ENDBRANCH  23  27
ENDBRANCH  22  23
ENDBRANCH  21  22
ENDBRANCH   1  21
TORSDOF 7
