REMARK  Name = ZINC01368395
REMARK  8 active torsions:
REMARK  status: ('A' for Active; 'I' for Inactive)
REMARK    1  A    between atoms: C_1  and  C_2
REMARK    2  A    between atoms: C_3  and  C_28
REMARK    3  A    between atoms: C_5  and  N_10
REMARK    4  A    between atoms: C_6  and  C_7
REMARK    5  A    between atoms: C_11  and  C_13
REMARK    6  A    between atoms: C_13  and  N_14
REMARK    7  A    between atoms: N_14  and  C_15
REMARK    8  A    between atoms: C_20  and  C_22
REMARK                            x       y       z     vdW  Elec       q    Type
REMARK                         _______ _______ _______ _____ _____    ______ ____
ROOT
ATOM      1  N   UNL     1       1.592  -2.192   0.561  0.00  0.00    -0.278 N 
ATOM      2  C   UNL     1       2.840  -2.588   0.244  0.00  0.00    +0.235 C 
ATOM      3  O   UNL     1       3.731  -1.771   0.154  0.00  0.00    -0.274 OA
ATOM      4  H   UNL     1       0.879  -2.846   0.633  0.00  0.00    +0.155 HD
ENDROOT
BRANCH   1   9
ATOM      5  C   UNL     1      -1.129   1.936   1.650  0.00  0.00    +0.045 C 
ATOM      6  C   UNL     1       0.125   1.180   1.294  0.00  0.00    -0.027 A 
ATOM      7  C   UNL     1       1.300   1.812   1.119  0.00  0.00    -0.008 A 
ATOM      8  S   UNL     1       2.421   0.490   0.715  0.00  0.00    -0.078 S 
ATOM      9  C   UNL     1       1.326  -0.850   0.784  0.00  0.00    +0.084 A 
ATOM     10  C   UNL     1       0.116  -0.253   1.118  0.00  0.00    +0.068 A 
ATOM     11  C   UNL     1       1.595   3.285   1.238  0.00  0.00    +0.052 C 
BRANCH  10  12
ATOM     12  C   UNL     1      -1.110  -1.040   1.285  0.00  0.00    +0.244 C 
ATOM     13  O   UNL     1      -1.839  -1.240   0.331  0.00  0.00    -0.270 OA
ATOM     14  N   UNL     1      -1.429  -1.542   2.494  0.00  0.00    -0.325 N 
ATOM     15  H   UNL     1      -0.848  -1.382   3.254  0.00  0.00    +0.145 HD
ATOM     16  H   UNL     1      -2.240  -2.063   2.604  0.00  0.00    +0.145 HD
ENDBRANCH  10  12
ENDBRANCH   1   9
BRANCH   2  17
ATOM     17  C   UNL     1       3.129  -4.047   0.001  0.00  0.00    +0.204 C 
BRANCH  17  18
ATOM     18  N   UNL     1       4.569  -4.235  -0.189  0.00  0.00    -0.289 N 
ATOM     19  C   UNL     1       5.120  -4.041  -1.404  0.00  0.00    +0.219 C 
ATOM     20  O   UNL     1       4.414  -3.780  -2.355  0.00  0.00    -0.275 OA
BRANCH  19  21
ATOM     21  C   UNL     1       6.613  -4.149  -1.580  0.00  0.00    +0.075 C 
ATOM     22  C   UNL     1       7.302  -3.042  -0.781  0.00  0.00    +0.013 C 
ATOM     23  C   UNL     1       8.818  -3.151  -0.960  0.00  0.00    +0.001 C 
ATOM     24  C   UNL     1       9.168  -3.004  -2.443  0.00  0.00    +0.000 C 
ATOM     25  C   UNL     1       8.478  -4.112  -3.242  0.00  0.00    +0.001 C 
ATOM     26  C   UNL     1       6.963  -4.002  -3.062  0.00  0.00    +0.013 C 
ENDBRANCH  19  21
BRANCH  18  27
ATOM     27  C   UNL     1       5.411  -4.634   0.942  0.00  0.00    +0.077 C 
ATOM     28  C   UNL     1       4.979  -6.021   1.459  0.00  0.00    +0.022 C 
ATOM     29  C   UNL     1       5.146  -5.921   2.997  0.00  0.00    +0.002 C 
ATOM     30  C   UNL     1       4.685  -4.473   3.298  0.00  0.00    +0.002 C 
ATOM     31  C   UNL     1       5.225  -3.650   2.110  0.00  0.00    +0.022 C 
ENDBRANCH  18  27
ENDBRANCH  17  18
ENDBRANCH   2  17
TORSDOF 6
