REMARK  Name = ZINC41848668
REMARK  5 active torsions:
REMARK  status: ('A' for Active; 'I' for Inactive)
REMARK    1  A    between atoms: C_1  and  C_2
REMARK    2  A    between atoms: C_7  and  N_8
REMARK    3  A    between atoms: C_9  and  C_11
REMARK    4  A    between atoms: N_13  and  C_14
REMARK    5  A    between atoms: C_14  and  C_15
REMARK                            x       y       z     vdW  Elec       q    Type
REMARK                         _______ _______ _______ _____ _____    ______ ____
ROOT
ATOM      1  C   UNL     1      -0.168   0.045   4.869  0.00  0.00    +0.299 C 
ATOM      2  O   UNL     1      -0.184   1.258   4.874  0.00  0.00    -0.265 OA
ATOM      3  N   UNL     1      -0.249  -0.635   6.030  0.00  0.00    -0.304 N 
ATOM      4  H   UNL     1      -0.236  -1.605   6.027  0.00  0.00    +0.149 HD
ENDROOT
BRANCH   1   6
ATOM      5  N   UNL     1       0.025  -0.016   2.416  0.00  0.00    -0.278 N 
ATOM      6  C   UNL     1      -0.057  -0.695   3.577  0.00  0.00    +0.303 C 
ATOM      7  O   UNL     1      -0.040  -1.909   3.572  0.00  0.00    -0.265 OA
ATOM      8  H   UNL     1       0.077   0.953   2.424  0.00  0.00    +0.155 HD
BRANCH   5  15
ATOM      9  C   UNL     1      -1.266   1.183   0.181  0.00  0.00    +0.046 C 
ATOM     10  C   UNL     1      -0.585  -0.158   0.084  0.00  0.00    -0.028 A 
ATOM     11  C   UNL     1      -0.570  -0.841  -1.116  0.00  0.00    +0.020 A 
ATOM     12  C   UNL     1       0.055  -2.072  -1.206  0.00  0.00    +0.018 A 
ATOM     13  C   UNL     1       0.667  -2.623  -0.094  0.00  0.00    +0.017 A 
ATOM     14  C   UNL     1       0.656  -1.945   1.109  0.00  0.00    +0.024 A 
ATOM     15  C   UNL     1       0.033  -0.706   1.201  0.00  0.00    +0.037 A 
ATOM     16 BR   UNL     1       0.073  -3.003  -2.852  0.00  0.00    -0.050 Br
ENDBRANCH   5  15
ENDBRANCH   1   6
BRANCH   3  17
ATOM     17  C   UNL     1      -0.358   0.091   7.298  0.00  0.00    +0.149 C 
BRANCH  17  18
ATOM     18  C   UNL     1      -0.435  -0.909   8.454  0.00  0.00    +0.195 C 
ATOM     19  C   UNL     1      -0.614  -0.174   9.803  0.00  0.00    +0.085 C 
ATOM     20  C   UNL     1      -1.536  -1.116  10.553  0.00  0.00    -0.002 A 
ATOM     21  C   UNL     1      -1.873  -1.214  11.885  0.00  0.00    +0.007 A 
ATOM     22  C   UNL     1      -2.754  -2.196  12.304  0.00  0.00    +0.000 A 
ATOM     23  C   UNL     1      -3.293  -3.074  11.382  0.00  0.00    +0.004 A 
ATOM     24  C   UNL     1      -2.959  -2.975  10.047  0.00  0.00    +0.046 A 
ATOM     25  C   UNL     1      -2.076  -1.987   9.616  0.00  0.00    +0.124 A 
ATOM     26  O   UNL     1      -1.628  -1.705   8.360  0.00  0.00    -0.487 OA
ENDBRANCH  17  18
ENDBRANCH   3  17
TORSDOF 4
