REMARK  Name = ZINC42427717
REMARK  4 active torsions:
REMARK  status: ('A' for Active; 'I' for Inactive)
REMARK    1  A    between atoms: C_1  and  C_2
REMARK    2  A    between atoms: C_6  and  C_20
REMARK    3  A    between atoms: N_9  and  C_10
REMARK    4  A    between atoms: C_15  and  N_16
REMARK                            x       y       z     vdW  Elec       q    Type
REMARK                         _______ _______ _______ _____ _____    ______ ____
ROOT
ATOM      1  C   UNL     1      -0.019   1.526   0.010  0.00  0.00    +0.028 C 
ATOM      2  C   UNL     1       0.002  -0.004   0.002  0.00  0.00    +0.070 C 
ATOM      3  C   UNL     1       0.725  -0.501  -1.254  0.00  0.00    +0.023 C 
ATOM      4  C   UNL     1       0.865  -2.023  -1.188  0.00  0.00    +0.016 C 
ATOM      5  C   UNL     1       1.701  -2.408   0.034  0.00  0.00    +0.092 C 
ATOM      6  C   UNL     1       0.989  -1.933   1.305  0.00  0.00    +0.118 C 
ATOM      7  N   UNL     1       0.718  -0.493   1.188  0.00  0.00    -0.325 N 
ENDROOT
BRANCH   7   8
ATOM      8  C   UNL     1       1.138   0.398   2.188  0.00  0.00    +0.053 A 
ATOM      9  C   UNL     1       0.288   0.678   3.254  0.00  0.00    +0.026 A 
ATOM     10  C   UNL     1       0.700   1.554   4.241  0.00  0.00    +0.019 A 
ATOM     11  C   UNL     1       1.941   2.139   4.158  0.00  0.00    +0.041 A 
ATOM     12  C   UNL     1       2.832   1.881   3.094  0.00  0.00    +0.101 A 
ATOM     13  C   UNL     1       2.391   0.976   2.099  0.00  0.00    +0.073 A 
ATOM     14  N   UNL     1       3.999   2.551   3.196  0.00  0.00    -0.246 NA
ATOM     15  C   UNL     1       4.253   3.351   4.189  0.00  0.00    +0.157 A 
ATOM     16  S   UNL     1       2.870   3.283   5.146  0.00  0.00    -0.075 S 
BRANCH  13  17
ATOM     17  N   UNL     1       3.225   0.670   1.016  0.00  0.00    -0.355 N 
ATOM     18  H   UNL     1       2.924   0.053   0.331  0.00  0.00    +0.142 HD
ATOM     19  H   UNL     1       4.104   1.074   0.951  0.00  0.00    +0.142 HD
ENDBRANCH  13  17
ENDBRANCH   7   8
BRANCH   5  20
ATOM     20  C   UNL     1       1.866  -3.906   0.080  0.00  0.00    +0.215 C 
ATOM     21  O   UNL     1       1.458  -4.532   1.035  0.00  0.00    -0.276 OA
ATOM     22  N   UNL     1       2.467  -4.548  -0.941  0.00  0.00    -0.329 N 
ATOM     23  H   UNL     1       2.794  -4.047  -1.705  0.00  0.00    +0.145 HD
ATOM     24  H   UNL     1       2.574  -5.512  -0.912  0.00  0.00    +0.145 HD
ENDBRANCH   5  20
TORSDOF 3
