REMARK  Name = ZINC12770677
REMARK  15 active torsions:
REMARK  status: ('A' for Active; 'I' for Inactive)
REMARK    1  A    between atoms: C_1  and  C_2
REMARK    2  A    between atoms: C_7  and  C_9
REMARK    3  A    between atoms: C_7  and  C_31
REMARK    4  A    between atoms: C_7  and  N_69
REMARK    5  A    between atoms: C_9  and  N_10
REMARK    6  A    between atoms: C_11  and  C_13
REMARK    7  A    between atoms: C_13  and  C_15
REMARK    8  A    between atoms: C_13  and  N_16
REMARK    9  A    between atoms: C_17  and  C_19
REMARK   10  A    between atoms: C_21  and  O_29
REMARK   11  A    between atoms: C_22  and  O_27
REMARK   12  A    between atoms: C_23  and  O_25
REMARK   13  A    between atoms: O_25  and  C_26
REMARK   14  A    between atoms: O_27  and  C_28
REMARK   15  A    between atoms: O_29  and  C_30
REMARK                            x       y       z     vdW  Elec       q    Type
REMARK                         _______ _______ _______ _____ _____    ______ ____
ROOT
ATOM      1  N   UNL     1       1.304  10.703  -1.381  0.00  0.00    -0.315 N 
ATOM      2  C   UNL     1       0.737   9.736  -0.633  0.00  0.00    +0.233 C 
ATOM      3  O   UNL     1       0.612   9.890   0.564  0.00  0.00    -0.274 OA
ATOM      4  H   UNL     1       1.404  10.580  -2.338  0.00  0.00    +0.149 HD
ENDROOT
BRANCH   2   5
ATOM      5  C   UNL     1       0.257   8.464  -1.283  0.00  0.00    +0.156 C 
ATOM      6  C   UNL     1      -0.810   8.797  -2.329  0.00  0.00    +0.038 C 
BRANCH   5   7
ATOM      7  N   UNL     1      -0.317   7.581  -0.265  0.00  0.00    -0.300 N 
ATOM      8  C   UNL     1      -0.349   6.249  -0.468  0.00  0.00    +0.245 C 
ATOM      9  O   UNL     1       0.099   5.780  -1.496  0.00  0.00    -0.270 OA
ATOM     10  H   UNL     1      -0.674   7.955   0.556  0.00  0.00    +0.150 HD
BRANCH   8  11
ATOM     11  C   UNL     1      -0.927   5.360   0.559  0.00  0.00    +0.044 A 
ATOM     12  C   UNL     1      -1.442   5.897   1.741  0.00  0.00    +0.062 A 
ATOM     13  C   UNL     1      -1.983   5.062   2.700  0.00  0.00    +0.166 A 
ATOM     14  C   UNL     1      -2.020   3.687   2.487  0.00  0.00    +0.204 A 
ATOM     15  C   UNL     1      -1.502   3.148   1.312  0.00  0.00    +0.166 A 
ATOM     16  C   UNL     1      -0.960   3.979   0.349  0.00  0.00    +0.062 A 
BRANCH  15  17
ATOM     17  O   UNL     1      -1.536   1.804   1.108  0.00  0.00    -0.491 OA
ATOM     18  C   UNL     1      -0.993   1.320  -0.122  0.00  0.00    +0.277 C 
ENDBRANCH  15  17
BRANCH  14  19
ATOM     19  O   UNL     1      -2.557   2.868   3.429  0.00  0.00    -0.488 OA
ATOM     20  C   UNL     1      -1.673   2.365   4.432  0.00  0.00    +0.277 C 
ENDBRANCH  14  19
BRANCH  13  21
ATOM     21  O   UNL     1      -2.485   5.584   3.851  0.00  0.00    -0.491 OA
ATOM     22  C   UNL     1      -2.420   7.004   4.001  0.00  0.00    +0.277 C 
ENDBRANCH  13  21
ENDBRANCH   8  11
ENDBRANCH   5   7
ENDBRANCH   2   5
BRANCH   1  23
ATOM     23  C   UNL     1       1.771  11.939  -0.749  0.00  0.00    +0.094 C 
BRANCH  23  24
ATOM     24  C   UNL     1       2.486  12.805  -1.788  0.00  0.00    -0.013 C 
BRANCH  24  31
ATOM     25  C   UNL     1      -0.925  14.542  -6.032  0.00  0.00    +0.007 C 
ATOM     26  C   UNL     1      -0.017  14.518  -4.801  0.00  0.00    -0.018 C 
ATOM     27  C   UNL     1       1.355  13.959  -5.189  0.00  0.00    -0.015 C 
ATOM     28  C   UNL     1       2.239  13.881  -3.942  0.00  0.00    -0.078 C 
ATOM     29  C   UNL     1       0.304  13.557  -2.520  0.00  0.00    -0.078 C 
ATOM     30  C   UNL     1      -0.637  13.625  -3.724  0.00  0.00    -0.015 C 
ATOM     31  N   UNL     1       1.598  12.988  -2.954  0.00  0.00    +0.386 N 
ATOM     32  H   UNL     1       1.430  12.074  -3.391  0.00  0.00    -0.081 HD
ENDBRANCH  24  31
BRANCH  24  33
ATOM     33  C   UNL     1       3.745  12.111  -2.239  0.00  0.00    -0.022 A 
ATOM     34  C   UNL     1       5.026  12.332  -1.854  0.00  0.00    +0.009 A 
ATOM     35  C   UNL     1       6.034  11.562  -2.405  0.00  0.00    +0.008 A 
ATOM     36  C   UNL     1       5.712  10.617  -3.322  0.00  0.00    +0.045 A 
ATOM     37  S   UNL     1       3.939  10.790  -3.425  0.00  0.00    -0.103 S 
ENDBRANCH  24  33
ENDBRANCH  23  24
ENDBRANCH   1  23
TORSDOF 10
