REMARK  Name = ZINC09261269
REMARK  5 active torsions:
REMARK  status: ('A' for Active; 'I' for Inactive)
REMARK    1  A    between atoms: C_1  and  C_2
REMARK    2  A    between atoms: C_3  and  C_20
REMARK    3  A    between atoms: N_10  and  C_11
REMARK    4  A    between atoms: C_11  and  C_12
REMARK    5  A    between atoms: N_26  and  C_27
REMARK                            x       y       z     vdW  Elec       q    Type
REMARK                         _______ _______ _______ _____ _____    ______ ____
ROOT
ATOM      1  C   UNL     1      -0.018   1.503   0.010  0.00  0.00    +0.064 C 
ATOM      2  C   UNL     1       0.002  -0.004   0.002  0.00  0.00    +0.024 A 
ATOM      3  C   UNL     1       0.008  -0.785  -1.119  0.00  0.00    +0.004 A 
ATOM      4  C   UNL     1       0.029  -2.185  -0.653  0.00  0.00    +0.007 A 
ATOM      5  C   UNL     1       0.044  -3.418  -1.300  0.00  0.00    +0.010 A 
ATOM      6  C   UNL     1       0.063  -4.578  -0.556  0.00  0.00    +0.001 A 
ATOM      7  C   UNL     1       0.069  -4.520   0.830  0.00  0.00    +0.002 A 
ATOM      8  C   UNL     1       0.054  -3.307   1.482  0.00  0.00    +0.026 A 
ATOM      9  C   UNL     1       0.035  -2.124   0.749  0.00  0.00    +0.050 A 
ATOM     10  N   UNL     1       0.023  -0.792   1.108  0.00  0.00    -0.339 N 
ENDROOT
BRANCH   3  11
ATOM     11  C   UNL     1      -0.005  -0.324  -2.508  0.00  0.00    +0.030 C 
ATOM     12  C   UNL     1       0.901  -0.816  -3.397  0.00  0.00    +0.078 C 
ATOM     13  C   UNL     1       1.934  -1.778  -3.195  0.00  0.00    +0.256 C 
ATOM     14  O   UNL     1       2.107  -2.288  -2.102  0.00  0.00    -0.269 OA
ATOM     15  N   UNL     1       2.699  -2.103  -4.222  0.00  0.00    -0.260 N 
ATOM     16  C   UNL     1       2.491  -1.516  -5.454  0.00  0.00    +0.166 C 
ATOM     17  N   UNL     1       3.141  -1.709  -6.580  0.00  0.00    -0.226 NA
ATOM     18  S   UNL     1       1.107  -0.433  -5.130  0.00  0.00    -0.049 S 
ATOM     19  H   UNL     1       3.409  -2.755  -4.110  0.00  0.00    +0.157 HD
BRANCH  17  20
ATOM     20  C   UNL     1       2.777  -1.022  -7.707  0.00  0.00    +0.067 A 
ATOM     21  C   UNL     1       1.428  -0.899  -8.049  0.00  0.00    +0.030 A 
ATOM     22  C   UNL     1       1.068  -0.206  -9.185  0.00  0.00    +0.040 A 
ATOM     23  C   UNL     1       2.040   0.367  -9.988  0.00  0.00    +0.124 A 
ATOM     24  C   UNL     1       3.380   0.249  -9.655  0.00  0.00    +0.040 A 
ATOM     25  C   UNL     1       3.752  -0.437  -8.517  0.00  0.00    +0.030 A 
ATOM     26  F   UNL     1       1.681   1.045 -11.101  0.00  0.00    -0.205 F 
ENDBRANCH  17  20
ENDBRANCH   3  11
BRANCH  10  27
ATOM     27  C   UNL     1       0.029  -0.298   2.487  0.00  0.00    +0.157 C 
BRANCH  27  28
ATOM     28  C   UNL     1      -1.389  -0.148   2.973  0.00  0.00    -0.026 A 
ATOM     29  C   UNL     1      -2.061   1.046   2.787  0.00  0.00    +0.007 A 
ATOM     30  C   UNL     1      -3.362   1.185   3.232  0.00  0.00    +0.022 A 
ATOM     31  C   UNL     1      -3.993   0.129   3.865  0.00  0.00    +0.059 A 
ATOM     32  C   UNL     1      -3.321  -1.067   4.051  0.00  0.00    +0.060 A 
ATOM     33  C   UNL     1      -2.020  -1.206   3.600  0.00  0.00    +0.026 A 
ATOM     34 CL   UNL     1      -4.111  -2.393   4.845  0.00  0.00    -0.082 Cl
ATOM     35 CL   UNL     1      -5.627   0.302   4.425  0.00  0.00    -0.082 Cl
ENDBRANCH  27  28
ENDBRANCH  10  27
TORSDOF 4
