REMARK  Name = ZINC43253202
REMARK  8 active torsions:
REMARK  status: ('A' for Active; 'I' for Inactive)
REMARK    1  A    between atoms: C_1  and  C_2
REMARK    2  A    between atoms: C_2  and  C_4
REMARK    3  A    between atoms: C_2  and  N_22
REMARK    4  A    between atoms: C_4  and  C_6
REMARK    5  A    between atoms: C_4  and  N_12
REMARK    6  A    between atoms: N_12  and  C_13
REMARK    7  A    between atoms: N_12  and  C_14
REMARK    8  A    between atoms: C_14  and  C_15
REMARK                            x       y       z     vdW  Elec       q    Type
REMARK                         _______ _______ _______ _____ _____    ______ ____
ROOT
ATOM      1  C   UNL     1       0.754  -0.241   0.930  0.00  0.00    +0.079 C 
ENDROOT
BRANCH   1   2
ATOM      2  C   UNL     1       0.961  -1.712   0.676  0.00  0.00    +0.007 A 
ATOM      3  C   UNL     1       0.192  -2.760   1.060  0.00  0.00    +0.014 A 
ATOM      4  C   UNL     1       0.580  -4.041   0.710  0.00  0.00    +0.028 A 
ATOM      5  C   UNL     1       1.719  -4.209  -0.007  0.00  0.00    +0.078 A 
ATOM      6  S   UNL     1       2.276  -2.525  -0.216  0.00  0.00    -0.080 S 
ATOM      7 CL   UNL     1       2.443  -5.679  -0.581  0.00  0.00    -0.076 Cl
ENDBRANCH   1   2
BRANCH   1   9
ATOM      8  C   UNL     1       0.323   1.968  -0.154  0.00  0.00    -0.012 C 
ATOM      9  C   UNL     1       0.387   0.456  -0.381  0.00  0.00    -0.056 C 
BRANCH   9  10
ATOM     10  N   UNL     1      -0.921  -0.026  -0.843  0.00  0.00    +0.381 N 
ATOM     11  H   UNL     1      -1.163   0.434  -1.708  0.00  0.00    -0.090 HD
ATOM     12  H   UNL     1      -0.879  -1.023  -0.993  0.00  0.00    -0.090 HD
ATOM     13  H   UNL     1      -1.621   0.180  -0.145  0.00  0.00    -0.090 HD
ENDBRANCH   9  10
ENDBRANCH   1   9
BRANCH   1  14
ATOM     14  N   UNL     1       1.992   0.341   1.465  0.00  0.00    -0.295 NA
ATOM     15  C   UNL     1       2.352  -0.275   2.749  0.00  0.00    +0.105 C 
BRANCH  14  16
ATOM     16  C   UNL     1       3.091   0.222   0.497  0.00  0.00    +0.119 C 
BRANCH  16  17
ATOM     17  C   UNL     1       4.191   1.185   0.865  0.00  0.00    -0.033 A 
ATOM     18  C   UNL     1       4.183   2.470   0.356  0.00  0.00    +0.006 A 
ATOM     19  C   UNL     1       5.191   3.354   0.693  0.00  0.00    +0.015 A 
ATOM     20  C   UNL     1       6.207   2.952   1.540  0.00  0.00    +0.018 A 
ATOM     21  C   UNL     1       6.215   1.666   2.049  0.00  0.00    +0.015 A 
ATOM     22  C   UNL     1       5.204   0.785   1.716  0.00  0.00    +0.006 A 
ATOM     23 BR   UNL     1       7.587   4.160   2.001  0.00  0.00    -0.050 Br
ENDBRANCH  16  17
ENDBRANCH  14  16
ENDBRANCH   1  14
TORSDOF 6
