REMARK  Name = ZINC24537961
REMARK  10 active torsions:
REMARK  status: ('A' for Active; 'I' for Inactive)
REMARK    1  A    between atoms: C_1  and  N_2
REMARK    2  A    between atoms: N_2  and  C_3
REMARK    3  A    between atoms: N_2  and  C_4
REMARK    4  A    between atoms: C_4  and  C_6
REMARK    5  A    between atoms: C_4  and  C_27
REMARK    6  A    between atoms: C_6  and  N_7
REMARK    7  A    between atoms: C_8  and  C_10
REMARK    8  A    between atoms: N_13  and  S_16
REMARK    9  A    between atoms: S_16  and  C_19
REMARK   10  A    between atoms: C_24  and  C_25
REMARK                            x       y       z     vdW  Elec       q    Type
REMARK                         _______ _______ _______ _____ _____    ______ ____
ROOT
ATOM      1  N   UNL     1       1.243   3.259   1.897  0.00  0.00    -0.316 N 
ATOM      2  C   UNL     1       2.272   4.029   1.491  0.00  0.00    +0.216 C 
ATOM      3  O   UNL     1       3.343   3.522   1.232  0.00  0.00    -0.276 OA
ATOM      4  H   UNL     1       0.271   3.719   2.132  0.00  0.00    +0.149 HD
ENDROOT
BRANCH   2   5
ATOM      5  C   UNL     1       2.092   5.519   1.359  0.00  0.00    +0.077 C 
ATOM      6  C   UNL     1       0.987   5.811   0.341  0.00  0.00    +0.030 C 
ATOM      7  C   UNL     1       0.783   7.325   0.234  0.00  0.00    +0.110 C 
ATOM      8  N   UNL     1       2.073   7.955  -0.079  0.00  0.00    -0.177 NA
ATOM      9  C   UNL     1       3.227   7.669   0.784  0.00  0.00    +0.110 C 
ATOM     10  C   UNL     1       3.403   6.151   0.885  0.00  0.00    +0.030 C 
BRANCH   8  11
ATOM     11  S   UNL     1       2.223   8.967  -1.381  0.00  0.00    +0.062 S 
ATOM     12  O   UNL     1       0.924   9.476  -1.652  0.00  0.00    -0.153 OA
ATOM     13  O   UNL     1       3.332   9.814  -1.111  0.00  0.00    -0.153 OA
BRANCH  11  14
ATOM     14  C   UNL     1       2.674   7.974  -2.764  0.00  0.00    +0.123 A 
ATOM     15  C   UNL     1       1.810   7.843  -3.832  0.00  0.00    +0.030 A 
ATOM     16  C   UNL     1       2.165   7.067  -4.921  0.00  0.00    +0.002 A 
ATOM     17  C   UNL     1       3.382   6.409  -4.943  0.00  0.00    +0.001 A 
ATOM     18  C   UNL     1       4.252   6.526  -3.880  0.00  0.00    +0.021 A 
ATOM     19  C   UNL     1       3.903   7.312  -2.780  0.00  0.00    +0.078 A 
BRANCH  19  20
ATOM     20  C   UNL     1       4.802   7.438  -1.672  0.00  0.00    +0.101 C 
ATOM     21  N   UNL     1       5.515   7.538  -0.793  0.00  0.00    -0.191 NA
ENDBRANCH  19  20
ENDBRANCH  11  14
ENDBRANCH   8  11
ENDBRANCH   2   5
BRANCH   1  22
ATOM     22  C   UNL     1       1.417   1.810   2.026  0.00  0.00    +0.093 C 
BRANCH  22  23
ATOM     23  C   UNL     1       0.064   1.157   2.311  0.00  0.00    -0.017 C 
BRANCH  23  24
ATOM     24  C   UNL     1       0.274  -0.283   2.705  0.00  0.00    -0.006 A 
ATOM     25  C   UNL     1       0.082  -0.677   4.018  0.00  0.00    +0.126 A 
ATOM     26  C   UNL     1       0.275  -2.000   4.378  0.00  0.00    +0.038 A 
ATOM     27  C   UNL     1       0.659  -2.926   3.427  0.00  0.00    +0.004 A 
ATOM     28  C   UNL     1       0.851  -2.533   2.116  0.00  0.00    +0.020 A 
ATOM     29  C   UNL     1       0.654  -1.212   1.753  0.00  0.00    +0.045 A 
ATOM     30 CL   UNL     1       0.888  -0.720   0.105  0.00  0.00    -0.083 Cl
ATOM     31  F   UNL     1      -0.295   0.229   4.947  0.00  0.00    -0.205 F 
ENDBRANCH  23  24
BRANCH  23  33
ATOM     32  C   UNL     1      -1.122   2.606   0.776  0.00  0.00    -0.096 C 
ATOM     33  N   UNL     1      -0.773   1.217   1.105  0.00  0.00    +0.382 N 
ATOM     34  C   UNL     1      -1.979   0.393   1.259  0.00  0.00    -0.096 C 
ATOM     35  H   UNL     1      -0.188   0.808   0.268  0.00  0.00    -0.082 HD
ENDBRANCH  23  33
ENDBRANCH  22  23
ENDBRANCH   1  22
TORSDOF 8
