REMARK  Name = ZINC23438611
REMARK  6 active torsions:
REMARK  status: ('A' for Active; 'I' for Inactive)
REMARK    1  A    between atoms: C_1  and  C_2
REMARK    2  A    between atoms: C_2  and  C_29
REMARK    3  A    between atoms: C_3  and  C_4
REMARK    4  A    between atoms: C_12  and  O_27
REMARK    5  A    between atoms: C_19  and  C_21
REMARK    6  A    between atoms: O_27  and  C_28
REMARK                            x       y       z     vdW  Elec       q    Type
REMARK                         _______ _______ _______ _____ _____    ______ ____
ROOT
ATOM      1  C   UNL     1      -4.631   2.194   0.942  0.00  0.00    +0.240 C 
ATOM      2  O   UNL     1      -5.516   3.027   0.900  0.00  0.00    -0.271 OA
ATOM      3  N   UNL     1      -3.507   2.368   0.220  0.00  0.00    -0.285 N 
ATOM      4  C   UNL     1      -3.379   3.496  -0.715  0.00  0.00    +0.114 C 
ATOM      5  C   UNL     1      -2.256   4.421  -0.229  0.00  0.00    +0.056 C 
ATOM      6  C   UNL     1      -1.071   3.581   0.170  0.00  0.00    -0.015 A 
ATOM      7  C   UNL     1       0.312   4.016   0.350  0.00  0.00    +0.007 A 
ATOM      8  C   UNL     1       0.972   5.241   0.224  0.00  0.00    +0.056 A 
ATOM      9  C   UNL     1       2.326   5.316   0.475  0.00  0.00    +0.121 A 
ATOM     10  C   UNL     1       3.035   4.178   0.853  0.00  0.00    +0.047 A 
ATOM     11  C   UNL     1       2.396   2.965   0.980  0.00  0.00    +0.030 A 
ATOM     12  C   UNL     1       1.031   2.868   0.731  0.00  0.00    +0.047 A 
ATOM     13  N   UNL     1       0.135   1.819   0.771  0.00  0.00    -0.356 N 
ATOM     14  H   UNL     1       0.478   0.813   1.053  0.00  0.00    +0.166 HD
ATOM     15  C   UNL     1      -1.111   2.260   0.428  0.00  0.00    +0.046 A 
ATOM     16  C   UNL     1      -2.376   1.433   0.348  0.00  0.00    +0.160 C 
ENDROOT
BRANCH  16  17
ATOM     17  C   UNL     1      -2.318   0.530  -0.857  0.00  0.00    +0.017 A 
ATOM     18  C   UNL     1      -2.040  -0.795  -0.919  0.00  0.00    +0.028 A 
ATOM     19  C   UNL     1      -2.045  -1.425  -2.150  0.00  0.00    +0.025 A 
ATOM     20  C   UNL     1      -2.326  -0.697  -3.259  0.00  0.00    +0.060 A 
ATOM     21  S   UNL     1      -2.604   0.928  -2.574  0.00  0.00    -0.098 S 
ATOM     22 BR   UNL     1      -1.664  -3.272  -2.284  0.00  0.00    -0.050 Br
ENDBRANCH  16  17
BRANCH   1  25
ATOM     23  C   UNL     1      -6.765   2.056   2.787  0.00  0.00    +0.039 C 
ATOM     24  C   UNL     1      -5.836   0.886   2.594  0.00  0.00    -0.071 C 
ATOM     25  C   UNL     1      -4.789   0.996   1.781  0.00  0.00    +0.066 C 
ATOM     26  C   UNL     1      -6.092  -0.408   3.322  0.00  0.00    +0.039 C 
ENDBRANCH   1  25
BRANCH   9  27
ATOM     27  O   UNL     1       2.973   6.507   0.354  0.00  0.00    -0.495 OA
ATOM     28  C   UNL     1       4.375   6.515   0.628  0.00  0.00    +0.277 C 
ENDBRANCH   9  27
TORSDOF 3
