REMARK  Name = ZINC08789228
REMARK  14 active torsions:
REMARK  status: ('A' for Active; 'I' for Inactive)
REMARK    1  A    between atoms: C_1  and  C_2
REMARK    2  A    between atoms: C_2  and  C_4
REMARK    3  A    between atoms: C_2  and  N_12
REMARK    4  A    between atoms: C_4  and  C_5
REMARK    5  A    between atoms: C_5  and  C_6
REMARK    6  A    between atoms: N_12  and  C_13
REMARK    7  A    between atoms: C_21  and  N_37
REMARK    8  A    between atoms: C_27  and  O_35
REMARK    9  A    between atoms: C_28  and  O_33
REMARK   10  A    between atoms: C_29  and  O_31
REMARK   11  A    between atoms: O_31  and  C_32
REMARK   12  A    between atoms: O_33  and  C_34
REMARK   13  A    between atoms: O_35  and  C_36
REMARK   14  A    between atoms: C_38  and  C_40
REMARK                            x       y       z     vdW  Elec       q    Type
REMARK                         _______ _______ _______ _____ _____    ______ ____
ROOT
ATOM      1  C   UNL     1       2.442  -1.087  -4.664  0.00  0.00    +0.075 A 
ATOM      2  C   UNL     1       3.664  -1.385  -4.139  0.00  0.00    +0.027 A 
ATOM      3  C   UNL     1       4.000  -1.595  -2.854  0.00  0.00    +0.011 A 
ATOM      4  C   UNL     1       3.283  -1.552  -1.685  0.00  0.00    -0.009 A 
ATOM      5  C   UNL     1       1.938  -1.207  -1.557  0.00  0.00    -0.016 A 
ATOM      6  C   UNL     1       1.099  -0.959  -2.578  0.00  0.00    +0.058 A 
ATOM      7  C   UNL     1       1.267  -0.929  -3.932  0.00  0.00    +0.200 A 
ATOM      8  O   UNL     1       0.252  -0.739  -4.590  0.00  0.00    -0.286 OA
ATOM      9  C   UNL     1       1.350  -1.102  -0.164  0.00  0.00    +0.104 C 
ATOM     10  C   UNL     1       1.014  -2.464   0.409  0.00  0.00    +0.032 C 
ATOM     11  C   UNL     1       2.145  -3.458   0.163  0.00  0.00    +0.038 C 
ATOM     12  C   UNL     1       3.469  -2.805   0.469  0.00  0.00    -0.032 A 
ATOM     13  C   UNL     1       4.019  -1.901  -0.433  0.00  0.00    +0.031 A 
ATOM     14  C   UNL     1       5.254  -1.301  -0.166  0.00  0.00    +0.173 A 
ATOM     15  C   UNL     1       5.922  -1.611   1.012  0.00  0.00    +0.204 A 
ATOM     16  C   UNL     1       5.361  -2.509   1.912  0.00  0.00    +0.165 A 
ATOM     17  C   UNL     1       4.136  -3.105   1.638  0.00  0.00    +0.054 A 
ENDROOT
BRANCH   9  18
ATOM     18  N   UNL     1       0.130  -0.293  -0.221  0.00  0.00    -0.309 N 
ATOM     19  C   UNL     1       0.211   1.052  -0.201  0.00  0.00    +0.210 C 
ATOM     20  O   UNL     1       1.295   1.593  -0.136  0.00  0.00    -0.276 OA
ATOM     21  C   UNL     1      -1.043   1.884  -0.266  0.00  0.00    +0.109 C 
ATOM     22  H   UNL     1      -0.737  -0.726  -0.273  0.00  0.00    +0.149 HD
ENDBRANCH   9  18
BRANCH   1  23
ATOM     23  N   UNL     1       2.361  -0.929  -6.037  0.00  0.00    -0.338 N 
ATOM     24  H   UNL     1       1.498  -0.801  -6.461  0.00  0.00    +0.146 HD
BRANCH  23  26
ATOM     25  C   UNL     1       3.939  -2.405  -7.183  0.00  0.00    +0.028 C 
ATOM     26  C   UNL     1       3.580  -0.956  -6.850  0.00  0.00    +0.068 C 
BRANCH  26  27
ATOM     27  C   UNL     1       3.345  -0.178  -8.146  0.00  0.00    +0.026 C 
BRANCH  27  28
ATOM     28  C   UNL     1       3.109   1.298  -7.820  0.00  0.00    +0.037 C 
BRANCH  28  29
ATOM     29  C   UNL     1       2.878   2.064  -9.097  0.00  0.00    -0.047 A 
ATOM     30  C   UNL     1       3.947   2.628  -9.768  0.00  0.00    +0.003 A 
ATOM     31  C   UNL     1       3.735   3.327 -10.941  0.00  0.00    +0.000 A 
ATOM     32  C   UNL     1       2.454   3.470 -11.439  0.00  0.00    +0.000 A 
ATOM     33  C   UNL     1       1.384   2.911 -10.765  0.00  0.00    +0.000 A 
ATOM     34  C   UNL     1       1.596   2.208  -9.594  0.00  0.00    +0.003 A 
ENDBRANCH  28  29
ENDBRANCH  27  28
ENDBRANCH  26  27
ENDBRANCH  23  26
ENDBRANCH   1  23
BRANCH  16  35
ATOM     35  O   UNL     1       6.014  -2.807   3.066  0.00  0.00    -0.491 OA
ATOM     36  C   UNL     1       5.383  -3.737   3.948  0.00  0.00    +0.277 C 
ENDBRANCH  16  35
BRANCH  15  37
ATOM     37  O   UNL     1       7.124  -1.034   1.285  0.00  0.00    -0.488 OA
ATOM     38  C   UNL     1       8.291  -1.717   0.822  0.00  0.00    +0.277 C 
ENDBRANCH  15  37
BRANCH  14  39
ATOM     39  O   UNL     1       5.795  -0.424  -1.051  0.00  0.00    -0.491 OA
ATOM     40  C   UNL     1       5.554   0.965  -0.817  0.00  0.00    +0.277 C 
ENDBRANCH  14  39
TORSDOF 9
