REMARK  Name = ZINC36366007
REMARK  6 active torsions:
REMARK  status: ('A' for Active; 'I' for Inactive)
REMARK    1  A    between atoms: C_1  and  O_2
REMARK    2  A    between atoms: O_2  and  C_3
REMARK    3  A    between atoms: C_6  and  C_15
REMARK    4  A    between atoms: C_8  and  O_9
REMARK    5  A    between atoms: O_9  and  C_10
REMARK    6  A    between atoms: C_18  and  O_26
REMARK                            x       y       z     vdW  Elec       q    Type
REMARK                         _______ _______ _______ _____ _____    ______ ____
ROOT
ATOM      1  C   UNL     1      -1.214  -0.652  -0.191  0.00  0.00    +0.162 A 
ATOM      2  C   UNL     1      -2.387   0.086  -0.162  0.00  0.00    +0.050 A 
ATOM      3  C   UNL     1      -3.594  -0.543   0.082  0.00  0.00    +0.008 A 
ATOM      4  C   UNL     1      -3.634  -1.908   0.299  0.00  0.00    -0.035 A 
ATOM      5  C   UNL     1      -2.468  -2.650   0.272  0.00  0.00    +0.053 A 
ATOM      6  C   UNL     1      -1.256  -2.027   0.021  0.00  0.00    +0.163 A 
ENDROOT
BRANCH   4   7
ATOM      7  C   UNL     1      -4.952  -2.589   0.565  0.00  0.00    +0.068 C 
ATOM      8  C   UNL     1      -5.907  -2.359  -0.618  0.00  0.00    +0.109 C 
ATOM      9  C   UNL     1      -6.523  -0.993  -0.541  0.00  0.00    +0.190 C 
ATOM     10  N   UNL     1      -6.794  -0.370   0.557  0.00  0.00    -0.197 NA
ATOM     11  C   UNL     1      -6.468  -0.942   1.782  0.00  0.00    +0.169 A 
ATOM     12  C   UNL     1      -5.589  -2.001   1.776  0.00  0.00    +0.045 A 
ATOM     13  S   UNL     1      -5.454  -2.414   3.490  0.00  0.00    -0.055 S 
ATOM     14  C   UNL     1      -6.553  -1.139   4.101  0.00  0.00    +0.158 A 
ATOM     15  N   UNL     1      -6.917  -0.539   2.976  0.00  0.00    -0.206 NA
ATOM     16  N   UNL     1      -6.924  -0.855   5.405  0.00  0.00    -0.337 N 
ATOM     17  H   UNL     1      -6.573  -1.386   6.136  0.00  0.00    +0.144 HD
ATOM     18  H   UNL     1      -7.536  -0.124   5.586  0.00  0.00    +0.144 HD
BRANCH   9  19
ATOM     19  O   UNL     1      -6.815  -0.370  -1.703  0.00  0.00    -0.495 OA
ATOM     20  H   UNL     1      -7.210   0.505  -1.592  0.00  0.00    +0.293 HD
ENDBRANCH   9  19
ENDBRANCH   4   7
BRANCH   1  22
ATOM     21  C   UNL     1      -0.060   1.378  -0.641  0.00  0.00    +0.277 C 
ATOM     22  O   UNL     1      -0.027  -0.035  -0.432  0.00  0.00    -0.491 OA
ENDBRANCH   1  22
BRANCH   6  23
ATOM     23  O   UNL     1      -0.108  -2.756  -0.012  0.00  0.00    -0.485 OA
BRANCH  23  24
ATOM     24  C   UNL     1      -0.238  -4.175   0.099  0.00  0.00    +0.174 C 
ATOM     25  C   UNL     1      -0.255  -4.590   1.585  0.00  0.00    +0.044 C 
ATOM     26  C   UNL     1       0.531  -5.923   1.616  0.00  0.00    +0.004 C 
ATOM     27  C   UNL     1       1.662  -5.678   0.586  0.00  0.00    +0.004 C 
ATOM     28  C   UNL     1       0.981  -4.867  -0.536  0.00  0.00    +0.044 C 
ENDBRANCH  23  24
ENDBRANCH   6  23
TORSDOF 5
