REMARK  Name = ZINC12797863
REMARK  14 active torsions:
REMARK  status: ('A' for Active; 'I' for Inactive)
REMARK    1  A    between atoms: C_1  and  C_2
REMARK    2  A    between atoms: C_2  and  O_4
REMARK    3  A    between atoms: O_4  and  C_5
REMARK    4  A    between atoms: C_7  and  C_17
REMARK    5  A    between atoms: C_9  and  O_15
REMARK    6  A    between atoms: C_10  and  O_11
REMARK    7  A    between atoms: O_11  and  C_12
REMARK    8  A    between atoms: C_12  and  C_14
REMARK    9  A    between atoms: O_15  and  C_16
REMARK   10  A    between atoms: C_22  and  C_24
REMARK   11  A    between atoms: C_26  and  O_32
REMARK   12  A    between atoms: C_28  and  O_30
REMARK   13  A    between atoms: O_30  and  C_31
REMARK   14  A    between atoms: O_32  and  C_33
REMARK                            x       y       z     vdW  Elec       q    Type
REMARK                         _______ _______ _______ _____ _____    ______ ____
ROOT
ATOM      1  C   UNL     1       3.475   0.506   0.152  0.00  0.00    +0.043 C 
ATOM      2  C   UNL     1       3.826  -0.571  -0.634  0.00  0.00    +0.152 C 
ATOM      3  C   UNL     1       4.896  -0.626  -1.647  0.00  0.00    +0.364 C 
ATOM      4  O   UNL     1       5.656   0.268  -1.968  0.00  0.00    -0.243 OA
ATOM      5  O   UNL     1       4.850  -1.881  -2.143  0.00  0.00    -0.402 OA
ATOM      6  C   UNL     1       3.865  -2.556  -1.520  0.00  0.00    +0.232 C 
ATOM      7  N   UNL     1       3.257  -1.811  -0.638  0.00  0.00    -0.205 NA
ENDROOT
BRANCH   1  10
ATOM      8  C   UNL     1       4.496   4.112   0.268  0.00  0.00    +0.178 A 
ATOM      9  C   UNL     1       3.709   2.976   0.267  0.00  0.00    +0.058 A 
ATOM     10  C   UNL     1       4.305   1.713   0.154  0.00  0.00    -0.016 A 
ATOM     11  C   UNL     1       5.699   1.607   0.050  0.00  0.00    +0.057 A 
ATOM     12  C   UNL     1       6.478   2.748   0.047  0.00  0.00    +0.166 A 
ATOM     13  C   UNL     1       5.880   4.002   0.159  0.00  0.00    +0.215 A 
BRANCH  12  14
ATOM     14  O   UNL     1       7.830   2.647  -0.060  0.00  0.00    -0.491 OA
ATOM     15  C   UNL     1       8.375   1.331  -0.171  0.00  0.00    +0.277 C 
ENDBRANCH  12  14
BRANCH   8  16
ATOM     16  O   UNL     1       3.918   5.338   0.377  0.00  0.00    -0.422 OA
BRANCH  16  18
ATOM     17  C   UNL     1       2.905   7.299  -0.730  0.00  0.00    +0.136 C 
ATOM     18  C   UNL     1       3.648   5.988  -0.766  0.00  0.00    +0.309 C 
ATOM     19  O   UNL     1       4.001   5.522  -1.823  0.00  0.00    -0.251 OA
ENDBRANCH  16  18
ENDBRANCH   8  16
BRANCH  13  20
ATOM     20  O   UNL     1       6.651   5.122   0.161  0.00  0.00    -0.418 OA
BRANCH  20  21
ATOM     21  C   UNL     1       7.085   5.560   1.353  0.00  0.00    +0.309 C 
ATOM     22  O   UNL     1       6.788   4.965   2.361  0.00  0.00    -0.251 OA
ATOM     23  C   UNL     1       7.944   6.796   1.433  0.00  0.00    +0.136 C 
ENDBRANCH  20  21
ENDBRANCH  13  20
ENDBRANCH   1  10
BRANCH   6  24
ATOM     24  C   UNL     1       3.516  -3.964  -1.800  0.00  0.00    +0.044 A 
ATOM     25  C   UNL     1       2.481  -4.582  -1.097  0.00  0.00    +0.059 A 
ATOM     26  C   UNL     1       2.154  -5.900  -1.366  0.00  0.00    +0.124 A 
ATOM     27  C   UNL     1       2.861  -6.610  -2.325  0.00  0.00    +0.091 A 
ATOM     28  C   UNL     1       3.895  -6.002  -3.023  0.00  0.00    +0.124 A 
ATOM     29  C   UNL     1       4.225  -4.682  -2.764  0.00  0.00    +0.059 A 
BRANCH  28  30
ATOM     30  O   UNL     1       4.584  -6.702  -3.962  0.00  0.00    -0.495 OA
ATOM     31  C   UNL     1       4.191  -8.059  -4.178  0.00  0.00    +0.277 C 
ENDBRANCH  28  30
BRANCH  26  32
ATOM     32  O   UNL     1       1.143  -6.501  -0.685  0.00  0.00    -0.495 OA
ATOM     33  C   UNL     1       0.864  -7.865  -1.008  0.00  0.00    +0.277 C 
ENDBRANCH  26  32
ENDBRANCH   6  24
TORSDOF 9
