REMARK  Name = ZINC59880992
REMARK  11 active torsions:
REMARK  status: ('A' for Active; 'I' for Inactive)
REMARK    1  A    between atoms: C_1  and  C_2
REMARK    2  A    between atoms: C_2  and  C_4
REMARK    3  A    between atoms: C_2  and  S_13
REMARK    4  A    between atoms: N_6  and  N_7
REMARK    5  A    between atoms: C_8  and  C_10
REMARK    6  A    between atoms: C_10  and  C_11
REMARK    7  A    between atoms: C_10  and  C_12
REMARK    8  A    between atoms: S_13  and  C_14
REMARK    9  A    between atoms: N_19  and  N_20
REMARK   10  A    between atoms: C_21  and  C_22
REMARK   11  A    between atoms: C_21  and  C_23
REMARK                            x       y       z     vdW  Elec       q    Type
REMARK                         _______ _______ _______ _____ _____    ______ ____
ROOT
ATOM      1  C   UNL     1       2.533  -0.042   1.241  0.00  0.00    +0.211 A 
ATOM      2  N   UNL     1       3.551  -0.257   2.081  0.00  0.00    -0.186 NA
ATOM      3  C   UNL     1       4.644   0.300   1.603  0.00  0.00    +0.232 A 
ATOM      4  N   UNL     1       4.333   0.890   0.429  0.00  0.00    -0.245 N 
ATOM      5  N   UNL     1       2.966   0.651   0.214  0.00  0.00    -0.144 NA
ATOM      6  N   UNL     1       5.892   0.285   2.199  0.00  0.00    -0.205 N 
ATOM      7  H   UNL     1       6.641   0.726   1.769  0.00  0.00    +0.177 HD
ATOM      8  H   UNL     1       4.935   1.379  -0.153  0.00  0.00    +0.192 HD
ENDROOT
BRANCH   6   9
ATOM      9  N   UNL     1       6.074  -0.368   3.425  0.00  0.00    -0.184 NA
ATOM     10  C   UNL     1       7.246  -0.383   3.985  0.00  0.00    +0.063 C 
ATOM     11  C   UNL     1       8.409   0.302   3.316  0.00  0.00    +0.068 C 
BRANCH  10  12
ATOM     12  C   UNL     1       7.438  -1.071   5.275  0.00  0.00    -0.002 A 
ATOM     13  C   UNL     1       8.696  -1.083   5.883  0.00  0.00    +0.011 A 
ATOM     14  C   UNL     1       8.868  -1.728   7.090  0.00  0.00    +0.016 A 
ATOM     15  C   UNL     1       7.798  -2.361   7.699  0.00  0.00    +0.018 A 
ATOM     16  C   UNL     1       6.549  -2.352   7.102  0.00  0.00    +0.016 A 
ATOM     17  C   UNL     1       6.361  -1.707   5.898  0.00  0.00    +0.011 A 
ATOM     18 BR   UNL     1       8.045  -3.243   9.354  0.00  0.00    -0.050 Br
ENDBRANCH  10  12
ENDBRANCH   6   9
BRANCH   1  19
ATOM     19  S   UNL     1       0.879  -0.605   1.472  0.00  0.00    -0.072 S 
BRANCH  19  21
ATOM     20  C   UNL     1      -0.019   1.526   0.010  0.00  0.00    +0.029 C 
ATOM     21  C   UNL     1       0.002  -0.004   0.002  0.00  0.00    +0.138 C 
BRANCH  21  22
ATOM     22  C   UNL     1      -1.412  -0.526   0.013  0.00  0.00    +0.242 C 
ATOM     23  O   UNL     1      -1.939  -0.827   1.062  0.00  0.00    -0.273 OA
ATOM     24  N   UNL     1      -2.090  -0.657  -1.144  0.00  0.00    -0.233 N 
ATOM     25  H   UNL     1      -1.669  -0.416  -1.984  0.00  0.00    +0.173 HD
BRANCH  24  26
ATOM     26  N   UNL     1      -3.405  -1.142  -1.134  0.00  0.00    -0.234 N 
ATOM     27  C   UNL     1      -4.083  -1.274  -2.291  0.00  0.00    +0.232 C 
ATOM     28  O   UNL     1      -3.556  -0.972  -3.341  0.00  0.00    -0.274 OA
ATOM     29  H   UNL     1      -3.826  -1.383  -0.295  0.00  0.00    +0.173 HD
BRANCH  27  30
ATOM     30  C   UNL     1      -5.497  -1.795  -2.281  0.00  0.00    +0.070 C 
ATOM     31  C   UNL     1      -6.376  -0.868  -1.440  0.00  0.00    +0.017 C 
ATOM     32  C   UNL     1      -6.033  -1.846  -3.713  0.00  0.00    +0.017 C 
ENDBRANCH  27  30
ENDBRANCH  24  26
ENDBRANCH  21  22
ENDBRANCH  19  21
ENDBRANCH   1  19
TORSDOF 7
