REMARK  Name = ZINC62237676
REMARK  5 active torsions:
REMARK  status: ('A' for Active; 'I' for Inactive)
REMARK    1  A    between atoms: C_1  and  O_2
REMARK    2  A    between atoms: O_2  and  C_3
REMARK    3  A    between atoms: C_3  and  C_4
REMARK    4  A    between atoms: C_5  and  C_17
REMARK    5  A    between atoms: N_8  and  C_9
REMARK                            x       y       z     vdW  Elec       q    Type
REMARK                         _______ _______ _______ _____ _____    ______ ____
ROOT
ATOM      1  C   UNL     1       0.633  -2.085   1.012  0.00  0.00    +0.108 A 
ATOM      2  C   UNL     1      -0.336  -2.913   1.505  0.00  0.00    +0.187 A 
ATOM      3  N   UNL     1      -0.009  -4.180   1.199  0.00  0.00    -0.118 NA
ATOM      4  N   UNL     1       1.102  -4.195   0.549  0.00  0.00    -0.059 NA
ATOM      5  N   UNL     1       1.546  -2.873   0.402  0.00  0.00    -0.213 N 
ENDROOT
BRANCH   5   6
ATOM      6  C   UNL     1       2.714  -2.451  -0.251  0.00  0.00    +0.070 A 
ATOM      7  C   UNL     1       2.725  -1.250  -0.947  0.00  0.00    +0.048 A 
ATOM      8  C   UNL     1       3.878  -0.835  -1.588  0.00  0.00    +0.044 A 
ATOM      9  C   UNL     1       5.019  -1.616  -1.537  0.00  0.00    +0.040 A 
ATOM     10  C   UNL     1       5.010  -2.814  -0.844  0.00  0.00    +0.044 A 
ATOM     11  C   UNL     1       3.861  -3.230  -0.196  0.00  0.00    +0.048 A 
ATOM     12 CL   UNL     1       6.443  -3.791  -0.782  0.00  0.00    -0.083 Cl
ATOM     13 CL   UNL     1       3.893   0.666  -2.460  0.00  0.00    -0.083 Cl
ENDBRANCH   5   6
BRANCH   2  14
ATOM     14  C   UNL     1      -1.502  -2.500   2.225  0.00  0.00    +0.123 C 
ATOM     15  N   UNL     1      -2.428  -2.172   2.796  0.00  0.00    -0.189 NA
ENDBRANCH   2  14
BRANCH   1  16
ATOM     16  C   UNL     1       0.673  -0.582   1.123  0.00  0.00    +0.217 C 
BRANCH  16  18
ATOM     17  C   UNL     1      -0.017   1.425   0.010  0.00  0.00    +0.194 C 
ATOM     18  O   UNL     1       0.002  -0.004   0.002  0.00  0.00    -0.377 OA
ENDBRANCH  16  18
ENDBRANCH   1  16
TORSDOF 4
