REMARK  Name = ZINC22935838
REMARK  6 active torsions:
REMARK  status: ('A' for Active; 'I' for Inactive)
REMARK    1  A    between atoms: C_1  and  N_2
REMARK    2  A    between atoms: N_2  and  C_3
REMARK    3  A    between atoms: N_2  and  C_4
REMARK    4  A    between atoms: C_4  and  C_5
REMARK    5  A    between atoms: C_5  and  N_6
REMARK    6  A    between atoms: C_17  and  C_19
REMARK                            x       y       z     vdW  Elec       q    Type
REMARK                         _______ _______ _______ _____ _____    ______ ____
ROOT
ATOM      1  N   UNL     1       2.846  -0.527  -2.366  0.00  0.00    -0.268 NA
ATOM      2  C   UNL     1       4.200   0.037  -2.457  0.00  0.00    +0.130 C 
ATOM      3  C   UNL     1       4.940  -0.606  -3.602  0.00  0.00    +0.051 A 
ATOM      4  C   UNL     1       4.495  -1.794  -4.156  0.00  0.00    +0.130 A 
ATOM      5  C   UNL     1       5.188  -2.377  -5.219  0.00  0.00    +0.047 A 
ATOM      6  C   UNL     1       6.312  -1.792  -5.721  0.00  0.00    +0.015 A 
ATOM      7  C   UNL     1       6.787  -0.599  -5.161  0.00  0.00    +0.019 A 
ATOM      8  C   UNL     1       6.077   0.007  -4.107  0.00  0.00    +0.147 A 
ATOM      9  O   UNL     1       6.494   1.195  -3.606  0.00  0.00    -0.421 OA
ATOM     10  C   UNL     1       7.814   1.473  -3.716  0.00  0.00    +0.345 A 
ATOM     11  O   UNL     1       8.414   2.041  -2.822  0.00  0.00    -0.245 OA
ATOM     12  C   UNL     1       8.500   1.065  -4.953  0.00  0.00    +0.067 A 
ATOM     13  C   UNL     1       7.972   0.008  -5.653  0.00  0.00    +0.027 A 
ATOM     14  O   UNL     1       3.380  -2.408  -3.681  0.00  0.00    -0.476 OA
ATOM     15  C   UNL     1       2.908  -1.998  -2.396  0.00  0.00    +0.318 C 
ENDROOT
BRANCH  12  16
ATOM     16  C   UNL     1       9.716   1.768  -5.424  0.00  0.00    -0.011 A 
ATOM     17  C   UNL     1      10.936   1.094  -5.481  0.00  0.00    +0.011 A 
ATOM     18  C   UNL     1      12.066   1.753  -5.921  0.00  0.00    +0.039 A 
ATOM     19  C   UNL     1      11.990   3.082  -6.305  0.00  0.00    +0.123 A 
ATOM     20  C   UNL     1      10.780   3.756  -6.250  0.00  0.00    +0.039 A 
ATOM     21  C   UNL     1       9.644   3.103  -5.818  0.00  0.00    +0.011 A 
ATOM     22  F   UNL     1      13.099   3.723  -6.734  0.00  0.00    -0.205 F 
ENDBRANCH  12  16
BRANCH   1  23
ATOM     23  C   UNL     1       2.159  -0.053  -1.157  0.00  0.00    +0.069 C 
BRANCH  23  24
ATOM     24  C   UNL     1       0.690  -0.478  -1.207  0.00  0.00    -0.064 C 
BRANCH  24  26
ATOM     25  C   UNL     1      -0.018   1.465   0.010  0.00  0.00    -0.097 C 
ATOM     26  N   UNL     1       0.002  -0.004   0.002  0.00  0.00    +0.377 N 
ATOM     27  C   UNL     1      -1.376  -0.512   0.012  0.00  0.00    -0.097 C 
ATOM     28  H   UNL     1       0.490  -0.338   0.820  0.00  0.00    -0.083 HD
ENDBRANCH  24  26
ENDBRANCH  23  24
ENDBRANCH   1  23
TORSDOF 4
