REMARK  Name = ZINC40118766
REMARK  8 active torsions:
REMARK  status: ('A' for Active; 'I' for Inactive)
REMARK    1  A    between atoms: C_1  and  N_2
REMARK    2  A    between atoms: N_2  and  C_3
REMARK    3  A    between atoms: N_2  and  C_16
REMARK    4  A    between atoms: C_3  and  C_4
REMARK    5  A    between atoms: C_9  and  N_10
REMARK    6  A    between atoms: C_16  and  C_17
REMARK    7  A    between atoms: C_19  and  C_22
REMARK    8  A    between atoms: C_22  and  C_23
REMARK                            x       y       z     vdW  Elec       q    Type
REMARK                         _______ _______ _______ _____ _____    ______ ____
ROOT
ATOM      1  C   UNL     1      -0.018   1.465   0.010  0.00  0.00    -0.095 C 
ATOM      2  N   UNL     1       0.002  -0.004   0.002  0.00  0.00    +0.386 N 
ATOM      3  H   UNL     1       0.474  -0.330  -0.828  0.00  0.00    -0.081 HD
ENDROOT
BRANCH   2   4
ATOM      4  C   UNL     1      -1.376  -0.512   0.012  0.00  0.00    -0.041 C 
BRANCH   4   5
ATOM      5  C   UNL     1      -2.067  -0.116  -1.267  0.00  0.00    -0.043 A 
ATOM      6  C   UNL     1      -2.918   0.972  -1.284  0.00  0.00    +0.003 A 
ATOM      7  C   UNL     1      -3.553   1.336  -2.457  0.00  0.00    +0.000 A 
ATOM      8  C   UNL     1      -3.339   0.613  -3.616  0.00  0.00    +0.002 A 
ATOM      9  C   UNL     1      -2.490  -0.476  -3.606  0.00  0.00    +0.023 A 
ATOM     10  C   UNL     1      -1.846  -0.841  -2.430  0.00  0.00    +0.031 A 
BRANCH  10  11
ATOM     11  N   UNL     1      -0.982  -1.939  -2.417  0.00  0.00    -0.330 N 
ATOM     12  C   UNL     1      -1.489  -3.287  -2.128  0.00  0.00    +0.105 C 
ATOM     13  C   UNL     1      -1.064  -4.228  -3.259  0.00  0.00    +0.019 C 
ATOM     14  C   UNL     1       0.454  -4.152  -3.437  0.00  0.00    +0.003 C 
ATOM     15  C   UNL     1       0.855  -2.725  -3.818  0.00  0.00    +0.019 C 
ATOM     16  C   UNL     1       0.450  -1.768  -2.699  0.00  0.00    +0.105 C 
ENDBRANCH  10  11
ENDBRANCH   4   5
ENDBRANCH   2   4
BRANCH   2  17
ATOM     17  C   UNL     1       0.713  -0.491   1.192  0.00  0.00    +0.022 C 
BRANCH  17  18
ATOM     18  C   UNL     1       2.158  -0.072   1.120  0.00  0.00    +0.211 A 
ATOM     19  N   UNL     1       2.658   1.035   1.595  0.00  0.00    -0.197 NA
ATOM     20  C   UNL     1       3.974   1.084   1.357  0.00  0.00    +0.176 A 
ATOM     21  N   UNL     1       4.329   0.003   0.725  0.00  0.00    -0.061 NA
ATOM     22  O   UNL     1       3.152  -0.775   0.563  0.00  0.00    -0.340 OA
BRANCH  20  23
ATOM     23  C   UNL     1       4.894   2.208   1.756  0.00  0.00    +0.114 C 
BRANCH  23  24
ATOM     24  C   UNL     1       5.450   1.939   3.131  0.00  0.00    -0.040 A 
ATOM     25  C   UNL     1       4.778   2.394   4.250  0.00  0.00    +0.004 A 
ATOM     26  C   UNL     1       5.287   2.147   5.511  0.00  0.00    +0.000 A 
ATOM     27  C   UNL     1       6.469   1.444   5.653  0.00  0.00    +0.000 A 
ATOM     28  C   UNL     1       7.141   0.988   4.535  0.00  0.00    +0.000 A 
ATOM     29  C   UNL     1       6.629   1.231   3.274  0.00  0.00    +0.004 A 
ENDBRANCH  23  24
ENDBRANCH  20  23
ENDBRANCH  17  18
ENDBRANCH   2  17
TORSDOF 7
