REMARK  Name = ZINC58002878
REMARK  4 active torsions:
REMARK  status: ('A' for Active; 'I' for Inactive)
REMARK    1  A    between atoms: C_4  and  N_7
REMARK    2  A    between atoms: C_8  and  C_10
REMARK    3  A    between atoms: N_15  and  C_17
REMARK    4  A    between atoms: C_17  and  C_18
REMARK                            x       y       z     vdW  Elec       q    Type
REMARK                         _______ _______ _______ _____ _____    ______ ____
ROOT
ATOM      1  C   UNL     1       4.908  -2.685   0.155  0.00  0.00    +0.089 C 
ATOM      2  C   UNL     1       5.660  -2.216   1.403  0.00  0.00    +0.015 C 
ATOM      3  C   UNL     1       6.969  -3.000   1.526  0.00  0.00    +0.016 C 
ATOM      4  C   UNL     1       6.657  -4.497   1.586  0.00  0.00    +0.085 C 
ATOM      5  N   UNL     1       5.938  -4.897   0.369  0.00  0.00    -0.296 NA
ATOM      6  C   UNL     1       4.655  -4.191   0.253  0.00  0.00    +0.097 C 
ENDROOT
BRANCH   1   8
ATOM      7  N   UNL     1       3.566  -0.616  -0.036  0.00  0.00    -0.269 N 
ATOM      8  C   UNL     1       3.590  -1.960   0.058  0.00  0.00    +0.223 C 
ATOM      9  O   UNL     1       2.551  -2.586   0.066  0.00  0.00    -0.275 OA
ATOM     10  H   UNL     1       4.396  -0.120  -0.116  0.00  0.00    +0.156 HD
BRANCH   7  14
ATOM     11  C   UNL     1       0.037   1.413   0.016  0.00  0.00    +0.130 A 
ATOM     12  C   UNL     1       0.057   0.030   0.007  0.00  0.00    +0.132 A 
ATOM     13  N   UNL     1       1.209  -0.616  -0.010  0.00  0.00    -0.237 NA
ATOM     14  C   UNL     1       2.349   0.063  -0.018  0.00  0.00    +0.143 A 
ATOM     15  C   UNL     1       2.325   1.454  -0.009  0.00  0.00    +0.154 A 
ATOM     16  N   UNL     1       1.171   2.093   0.008  0.00  0.00    -0.258 NA
ENDBRANCH   7  14
ENDBRANCH   1   8
BRANCH   5  17
ATOM     17  C   UNL     1       5.744  -6.353   0.327  0.00  0.00    +0.137 C 
BRANCH  17  18
ATOM     18  C   UNL     1       7.081  -7.034   0.194  0.00  0.00    +0.037 A 
ATOM     19  C   UNL     1       7.559  -7.846   1.201  0.00  0.00    +0.093 A 
ATOM     20  C   UNL     1       8.799  -8.469   1.060  0.00  0.00    +0.259 A 
ATOM     21  O   UNL     1       9.226  -9.188   1.948  0.00  0.00    -0.267 OA
ATOM     22  N   UNL     1       9.534  -8.273  -0.075  0.00  0.00    -0.264 N 
ATOM     23  C   UNL     1      10.765  -8.814  -0.361  0.00  0.00    +0.104 A 
ATOM     24  C   UNL     1      11.385  -8.545  -1.509  0.00  0.00    +0.067 A 
ATOM     25  S   UNL     1      10.217  -7.456  -2.309  0.00  0.00    -0.059 S 
ATOM     26  C   UNL     1       8.985  -7.452  -1.024  0.00  0.00    +0.158 A 
ATOM     27  N   UNL     1       7.820  -6.868  -0.900  0.00  0.00    -0.338 N 
ATOM     28  H   UNL     1       7.491  -6.303  -1.617  0.00  0.00    +0.168 HD
ENDBRANCH  17  18
ENDBRANCH   5  17
TORSDOF 4
