REMARK  Name = ZINC59039465
REMARK  13 active torsions:
REMARK  status: ('A' for Active; 'I' for Inactive)
REMARK    1  A    between atoms: C_1  and  C_2
REMARK    2  A    between atoms: C_2  and  C_3
REMARK    3  A    between atoms: C_3  and  C_4
REMARK    4  A    between atoms: C_4  and  S_5
REMARK    5  A    between atoms: S_5  and  C_6
REMARK    6  A    between atoms: C_12  and  C_14
REMARK    7  A    between atoms: C_14  and  S_15
REMARK    8  A    between atoms: S_15  and  C_16
REMARK    9  A    between atoms: N_21  and  N_22
REMARK   10  A    between atoms: C_23  and  C_24
REMARK   11  A    between atoms: C_23  and  C_25
REMARK   12  A    between atoms: C_28  and  O_31
REMARK   13  A    between atoms: O_31  and  C_32
REMARK                            x       y       z     vdW  Elec       q    Type
REMARK                         _______ _______ _______ _____ _____    ______ ____
ROOT
ATOM      1  C   UNL     1       3.071 -13.989   0.639  0.00  0.00    +0.211 A 
ATOM      2  N   UNL     1       2.104 -14.895   0.826  0.00  0.00    -0.186 NA
ATOM      3  C   UNL     1       2.250 -15.881  -0.034  0.00  0.00    +0.232 A 
ATOM      4  N   UNL     1       3.332 -15.615  -0.796  0.00  0.00    -0.245 N 
ATOM      5  N   UNL     1       3.841 -14.386  -0.346  0.00  0.00    -0.144 NA
ATOM      6  N   UNL     1       1.438 -16.995  -0.137  0.00  0.00    -0.205 N 
ATOM      7  H   UNL     1       1.626 -17.673  -0.805  0.00  0.00    +0.177 HD
ATOM      8  H   UNL     1       3.686 -16.162  -1.514  0.00  0.00    +0.192 HD
ENDROOT
BRANCH   6   9
ATOM      9  N   UNL     1       0.342 -17.146   0.723  0.00  0.00    -0.184 NA
ATOM     10  C   UNL     1      -0.352 -18.243   0.705  0.00  0.00    +0.063 C 
ATOM     11  C   UNL     1      -1.635 -18.336   1.489  0.00  0.00    +0.068 C 
BRANCH  10  12
ATOM     12  C   UNL     1       0.116 -19.398  -0.083  0.00  0.00    -0.002 A 
ATOM     13  C   UNL     1       1.481 -19.683  -0.166  0.00  0.00    +0.013 A 
ATOM     14  C   UNL     1       1.914 -20.764  -0.903  0.00  0.00    +0.046 A 
ATOM     15  C   UNL     1       0.995 -21.569  -1.564  0.00  0.00    +0.120 A 
ATOM     16  C   UNL     1      -0.363 -21.289  -1.486  0.00  0.00    +0.046 A 
ATOM     17  C   UNL     1      -0.805 -20.214  -0.745  0.00  0.00    +0.013 A 
BRANCH  15  18
ATOM     18  O   UNL     1       1.426 -22.633  -2.291  0.00  0.00    -0.495 OA
ATOM     19  C   UNL     1       0.428 -23.419  -2.945  0.00  0.00    +0.277 C 
ENDBRANCH  15  18
ENDBRANCH  10  12
ENDBRANCH   6   9
BRANCH   1  20
ATOM     20  S   UNL     1       3.273 -12.502   1.561  0.00  0.00    -0.075 S 
BRANCH  20  21
ATOM     21  C   UNL     1       4.737 -11.724   0.826  0.00  0.00    +0.173 C 
BRANCH  21  28
ATOM     22  C   UNL     1       7.136  -6.138   2.820  0.00  0.00    +0.160 A 
ATOM     23  N   UNL     1       6.078  -6.783   3.290  0.00  0.00    -0.133 NA
ATOM     24  N   UNL     1       5.702  -7.886   2.808  0.00  0.00    -0.125 NA
ATOM     25  C   UNL     1       6.339  -8.467   1.805  0.00  0.00    +0.189 A 
ATOM     26  S   UNL     1       7.636  -7.266   1.522  0.00  0.00    -0.024 S 
ATOM     27  N   UNL     1       6.073  -9.668   1.152  0.00  0.00    -0.263 N 
ATOM     28  C   UNL     1       5.024 -10.425   1.532  0.00  0.00    +0.229 C 
ATOM     29  O   UNL     1       4.311 -10.059   2.442  0.00  0.00    -0.275 OA
ATOM     30  H   UNL     1       6.644  -9.961   0.424  0.00  0.00    +0.157 HD
BRANCH  22  31
ATOM     31  S   UNL     1       7.843  -4.604   3.323  0.00  0.00    -0.097 S 
BRANCH  31  32
ATOM     32  C   UNL     1       6.785  -4.061   4.692  0.00  0.00    +0.076 C 
BRANCH  32  33
ATOM     33  C   UNL     1       7.294  -2.722   5.230  0.00  0.00    +0.011 C 
BRANCH  33  35
ATOM     34  C   UNL     1       6.910  -0.925   6.923  0.00  0.00    +0.004 C 
ATOM     35  C   UNL     1       6.401  -2.263   6.385  0.00  0.00    -0.003 C 
ENDBRANCH  33  35
ENDBRANCH  32  33
ENDBRANCH  31  32
ENDBRANCH  22  31
ENDBRANCH  21  28
ENDBRANCH  20  21
ENDBRANCH   1  20
TORSDOF 10
