REMARK  Name = ZINC19212215
REMARK  11 active torsions:
REMARK  status: ('A' for Active; 'I' for Inactive)
REMARK    1  A    between atoms: C_1  and  C_2
REMARK    2  A    between atoms: C_5  and  C_8
REMARK    3  A    between atoms: C_10  and  C_13
REMARK    4  A    between atoms: C_13  and  C_14
REMARK    5  A    between atoms: C_14  and  C_26
REMARK    6  A    between atoms: C_20  and  C_22
REMARK    7  A    between atoms: C_22  and  C_23
REMARK    8  A    between atoms: C_22  and  C_24
REMARK    9  A    between atoms: C_22  and  C_25
REMARK   10  A    between atoms: N_28  and  C_29
REMARK   11  A    between atoms: N_28  and  C_30
REMARK                            x       y       z     vdW  Elec       q    Type
REMARK                         _______ _______ _______ _____ _____    ______ ____
ROOT
ATOM      1  C   UNL     1      -6.419   2.607   6.949  0.00  0.00    +0.070 C 
ATOM      2  C   UNL     1      -6.495   1.370   6.051  0.00  0.00    +0.019 C 
ATOM      3  C   UNL     1      -7.101   0.204   6.836  0.00  0.00    +0.020 C 
ATOM      4  C   UNL     1      -8.522   0.572   7.275  0.00  0.00    +0.108 C 
ATOM      5  N   UNL     1      -8.475   1.839   8.017  0.00  0.00    -0.300 N 
ATOM      6  C   UNL     1      -7.832   3.002   7.389  0.00  0.00    +0.124 C 
ATOM      7  C   UNL     1      -9.010   1.933   9.250  0.00  0.00    +0.221 C 
ATOM      8  O   UNL     1      -8.875   2.952   9.894  0.00  0.00    -0.275 OA
ENDROOT
BRANCH   1   9
ATOM      9  C   UNL     1      -5.582   2.296   8.164  0.00  0.00    +0.223 C 
ATOM     10  O   UNL     1      -5.031   1.220   8.261  0.00  0.00    -0.275 OA
ATOM     11  N   UNL     1      -5.447   3.213   9.142  0.00  0.00    -0.307 N 
ATOM     12  C   UNL     1      -4.537   2.961  10.262  0.00  0.00    +0.131 C 
ATOM     13  C   UNL     1      -6.209   4.463   9.084  0.00  0.00    +0.131 C 
ENDBRANCH   1   9
BRANCH   7  14
ATOM     14  C   UNL     1      -9.777   0.772   9.829  0.00  0.00    +0.039 C 
ATOM     15  C   UNL     1     -10.425   1.196  11.148  0.00  0.00    +0.020 C 
ATOM     16  C   UNL     1     -10.864   0.337   8.844  0.00  0.00    +0.020 C 
ATOM     17  C   UNL     1      -8.821  -0.396  10.082  0.00  0.00    +0.020 C 
ENDBRANCH   7  14
BRANCH   1  18
ATOM     18  C   UNL     1      -5.784   3.763   6.174  0.00  0.00    +0.095 C 
BRANCH  18  21
ATOM     19  C   UNL     1      -2.846   2.496   4.384  0.00  0.00    +0.114 A 
ATOM     20  C   UNL     1      -4.256   2.680   4.434  0.00  0.00    +0.076 A 
ATOM     21  C   UNL     1      -4.459   3.320   5.608  0.00  0.00    +0.139 A 
ATOM     22  O   UNL     1      -3.253   3.488   6.168  0.00  0.00    -0.359 OA
ATOM     23  N   UNL     1      -2.370   3.029   5.482  0.00  0.00    -0.078 NA
BRANCH  19  28
ATOM     24  C   UNL     1       0.165  -0.055   0.188  0.00  0.00    +0.044 C 
ATOM     25  C   UNL     1      -0.623   0.613   1.286  0.00  0.00    -0.050 A 
ATOM     26  C   UNL     1      -1.999   0.712   1.184  0.00  0.00    +0.004 A 
ATOM     27  C   UNL     1      -2.726   1.318   2.189  0.00  0.00    +0.010 A 
ATOM     28  C   UNL     1      -2.070   1.839   3.302  0.00  0.00    +0.004 A 
ATOM     29  C   UNL     1      -0.683   1.741   3.397  0.00  0.00    +0.010 A 
ATOM     30  C   UNL     1       0.033   1.129   2.389  0.00  0.00    +0.004 A 
ENDBRANCH  19  28
ENDBRANCH  18  21
ENDBRANCH   1  18
TORSDOF 5
