REMARK  Name = ZINC36484874
REMARK  16 active torsions:
REMARK  status: ('A' for Active; 'I' for Inactive)
REMARK    1  A    between atoms: C_1  and  C_2
REMARK    2  A    between atoms: C_2  and  C_3
REMARK    3  A    between atoms: C_2  and  C_4
REMARK    4  A    between atoms: C_2  and  C_5
REMARK    5  A    between atoms: C_5  and  C_6
REMARK    6  A    between atoms: C_6  and  C_7
REMARK    7  A    between atoms: C_6  and  C_8
REMARK    8  A    between atoms: C_6  and  N_9
REMARK    9  A    between atoms: C_10  and  C_12
REMARK   10  A    between atoms: C_12  and  C_14
REMARK   11  A    between atoms: C_12  and  N_21
REMARK   12  A    between atoms: C_19  and  O_20
REMARK   13  A    between atoms: N_21  and  C_22
REMARK   14  A    between atoms: C_29  and  C_31
REMARK   15  A    between atoms: C_32  and  O_38
REMARK   16  A    between atoms: C_36  and  O_37
REMARK                            x       y       z     vdW  Elec       q    Type
REMARK                         _______ _______ _______ _____ _____    ______ ____
ROOT
ATOM      1  C   UNL     1       5.323  -0.359  -4.333  0.00  0.00    +0.201 C 
ENDROOT
BRANCH   1   2
ATOM      2  C   UNL     1       5.224  -1.739  -4.932  0.00  0.00    +0.024 A 
ATOM      3  C   UNL     1       6.197  -2.682  -4.660  0.00  0.00    +0.009 A 
ATOM      4  C   UNL     1       6.107  -3.947  -5.209  0.00  0.00    +0.001 A 
ATOM      5  C   UNL     1       5.044  -4.273  -6.031  0.00  0.00    +0.004 A 
ATOM      6  C   UNL     1       4.069  -3.334  -6.306  0.00  0.00    +0.046 A 
ATOM      7  C   UNL     1       4.154  -2.065  -5.752  0.00  0.00    +0.122 A 
BRANCH   7   8
ATOM      8  O   UNL     1       3.193  -1.141  -6.016  0.00  0.00    -0.506 OA
ATOM      9  H   UNL     1       3.371  -0.600  -6.798  0.00  0.00    +0.292 HD
ENDBRANCH   7   8
ENDBRANCH   1   2
BRANCH   1  11
ATOM     10  N   UNL     1       3.303  -0.713  -2.949  0.00  0.00    -0.308 N 
ATOM     11  C   UNL     1       4.594  -0.331  -3.014  0.00  0.00    +0.239 C 
ATOM     12  O   UNL     1       5.169   0.037  -2.012  0.00  0.00    -0.273 OA
ATOM     13  H   UNL     1       2.844  -1.007  -3.751  0.00  0.00    +0.149 HD
BRANCH  10  14
ATOM     14  C   UNL     1       2.595  -0.685  -1.667  0.00  0.00    +0.030 C 
ATOM     15  C   UNL     1       2.887   0.635  -0.952  0.00  0.00    +0.031 C 
ATOM     16  C   UNL     1       3.069  -1.852  -0.797  0.00  0.00    +0.031 C 
BRANCH  14  17
ATOM     17  C   UNL     1       1.090  -0.811  -1.913  0.00  0.00    +0.031 C 
BRANCH  17  19
ATOM     18  C   UNL     1       0.991  -0.605  -4.401  0.00  0.00    +0.010 C 
ATOM     19  C   UNL     1       0.686   0.097  -3.076  0.00  0.00    -0.036 C 
ATOM     20  C   UNL     1       1.475   1.406  -3.000  0.00  0.00    +0.010 C 
ATOM     21  C   UNL     1      -0.811   0.398  -2.992  0.00  0.00    +0.010 C 
ENDBRANCH  17  19
ENDBRANCH  14  17
ENDBRANCH  10  14
ENDBRANCH   1  11
BRANCH   1  22
ATOM     22  N   UNL     1       6.732  -0.019  -4.120  0.00  0.00    -0.251 N 
ATOM     23  C   UNL     1       7.540   0.194  -5.177  0.00  0.00    +0.259 C 
ATOM     24  O   UNL     1       7.116   0.047  -6.307  0.00  0.00    -0.269 OA
BRANCH  22  25
ATOM     25  C   UNL     1       7.237   0.085  -2.821  0.00  0.00    +0.039 A 
ATOM     26  C   UNL     1       7.368  -1.051  -2.032  0.00  0.00    +0.023 A 
ATOM     27  C   UNL     1       7.868  -0.946  -0.749  0.00  0.00    +0.003 A 
ATOM     28  C   UNL     1       8.238   0.289  -0.248  0.00  0.00    +0.020 A 
ATOM     29  C   UNL     1       8.109   1.423  -1.031  0.00  0.00    +0.043 A 
ATOM     30  C   UNL     1       7.614   1.323  -2.318  0.00  0.00    +0.043 A 
ATOM     31 CL   UNL     1       8.574   2.971  -0.398  0.00  0.00    -0.083 Cl
ENDBRANCH  22  25
BRANCH  23  32
ATOM     32  C   UNL     1       8.938   0.605  -4.963  0.00  0.00    +0.120 A 
ATOM     33  C   UNL     1       9.926  -0.358  -4.711  0.00  0.00    +0.133 A 
ATOM     34  C   UNL     1      11.238   0.040  -4.512  0.00  0.00    +0.046 A 
ATOM     35  C   UNL     1      11.575   1.380  -4.561  0.00  0.00    +0.007 A 
ATOM     36  C   UNL     1      10.608   2.337  -4.809  0.00  0.00    +0.046 A 
ATOM     37  C   UNL     1       9.291   1.961  -5.016  0.00  0.00    +0.133 A 
BRANCH  37  38
ATOM     38  O   UNL     1       8.346   2.902  -5.265  0.00  0.00    -0.506 OA
ATOM     39  H   UNL     1       7.877   3.206  -4.476  0.00  0.00    +0.292 HD
ENDBRANCH  37  38
BRANCH  33  40
ATOM     40  O   UNL     1       9.599  -1.673  -4.662  0.00  0.00    -0.506 OA
ATOM     41  H   UNL     1       9.657  -2.125  -5.514  0.00  0.00    +0.292 HD
ENDBRANCH  33  40
ENDBRANCH  23  32
ENDBRANCH   1  22
TORSDOF 11
