REMARK  Name = ZINC13992744
REMARK  15 active torsions:
REMARK  status: ('A' for Active; 'I' for Inactive)
REMARK    1  A    between atoms: C_1  and  C_2
REMARK    2  A    between atoms: C_5  and  C_7
REMARK    3  A    between atoms: C_7  and  N_8
REMARK    4  A    between atoms: N_8  and  C_9
REMARK    5  A    between atoms: N_8  and  C_21
REMARK    6  A    between atoms: C_9  and  C_10
REMARK    7  A    between atoms: C_12  and  O_19
REMARK    8  A    between atoms: C_13  and  O_18
REMARK    9  A    between atoms: C_14  and  O_16
REMARK   10  A    between atoms: O_16  and  C_17
REMARK   11  A    between atoms: O_19  and  C_20
REMARK   12  A    between atoms: C_23  and  C_29
REMARK   13  A    between atoms: C_23  and  C_30
REMARK   14  A    between atoms: C_25  and  C_27
REMARK   15  A    between atoms: C_25  and  C_28
REMARK                            x       y       z     vdW  Elec       q    Type
REMARK                         _______ _______ _______ _____ _____    ______ ____
ROOT
ATOM      1  N   UNL     1       1.925  -3.688  -1.406  0.00  0.00    -0.288 NA
ENDROOT
BRANCH   1   2
ATOM      2  C   UNL     1       2.738  -2.716  -2.156  0.00  0.00    +0.055 C 
ATOM      3  C   UNL     1       3.740  -2.059  -1.205  0.00  0.00    +0.006 C 
ATOM      4  C   UNL     1       4.583  -1.036  -1.966  0.00  0.00    -0.072 C 
ATOM      5  N   UNL     1       3.761  -0.063  -2.670  0.00  0.00    +0.386 N 
ATOM      6  C   UNL     1       2.641  -0.564  -3.450  0.00  0.00    -0.072 C 
ATOM      7  C   UNL     1       1.826  -1.626  -2.720  0.00  0.00    +0.006 C 
ATOM      8  C   UNL     1       3.092  -1.097  -4.813  0.00  0.00    -0.010 C 
ATOM      9  C   UNL     1       1.695   0.630  -3.724  0.00  0.00    -0.010 C 
ATOM     10  C   UNL     1       5.560  -1.749  -2.901  0.00  0.00    -0.010 C 
ATOM     11  C   UNL     1       5.425  -0.268  -0.922  0.00  0.00    -0.010 C 
ATOM     12  H   UNL     1       3.403   0.608  -1.987  0.00  0.00    -0.084 HD
ATOM     13  H   UNL     1       4.367   0.481  -3.289  0.00  0.00    -0.084 HD
ENDBRANCH   1   2
BRANCH   1  14
ATOM     14  C   UNL     1       1.657  -3.211  -0.043  0.00  0.00    +0.159 C 
BRANCH  14  19
ATOM     15  C   UNL     1      -0.282   1.445  -0.124  0.00  0.00    +0.086 C 
ATOM     16  C   UNL     1      -0.185  -0.059  -0.128  0.00  0.00    +0.102 A 
ATOM     17  C   UNL     1      -1.221  -0.914  -0.193  0.00  0.00    +0.044 A 
ATOM     18  C   UNL     1      -0.678  -2.219  -0.171  0.00  0.00    +0.046 A 
ATOM     19  C   UNL     1       0.658  -2.083  -0.093  0.00  0.00    +0.119 A 
ATOM     20  O   UNL     1       0.951  -0.773  -0.074  0.00  0.00    -0.464 OA
ENDBRANCH  14  19
ENDBRANCH   1  14
BRANCH   1  21
ATOM     21  C   UNL     1       2.571  -5.008  -1.384  0.00  0.00    +0.120 C 
BRANCH  21  22
ATOM     22  C   UNL     1       2.608  -5.572  -2.780  0.00  0.00    -0.026 A 
ATOM     23  C   UNL     1       1.557  -6.344  -3.240  0.00  0.00    +0.054 A 
ATOM     24  C   UNL     1       1.588  -6.866  -4.524  0.00  0.00    +0.165 A 
ATOM     25  C   UNL     1       2.676  -6.612  -5.350  0.00  0.00    +0.201 A 
ATOM     26  C   UNL     1       3.730  -5.835  -4.885  0.00  0.00    +0.165 A 
ATOM     27  C   UNL     1       3.690  -5.312  -3.601  0.00  0.00    +0.054 A 
BRANCH  26  28
ATOM     28  O   UNL     1       4.798  -5.583  -5.689  0.00  0.00    -0.491 OA
ATOM     29  C   UNL     1       5.844  -4.777  -5.145  0.00  0.00    +0.277 C 
ENDBRANCH  26  28
BRANCH  25  30
ATOM     30  O   UNL     1       2.710  -7.123  -6.611  0.00  0.00    -0.501 OA
ATOM     31  H   UNL     1       2.318  -6.545  -7.280  0.00  0.00    +0.292 HD
ENDBRANCH  25  30
BRANCH  24  32
ATOM     32  O   UNL     1       0.554  -7.626  -4.975  0.00  0.00    -0.491 OA
ATOM     33  C   UNL     1      -0.531  -7.847  -4.071  0.00  0.00    +0.277 C 
ENDBRANCH  24  32
ENDBRANCH  21  22
ENDBRANCH   1  21
TORSDOF 8
