REMARK  Name = ZINC39923317
REMARK  9 active torsions:
REMARK  status: ('A' for Active; 'I' for Inactive)
REMARK    1  A    between atoms: C_1  and  O_2
REMARK    2  A    between atoms: O_2  and  C_3
REMARK    3  A    between atoms: C_6  and  C_9
REMARK    4  A    between atoms: C_13  and  S_22
REMARK    5  A    between atoms: N_14  and  C_15
REMARK    6  A    between atoms: S_22  and  C_23
REMARK    7  A    between atoms: C_23  and  C_24
REMARK    8  A    between atoms: N_26  and  N_27
REMARK    9  A    between atoms: C_28  and  C_29
REMARK                            x       y       z     vdW  Elec       q    Type
REMARK                         _______ _______ _______ _____ _____    ______ ____
ROOT
ATOM      1  C   UNL     1       2.587  -2.551   4.312  0.00  0.00    +0.213 C 
ATOM      2  N   UNL     1       3.794  -1.804   4.704  0.00  0.00    -0.242 N 
ATOM      3  N   UNL     1       4.873  -2.675   4.507  0.00  0.00    -0.162 NA
ATOM      4  C   UNL     1       4.480  -3.819   4.059  0.00  0.00    +0.180 C 
ATOM      5  N   UNL     1       3.100  -3.868   3.899  0.00  0.00    -0.254 N 
ATOM      6  H   UNL     1       3.834  -0.891   5.032  0.00  0.00    +0.170 HD
ENDROOT
BRANCH   5   7
ATOM      7  C   UNL     1       2.346  -4.951   3.438  0.00  0.00    +0.038 A 
ATOM      8  C   UNL     1       2.649  -5.539   2.216  0.00  0.00    +0.025 A 
ATOM      9  C   UNL     1       1.903  -6.609   1.763  0.00  0.00    +0.022 A 
ATOM     10  C   UNL     1       0.855  -7.096   2.524  0.00  0.00    +0.041 A 
ATOM     11  C   UNL     1       0.550  -6.511   3.741  0.00  0.00    +0.022 A 
ATOM     12  C   UNL     1       1.297  -5.445   4.202  0.00  0.00    +0.025 A 
ATOM     13 CL   UNL     1      -0.081  -8.441   1.951  0.00  0.00    -0.084 Cl
ENDBRANCH   5   7
BRANCH   1  17
ATOM     14  C   UNL     1       0.621  -0.617   1.047  0.00  0.00    +0.120 A 
ATOM     15  C   UNL     1       1.394   0.123   1.929  0.00  0.00    +0.046 A 
ATOM     16  C   UNL     1       2.029  -0.504   2.984  0.00  0.00    +0.011 A 
ATOM     17  C   UNL     1       1.893  -1.869   3.161  0.00  0.00    -0.008 A 
ATOM     18  C   UNL     1       1.123  -2.609   2.283  0.00  0.00    +0.011 A 
ATOM     19  C   UNL     1       0.482  -1.986   1.230  0.00  0.00    +0.046 A 
BRANCH  14  21
ATOM     20  C   UNL     1       0.183   1.408  -0.118  0.00  0.00    +0.277 C 
ATOM     21  O   UNL     1      -0.004  -0.003   0.009  0.00  0.00    -0.495 OA
ENDBRANCH  14  21
ENDBRANCH   1  17
BRANCH   4  22
ATOM     22  S   UNL     1       5.563  -5.161   3.696  0.00  0.00    -0.079 S 
BRANCH  22  23
ATOM     23  C   UNL     1       7.210  -4.517   4.098  0.00  0.00    +0.174 C 
BRANCH  23  24
ATOM     24  C   UNL     1       8.245  -5.579   3.828  0.00  0.00    +0.242 C 
ATOM     25  O   UNL     1       7.904  -6.664   3.407  0.00  0.00    -0.273 OA
ATOM     26  N   UNL     1       9.548  -5.323   4.056  0.00  0.00    -0.206 N 
ATOM     27  H   UNL     1       9.821  -4.456   4.393  0.00  0.00    +0.177 HD
BRANCH  26  28
ATOM     28  N   UNL     1      10.510  -6.311   3.806  0.00  0.00    -0.188 NA
ATOM     29  C   UNL     1      11.776  -6.063   4.027  0.00  0.00    +0.136 C 
BRANCH  29  30
ATOM     30  C   UNL     1      12.739  -7.051   3.776  0.00  0.00    +0.000 C 
ATOM     31  C   UNL     1      14.116  -6.952   3.962  0.00  0.00    +0.004 A 
ATOM     32  C   UNL     1      14.943  -5.907   4.428  0.00  0.00    +0.010 A 
ATOM     33  C   UNL     1      16.285  -6.095   4.506  0.00  0.00    +0.001 A 
ATOM     34  C   UNL     1      16.878  -7.305   4.136  0.00  0.00    +0.002 A 
ATOM     35  C   UNL     1      16.147  -8.350   3.680  0.00  0.00    +0.026 A 
ATOM     36  C   UNL     1      14.736  -8.230   3.570  0.00  0.00    +0.043 A 
ATOM     37  N   UNL     1      13.818  -9.082   3.164  0.00  0.00    -0.380 N 
ATOM     38  C   UNL     1      12.498  -8.451   3.254  0.00  0.00    +0.150 C 
ATOM     39  H   UNL     1      13.988  -9.986   2.857  0.00  0.00    +0.160 HD
ENDBRANCH  29  30
ENDBRANCH  26  28
ENDBRANCH  23  24
ENDBRANCH  22  23
ENDBRANCH   4  22
TORSDOF 8
