REMARK  Name = ZINC12245627
REMARK  5 active torsions:
REMARK  status: ('A' for Active; 'I' for Inactive)
REMARK    1  A    between atoms: C_1  and  C_2
REMARK    2  A    between atoms: C_2  and  C_17
REMARK    3  A    between atoms: N_5  and  C_9
REMARK    4  A    between atoms: C_9  and  C_10
REMARK    5  A    between atoms: C_23  and  C_25
REMARK                            x       y       z     vdW  Elec       q    Type
REMARK                         _______ _______ _______ _____ _____    ______ ____
ROOT
ATOM      1  C   UNL     1      -4.796   0.676   3.932  0.00  0.00    +0.042 C 
ATOM      2  C   UNL     1      -5.521   1.079   2.647  0.00  0.00    +0.113 C 
ATOM      3  C   UNL     1      -5.800   2.569   2.637  0.00  0.00    +0.247 C 
ATOM      4  O   UNL     1      -4.985   3.466   2.669  0.00  0.00    -0.273 OA
ATOM      5  N   UNL     1      -7.145   2.685   2.584  0.00  0.00    -0.220 N 
ATOM      6  C   UNL     1      -7.744   1.488   2.563  0.00  0.00    +0.310 C 
ATOM      7  O   UNL     1      -8.949   1.337   2.518  0.00  0.00    -0.252 OA
ATOM      8  N   UNL     1      -6.863   0.472   2.597  0.00  0.00    -0.285 N 
ATOM      9  H   UNL     1      -7.070  -0.475   2.591  0.00  0.00    +0.151 HD
ENDROOT
BRANCH   2  10
ATOM     10  C   UNL     1      -4.702   0.676   1.419  0.00  0.00    +0.024 C 
ATOM     11  C   UNL     1      -4.375  -0.818   1.492  0.00  0.00    +0.025 C 
ATOM     12  C   UNL     1      -3.585  -1.225   0.245  0.00  0.00    +0.108 C 
ATOM     13  N   UNL     1      -2.408  -0.354   0.126  0.00  0.00    -0.295 N 
ATOM     14  C   UNL     1      -2.601   1.102   0.143  0.00  0.00    +0.108 C 
ATOM     15  C   UNL     1      -3.402   1.483   1.386  0.00  0.00    +0.025 C 
ATOM     16  C   UNL     1      -1.173  -0.882   0.009  0.00  0.00    +0.282 C 
ATOM     17  O   UNL     1      -1.032  -2.088  -0.071  0.00  0.00    -0.267 OA
BRANCH  16  18
ATOM     18  C   UNL     1       0.001  -0.003  -0.020  0.00  0.00    +0.189 A 
ATOM     19  C   UNL     1       1.305  -0.405  -0.001  0.00  0.00    +0.054 A 
ATOM     20  C   UNL     1       2.087   0.760  -0.042  0.00  0.00    +0.042 A 
ATOM     21  C   UNL     1       1.236   1.809  -0.084  0.00  0.00    +0.196 A 
ATOM     22  O   UNL     1      -0.020   1.345  -0.070  0.00  0.00    -0.458 OA
ENDBRANCH  16  18
ENDBRANCH   2  10
BRANCH   5  23
ATOM     23  C   UNL     1      -7.859   3.963   2.557  0.00  0.00    +0.153 C 
BRANCH  23  24
ATOM     24  C   UNL     1      -8.158   4.403   3.967  0.00  0.00    -0.029 A 
ATOM     25  C   UNL     1      -9.341   4.024   4.572  0.00  0.00    +0.008 A 
ATOM     26  C   UNL     1      -9.613   4.422   5.868  0.00  0.00    +0.038 A 
ATOM     27  C   UNL     1      -8.705   5.209   6.555  0.00  0.00    +0.123 A 
ATOM     28  C   UNL     1      -7.523   5.592   5.945  0.00  0.00    +0.038 A 
ATOM     29  C   UNL     1      -7.250   5.189   4.652  0.00  0.00    +0.008 A 
ATOM     30  F   UNL     1      -8.973   5.604   7.819  0.00  0.00    -0.205 F 
ENDBRANCH  23  24
ENDBRANCH   5  23
TORSDOF 4
