REMARK  Name = ZINC12542740
REMARK  6 active torsions:
REMARK  status: ('A' for Active; 'I' for Inactive)
REMARK    1  A    between atoms: C_6  and  N_7
REMARK    2  A    between atoms: C_11  and  N_31
REMARK    3  A    between atoms: C_15  and  S_16
REMARK    4  A    between atoms: S_16  and  C_17
REMARK    5  A    between atoms: C_17  and  C_18
REMARK    6  A    between atoms: N_20  and  C_21
REMARK                            x       y       z     vdW  Elec       q    Type
REMARK                         _______ _______ _______ _____ _____    ______ ____
ROOT
ATOM      1  N   UNL     1     -10.008   0.804   3.184  0.00  0.00    -0.287 N 
ATOM      2  C   UNL     1     -11.059   0.082   2.638  0.00  0.00    +0.075 A 
ATOM      3  C   UNL     1     -12.364  -0.166   3.035  0.00  0.00    +0.030 A 
ATOM      4  C   UNL     1     -13.184  -0.947   2.248  0.00  0.00    +0.035 A 
ATOM      5  C   UNL     1     -12.712  -1.489   1.061  0.00  0.00    +0.128 A 
ATOM      6  C   UNL     1     -11.419  -1.253   0.652  0.00  0.00    +0.062 A 
ATOM      7  C   UNL     1     -10.575  -0.463   1.437  0.00  0.00    +0.093 A 
ATOM      8  N   UNL     1      -9.286  -0.056   1.302  0.00  0.00    -0.221 NA
ATOM      9  C   UNL     1      -8.947   0.684   2.329  0.00  0.00    +0.175 A 
ENDROOT
BRANCH   1  15
ATOM     10  C   UNL     1     -10.198   0.856   5.593  0.00  0.00    +0.029 A 
ATOM     11  C   UNL     1     -10.215   1.565   6.778  0.00  0.00    +0.040 A 
ATOM     12  C   UNL     1     -10.074   2.943   6.763  0.00  0.00    +0.124 A 
ATOM     13  C   UNL     1      -9.911   3.611   5.562  0.00  0.00    +0.040 A 
ATOM     14  C   UNL     1      -9.889   2.905   4.375  0.00  0.00    +0.029 A 
ATOM     15  C   UNL     1     -10.030   1.524   4.388  0.00  0.00    +0.049 A 
ATOM     16  F   UNL     1     -10.095   3.635   7.923  0.00  0.00    -0.205 F 
ENDBRANCH   1  15
BRANCH   5  17
ATOM     17  N   UNL     1     -13.605  -2.325   0.229  0.00  0.00    +0.056 N 
ATOM     18  O   UNL     1     -13.195  -2.803  -0.814  0.00  0.00    -0.126 OA
ATOM     19  O   UNL     1     -14.750  -2.537   0.587  0.00  0.00    -0.126 OA
ENDBRANCH   5  17
BRANCH   9  20
ATOM     20  S   UNL     1      -7.364   1.420   2.569  0.00  0.00    -0.078 S 
BRANCH  20  21
ATOM     21  C   UNL     1      -6.517   0.837   1.080  0.00  0.00    +0.173 C 
BRANCH  21  22
ATOM     22  C   UNL     1      -5.103   1.358   1.069  0.00  0.00    +0.224 C 
ATOM     23  O   UNL     1      -4.707   2.056   1.979  0.00  0.00    -0.275 OA
ATOM     24  N   UNL     1      -4.279   1.049   0.049  0.00  0.00    -0.309 N 
ATOM     25  H   UNL     1      -4.595   0.491  -0.679  0.00  0.00    +0.149 HD
BRANCH  24  26
ATOM     26  C   UNL     1      -2.904   1.556   0.038  0.00  0.00    +0.035 C 
ATOM     27  C   UNL     1      -2.188   1.063  -1.221  0.00  0.00    +0.029 C 
ATOM     28  C   UNL     1      -0.753   1.593  -1.232  0.00  0.00    -0.008 C 
ATOM     29  C   UNL     1      -0.013   1.086   0.008  0.00  0.00    +0.007 C 
ATOM     30  C   UNL     1      -0.729   1.579   1.267  0.00  0.00    -0.008 C 
ATOM     31  C   UNL     1      -2.164   1.050   1.278  0.00  0.00    +0.029 C 
ATOM     32  C   UNL     1      -0.750   3.109   1.275  0.00  0.00    +0.007 C 
ATOM     33  C   UNL     1      -1.490   3.616   0.036  0.00  0.00    -0.008 C 
ATOM     34  C   UNL     1      -0.773   3.123  -1.223  0.00  0.00    +0.007 C 
ATOM     35  C   UNL     1      -2.925   3.086   0.047  0.00  0.00    +0.029 C 
ENDBRANCH  24  26
ENDBRANCH  21  22
ENDBRANCH  20  21
ENDBRANCH   9  20
TORSDOF 6
