REMARK  Name = ZINC61720835
REMARK  5 active torsions:
REMARK  status: ('A' for Active; 'I' for Inactive)
REMARK    1  A    between atoms: N_9  and  C_12
REMARK    2  A    between atoms: C_12  and  C_13
REMARK    3  A    between atoms: C_16  and  C_19
REMARK    4  A    between atoms: C_24  and  C_27
REMARK    5  A    between atoms: C_24  and  O_34
REMARK                            x       y       z     vdW  Elec       q    Type
REMARK                         _______ _______ _______ _____ _____    ______ ____
ROOT
ATOM      1  C   UNL     1       2.499  -4.445  -1.565  0.00  0.00    +0.009 C 
ATOM      2  C   UNL     1       1.185  -4.289  -2.333  0.00  0.00    +0.006 C 
ATOM      3  C   UNL     1       1.335  -4.893  -3.730  0.00  0.00    +0.013 C 
ATOM      4  C   UNL     1       1.681  -6.378  -3.609  0.00  0.00    +0.075 C 
ATOM      5  C   UNL     1       2.995  -6.535  -2.842  0.00  0.00    +0.013 C 
ATOM      6  C   UNL     1       2.845  -5.931  -1.445  0.00  0.00    +0.006 C 
ENDROOT
BRANCH   4   7
ATOM      7  C   UNL     1       0.579  -7.092  -2.869  0.00  0.00    +0.219 C 
ATOM      8  O   UNL     1      -0.284  -6.454  -2.305  0.00  0.00    -0.275 OA
ATOM      9  N   UNL     1       0.554  -8.439  -2.835  0.00  0.00    -0.301 N 
ATOM     10  C   UNL     1       1.646  -9.224  -3.426  0.00  0.00    +0.111 C 
ATOM     11  C   UNL     1       1.050 -10.230  -4.416  0.00  0.00    +0.058 C 
ATOM     12  C   UNL     1      -0.014 -11.070  -3.704  0.00  0.00    +0.094 C 
ATOM     13  C   UNL     1      -1.138 -10.158  -3.207  0.00  0.00    +0.058 C 
ATOM     14  C   UNL     1      -0.564  -9.150  -2.199  0.00  0.00    +0.111 C 
BRANCH  12  15
ATOM     15  C   UNL     1      -0.579 -12.084  -4.665  0.00  0.00    -0.016 A 
ATOM     16  C   UNL     1      -0.626 -11.803  -6.018  0.00  0.00    +0.008 A 
ATOM     17  C   UNL     1      -1.144 -12.732  -6.900  0.00  0.00    +0.020 A 
ATOM     18  C   UNL     1      -1.615 -13.945  -6.429  0.00  0.00    +0.041 A 
ATOM     19  C   UNL     1      -1.567 -14.226  -5.075  0.00  0.00    +0.020 A 
ATOM     20  C   UNL     1      -1.044 -13.298  -4.195  0.00  0.00    +0.008 A 
ATOM     21 CL   UNL     1      -2.266 -15.113  -7.536  0.00  0.00    -0.084 Cl
ENDBRANCH  12  15
BRANCH  12  22
ATOM     22  O   UNL     1       0.578 -11.746  -2.593  0.00  0.00    -0.384 OA
ATOM     23  H   UNL     1      -0.040 -12.298  -2.094  0.00  0.00    +0.211 HD
ENDBRANCH  12  22
ENDBRANCH   4   7
BRANCH   1  24
ATOM     24  C   UNL     1       2.349  -3.841  -0.168  0.00  0.00    +0.129 C 
BRANCH  24  33
ATOM     25  C   UNL     1      -0.619   1.520  -0.703  0.00  0.00    +0.001 A 
ATOM     26  C   UNL     1       0.527   2.304  -0.697  0.00  0.00    +0.002 A 
ATOM     27  C   UNL     1       1.774   1.730  -0.590  0.00  0.00    +0.028 A 
ATOM     28  C   UNL     1       1.889   0.342  -0.486  0.00  0.00    +0.078 A 
ATOM     29  C   UNL     1       0.721  -0.452  -0.492  0.00  0.00    +0.065 A 
ATOM     30  C   UNL     1      -0.531   0.149  -0.601  0.00  0.00    +0.015 A 
ATOM     31  C   UNL     1       0.877  -1.910  -0.381  0.00  0.00    +0.262 A 
ATOM     32  O   UNL     1      -0.089  -2.651  -0.381  0.00  0.00    -0.267 OA
ATOM     33  N   UNL     1       2.136  -2.396  -0.281  0.00  0.00    -0.298 N 
ATOM     34  C   UNL     1       3.204  -1.556  -0.283  0.00  0.00    +0.202 A 
ATOM     35  N   UNL     1       3.097  -0.266  -0.379  0.00  0.00    -0.237 NA
ENDBRANCH  24  33
ENDBRANCH   1  24
TORSDOF 5
