REMARK  Name = ZINC63384182
REMARK  8 active torsions:
REMARK  status: ('A' for Active; 'I' for Inactive)
REMARK    1  A    between atoms: C_1  and  S_2
REMARK    2  A    between atoms: S_2  and  C_3
REMARK    3  A    between atoms: C_3  and  C_4
REMARK    4  A    between atoms: C_4  and  C_5
REMARK    5  A    between atoms: C_5  and  C_7
REMARK    6  A    between atoms: C_5  and  N_16
REMARK    7  A    between atoms: N_9  and  C_10
REMARK    8  A    between atoms: C_17  and  C_19
REMARK                            x       y       z     vdW  Elec       q    Type
REMARK                         _______ _______ _______ _____ _____    ______ ____
ROOT
ATOM      1  C   UNL     1       0.194  -0.127  -5.733  0.00  0.00    +0.167 C 
ATOM      2  C   UNL     1      -1.297  -0.427  -5.481  0.00  0.00    +0.065 C 
ATOM      3  C   UNL     1      -1.994  -0.360  -6.818  0.00  0.00    -0.034 C 
ATOM      4  C   UNL     1      -3.060   0.332  -7.206  0.00  0.00    -0.001 A 
ATOM      5  C   UNL     1      -3.991   1.192  -6.460  0.00  0.00    +0.010 A 
ATOM      6  C   UNL     1      -4.983   1.774  -7.187  0.00  0.00    +0.001 A 
ATOM      7  C   UNL     1      -5.138   1.587  -8.564  0.00  0.00    +0.002 A 
ATOM      8  C   UNL     1      -4.333   0.805  -9.327  0.00  0.00    +0.026 A 
ATOM      9  C   UNL     1      -3.259   0.134  -8.674  0.00  0.00    +0.043 A 
ATOM     10  N   UNL     1      -2.363  -0.680  -9.148  0.00  0.00    -0.375 N 
ATOM     11  C   UNL     1      -1.522  -1.140  -8.040  0.00  0.00    +0.131 C 
ATOM     12  C   UNL     1      -0.051  -0.765  -8.254  0.00  0.00    +0.134 C 
ATOM     13  N   UNL     1       0.618  -0.853  -6.937  0.00  0.00    -0.276 N 
ATOM     14  C   UNL     1       1.653  -1.707  -7.036  0.00  0.00    +0.248 C 
ATOM     15  O   UNL     1       2.454  -1.934  -6.150  0.00  0.00    -0.270 OA
ATOM     16  C   UNL     1       1.674  -2.323  -8.364  0.00  0.00    +0.042 A 
ATOM     17  C   UNL     1       0.625  -1.751  -9.151  0.00  0.00    -0.013 A 
ATOM     18  C   UNL     1       0.386  -2.120 -10.456  0.00  0.00    +0.006 A 
ATOM     19  C   UNL     1       1.226  -3.085 -11.004  0.00  0.00    +0.000 A 
ATOM     20  C   UNL     1       2.255  -3.651 -10.278  0.00  0.00    +0.001 A 
ATOM     21  C   UNL     1       2.519  -3.295  -8.905  0.00  0.00    +0.013 A 
ATOM     22  H   UNL     1      -2.267  -0.939 -10.077  0.00  0.00    +0.160 HD
ENDROOT
BRANCH   1  24
ATOM     23  N   UNL     1       1.120  -1.898  -4.276  0.00  0.00    -0.302 N 
ATOM     24  C   UNL     1       1.010  -0.583  -4.552  0.00  0.00    +0.235 C 
ATOM     25  O   UNL     1       1.568   0.232  -3.848  0.00  0.00    -0.274 OA
ATOM     26  H   UNL     1       0.674  -2.550  -4.839  0.00  0.00    +0.150 HD
BRANCH  23  27
ATOM     27  C   UNL     1       1.914  -2.342  -3.128  0.00  0.00    +0.160 C 
BRANCH  27  28
ATOM     28  C   UNL     1       2.392  -3.752  -3.362  0.00  0.00    +0.234 C 
ATOM     29  O   UNL     1       2.099  -4.329  -4.388  0.00  0.00    -0.274 OA
ATOM     30  N   UNL     1       3.146  -4.371  -2.432  0.00  0.00    -0.311 N 
ATOM     31  H   UNL     1       3.380  -3.909  -1.612  0.00  0.00    +0.149 HD
BRANCH  30  32
ATOM     32  C   UNL     1       3.611  -5.741  -2.660  0.00  0.00    +0.073 C 
ATOM     33  C   UNL     1       2.525  -6.728  -2.225  0.00  0.00    +0.022 C 
ATOM     34  C   UNL     1       3.011  -8.159  -2.464  0.00  0.00    +0.002 C 
ATOM     35  C   UNL     1       4.282  -8.408  -1.649  0.00  0.00    +0.000 C 
ATOM     36  C   UNL     1       5.368  -7.422  -2.084  0.00  0.00    +0.002 C 
ATOM     37  C   UNL     1       4.882  -5.991  -1.846  0.00  0.00    +0.022 C 
ENDBRANCH  30  32
ENDBRANCH  27  28
BRANCH  27  38
ATOM     38  C   UNL     1       1.051  -2.300  -1.865  0.00  0.00    +0.042 C 
BRANCH  38  39
ATOM     39  C   UNL     1       0.669  -0.851  -1.557  0.00  0.00    +0.071 C 
BRANCH  39  41
ATOM     40  C   UNL     1      -0.718   0.962   0.165  0.00  0.00    +0.084 C 
ATOM     41  S   UNL     1      -0.354  -0.801  -0.060  0.00  0.00    -0.164 S 
ENDBRANCH  39  41
ENDBRANCH  38  39
ENDBRANCH  27  38
ENDBRANCH  23  27
ENDBRANCH   1  24
TORSDOF 7
