REMARK  Name = ZINC19113278
REMARK  9 active torsions:
REMARK  status: ('A' for Active; 'I' for Inactive)
REMARK    1  A    between atoms: C_1  and  N_54
REMARK    2  A    between atoms: C_2  and  C_30
REMARK    3  A    between atoms: C_5  and  C_16
REMARK    4  A    between atoms: C_7  and  C_9
REMARK    5  A    between atoms: C_16  and  N_56
REMARK    6  A    between atoms: C_17  and  C_18
REMARK    7  A    between atoms: C_17  and  N_56
REMARK    8  A    between atoms: N_21  and  C_23
REMARK    9  A    between atoms: C_30  and  O_31
REMARK                            x       y       z     vdW  Elec       q    Type
REMARK                         _______ _______ _______ _____ _____    ______ ____
ROOT
ATOM      1  C   UNL     1      -1.488   3.808  -0.539  0.00  0.00    -0.095 C 
ATOM      2  C   UNL     1      -0.753   1.593  -1.232  0.00  0.00    -0.042 C 
ATOM      3  C   UNL     1      -0.125   1.006  -2.521  0.00  0.00    -0.013 C 
ATOM      4  C   UNL     1      -0.522   2.040  -3.600  0.00  0.00    -0.039 C 
ATOM      5  C   UNL     1      -0.812   3.339  -2.825  0.00  0.00    -0.033 C 
ATOM      6  N   UNL     1      -0.554   3.039  -1.416  0.00  0.00    +0.386 N 
ATOM      7  H   UNL     1       0.413   3.289  -1.179  0.00  0.00    -0.081 HD
ENDROOT
BRANCH   5   8
ATOM      8  C   UNL     1       0.102   4.438  -3.304  0.00  0.00    -0.026 A 
ATOM      9  C   UNL     1       1.282   4.696  -2.633  0.00  0.00    +0.005 A 
ATOM     10  C   UNL     1       2.121   5.704  -3.072  0.00  0.00    +0.000 A 
ATOM     11  C   UNL     1       1.780   6.453  -4.183  0.00  0.00    +0.003 A 
ATOM     12  C   UNL     1       0.601   6.196  -4.855  0.00  0.00    +0.038 A 
ATOM     13  C   UNL     1      -0.238   5.184  -4.419  0.00  0.00    +0.125 A 
ATOM     14  F   UNL     1      -1.389   4.928  -5.079  0.00  0.00    -0.205 F 
ENDBRANCH   5   8
BRANCH   4  15
ATOM     15  C   UNL     1       0.632   2.254  -4.581  0.00  0.00    -0.080 C 
BRANCH  15  16
ATOM     16  N   UNL     1       0.853   1.012  -5.345  0.00  0.00    +0.382 N 
ATOM     17  H   UNL     1      -0.003   0.774  -5.860  0.00  0.00    -0.085 HD
ATOM     18  H   UNL     1       1.084   0.251  -4.695  0.00  0.00    -0.085 HD
BRANCH  16  19
ATOM     19  C   UNL     1       1.963   1.189  -6.301  0.00  0.00    -0.044 C 
BRANCH  19  20
ATOM     20  C   UNL     1       2.165  -0.094  -7.066  0.00  0.00    -0.027 A 
ATOM     21  C   UNL     1       1.543  -0.441  -8.270  0.00  0.00    +0.136 A 
ATOM     22  N   UNL     1       1.969  -1.627  -8.624  0.00  0.00    -0.175 NA
ATOM     23  N   UNL     1       2.878  -2.073  -7.656  0.00  0.00    -0.237 N 
ATOM     24  C   UNL     1       2.986  -1.110  -6.713  0.00  0.00    +0.116 A 
BRANCH  23  25
ATOM     25  C   UNL     1       3.561  -3.298  -7.667  0.00  0.00    +0.100 A 
ATOM     26  C   UNL     1       3.361  -4.196  -8.706  0.00  0.00    +0.031 A 
ATOM     27  C   UNL     1       4.035  -5.402  -8.715  0.00  0.00    +0.002 A 
ATOM     28  C   UNL     1       4.909  -5.716  -7.690  0.00  0.00    +0.003 A 
ATOM     29  C   UNL     1       5.111  -4.824  -6.652  0.00  0.00    +0.040 A 
ATOM     30  C   UNL     1       4.443  -3.613  -6.640  0.00  0.00    +0.149 A 
ATOM     31  F   UNL     1       4.645  -2.739  -5.629  0.00  0.00    -0.203 F 
ENDBRANCH  23  25
ENDBRANCH  19  20
ENDBRANCH  16  19
ENDBRANCH  15  16
ENDBRANCH   4  15
BRANCH   2  32
ATOM     32  C   UNL     1      -0.013   1.086   0.008  0.00  0.00    +0.140 C 
BRANCH  32  33
ATOM     33  O   UNL     1      -0.682   1.547   1.184  0.00  0.00    -0.397 OA
ATOM     34  H   UNL     1      -0.266   1.262   2.009  0.00  0.00    +0.209 HD
ENDBRANCH  32  33
ENDBRANCH   2  32
TORSDOF 8
