REMARK  Name = ZINC39452043
REMARK  6 active torsions:
REMARK  status: ('A' for Active; 'I' for Inactive)
REMARK    1  A    between atoms: C_1  and  S_2
REMARK    2  A    between atoms: S_2  and  N_3
REMARK    3  A    between atoms: C_11  and  O_14
REMARK    4  A    between atoms: C_16  and  S_21
REMARK    5  A    between atoms: S_21  and  O_24
REMARK    6  A    between atoms: O_24  and  C_25
REMARK                            x       y       z     vdW  Elec       q    Type
REMARK                         _______ _______ _______ _____ _____    ______ ____
ROOT
ATOM      1  N   UNL     1       0.968  -0.515   1.910  0.00  0.00    -0.245 N 
ATOM      2  C   UNL     1       2.337  -0.717   1.790  0.00  0.00    +0.122 A 
ATOM      3  C   UNL     1       3.069  -1.266   2.827  0.00  0.00    +0.083 A 
ATOM      4  C   UNL     1       2.395  -1.634   4.079  0.00  0.00    +0.099 A 
ATOM      5  C   UNL     1       1.003  -1.417   4.176  0.00  0.00    +0.071 A 
ATOM      6  C   UNL     1       0.293  -0.830   3.031  0.00  0.00    +0.271 A 
ATOM      7  O   UNL     1      -0.906  -0.632   3.095  0.00  0.00    -0.266 OA
ATOM      8  C   UNL     1       0.339  -1.760   5.354  0.00  0.00    +0.062 A 
ATOM      9  C   UNL     1       1.089  -2.305   6.389  0.00  0.00    +0.136 A 
ATOM     10  C   UNL     1       2.460  -2.489   6.219  0.00  0.00    +0.156 A 
ATOM     11  N   UNL     1       3.064  -2.158   5.099  0.00  0.00    -0.249 NA
ATOM     12  N   UNL     1       4.427  -1.471   2.680  0.00  0.00    -0.317 N 
ATOM     13  C   UNL     1       4.959  -1.668   1.322  0.00  0.00    +0.263 C 
ATOM     14  C   UNL     1       4.479  -0.506   0.446  0.00  0.00    +0.130 C 
ATOM     15  C   UNL     1       2.986  -0.357   0.588  0.00  0.00    +0.186 C 
ATOM     16  O   UNL     1       2.335   0.077  -0.341  0.00  0.00    -0.290 OA
ATOM     17  H   UNL     1       5.015  -1.484   3.451  0.00  0.00    +0.148 HD
ENDROOT
BRANCH  13  18
ATOM     18  S   UNL     1       4.348  -3.238   0.648  0.00  0.00    +0.140 S 
ATOM     19  O   UNL     1       4.930  -4.330   1.346  0.00  0.00    -0.135 OA
ATOM     20  O   UNL     1       2.942  -3.171   0.450  0.00  0.00    -0.135 OA
BRANCH  18  21
ATOM     21  O   UNL     1       4.935  -3.316  -0.754  0.00  0.00    -0.345 OA
BRANCH  21  22
ATOM     22  C   UNL     1       6.256  -3.632  -0.783  0.00  0.00    +0.156 A 
ATOM     23  C   UNL     1       7.212  -2.626  -0.769  0.00  0.00    +0.048 A 
ATOM     24  C   UNL     1       8.554  -2.950  -0.798  0.00  0.00    +0.004 A 
ATOM     25  C   UNL     1       8.946  -4.275  -0.842  0.00  0.00    +0.000 A 
ATOM     26  C   UNL     1       7.996  -5.279  -0.857  0.00  0.00    +0.004 A 
ATOM     27  C   UNL     1       6.652  -4.961  -0.821  0.00  0.00    +0.048 A 
ENDBRANCH  21  22
ENDBRANCH  18  21
ENDBRANCH  13  18
BRANCH   1  29
ATOM     28  C   UNL     1       0.221   1.928   0.931  0.00  0.00    +0.110 C 
ATOM     29  S   UNL     1       0.140   0.141   0.634  0.00  0.00    -0.044 S 
ENDBRANCH   1  29
BRANCH   9  30
ATOM     30  O   UNL     1       0.491  -2.655   7.556  0.00  0.00    -0.505 OA
ATOM     31  H   UNL     1       0.169  -3.567   7.576  0.00  0.00    +0.292 HD
ENDBRANCH   9  30
TORSDOF 5
