REMARK  Name = ZINC01955403
REMARK  11 active torsions:
REMARK  status: ('A' for Active; 'I' for Inactive)
REMARK    1  A    between atoms: C_1  and  C_2
REMARK    2  A    between atoms: C_2  and  C_3
REMARK    3  A    between atoms: C_3  and  C_4
REMARK    4  A    between atoms: C_4  and  C_5
REMARK    5  A    between atoms: C_4  and  C_8
REMARK    6  A    between atoms: C_4  and  O_30
REMARK    7  A    between atoms: C_5  and  C_6
REMARK    8  A    between atoms: C_6  and  C_7
REMARK    9  A    between atoms: N_10  and  N_11
REMARK   10  A    between atoms: N_11  and  C_12
REMARK   11  A    between atoms: N_20  and  C_21
REMARK                            x       y       z     vdW  Elec       q    Type
REMARK                         _______ _______ _______ _____ _____    ______ ____
ROOT
ATOM      1  N   UNL     1       2.823  -4.887  -3.849  0.00  0.00    -0.172 N 
ATOM      2  C   UNL     1       2.142  -5.875  -4.462  0.00  0.00    +0.327 C 
ATOM      3  O   UNL     1       2.683  -6.545  -5.321  0.00  0.00    -0.250 OA
ATOM      4  N   UNL     1       0.861  -6.121  -4.123  0.00  0.00    -0.267 N 
ATOM      5  H   UNL     1       0.406  -5.543  -3.491  0.00  0.00    +0.156 HD
ENDROOT
BRANCH   4   6
ATOM      6  C   UNL     1       0.182  -7.219  -4.687  0.00  0.00    +0.045 A 
ATOM      7  C   UNL     1       0.855  -8.113  -5.452  0.00  0.00    +0.069 A 
ATOM      8  S   UNL     1      -0.438  -9.263  -5.898  0.00  0.00    -0.099 S 
ATOM      9  C   UNL     1      -1.770  -8.473  -5.036  0.00  0.00    -0.005 A 
ATOM     10  C   UNL     1      -1.186  -7.391  -4.453  0.00  0.00    -0.016 A 
ATOM     11  C   UNL     1      -2.015  -6.434  -3.602  0.00  0.00    +0.038 C 
ATOM     12  C   UNL     1      -3.494  -6.637  -3.930  0.00  0.00    +0.005 C 
ATOM     13  C   UNL     1      -3.863  -8.117  -3.797  0.00  0.00    +0.005 C 
ATOM     14  C   UNL     1      -3.203  -8.889  -4.954  0.00  0.00    +0.043 C 
ENDBRANCH   4   6
BRANCH   1  15
ATOM     15  C   UNL     1       4.115  -4.560  -4.274  0.00  0.00    +0.058 A 
ATOM     16  C   UNL     1       5.082  -4.197  -3.345  0.00  0.00    +0.025 A 
ATOM     17  C   UNL     1       6.357  -3.874  -3.768  0.00  0.00    +0.002 A 
ATOM     18  C   UNL     1       6.671  -3.913  -5.114  0.00  0.00    +0.000 A 
ATOM     19  C   UNL     1       5.710  -4.274  -6.041  0.00  0.00    +0.002 A 
ATOM     20  C   UNL     1       4.435  -4.603  -5.624  0.00  0.00    +0.025 A 
ENDBRANCH   1  15
BRANCH   1  23
ATOM     21  C   UNL     1       1.776  -2.935  -2.976  0.00  0.00    +0.261 C 
ATOM     22  O   UNL     1       1.868  -2.414  -4.067  0.00  0.00    -0.271 OA
ATOM     23  N   UNL     1       2.237  -4.187  -2.785  0.00  0.00    -0.224 N 
ATOM     24  H   UNL     1       2.163  -4.604  -1.913  0.00  0.00    +0.174 HD
BRANCH  21  25
ATOM     25  C   UNL     1       1.146  -2.183  -1.832  0.00  0.00    +0.143 C 
BRANCH  25  26
ATOM     26  O   UNL     1       1.808  -2.526  -0.613  0.00  0.00    -0.379 OA
ATOM     27  H   UNL     1       2.752  -2.317  -0.606  0.00  0.00    +0.211 HD
ENDBRANCH  25  26
BRANCH  25  28
ATOM     28  C   UNL     1       1.277  -0.678  -2.078  0.00  0.00    +0.044 C 
BRANCH  28  30
ATOM     29  C   UNL     1       2.891   1.181  -2.505  0.00  0.00    +0.004 C 
ATOM     30  C   UNL     1       2.758  -0.299  -2.139  0.00  0.00    -0.000 C 
ENDBRANCH  28  30
ENDBRANCH  25  28
BRANCH  25  31
ATOM     31  C   UNL     1      -0.335  -2.555  -1.731  0.00  0.00    +0.044 C 
BRANCH  31  32
ATOM     32  C   UNL     1      -0.969  -1.810  -0.554  0.00  0.00    -0.000 C 
ATOM     33  C   UNL     1      -2.473  -2.091  -0.523  0.00  0.00    +0.004 C 
ENDBRANCH  31  32
ENDBRANCH  25  31
ENDBRANCH  21  25
ENDBRANCH   1  23
TORSDOF 9
