REMARK  Name = ZINC44021297
REMARK  4 active torsions:
REMARK  status: ('A' for Active; 'I' for Inactive)
REMARK    1  A    between atoms: C_1  and  C_2
REMARK    2  A    between atoms: C_8  and  N_10
REMARK    3  A    between atoms: N_10  and  C_11
REMARK    4  A    between atoms: N_15  and  C_20
REMARK                            x       y       z     vdW  Elec       q    Type
REMARK                         _______ _______ _______ _____ _____    ______ ____
ROOT
ATOM      1  C   UNL     1       0.749   0.093   3.623  0.00  0.00    +0.105 A 
ATOM      2  C   UNL     1       0.141   0.626   4.726  0.00  0.00    +0.112 A 
ATOM      3  C   UNL     1       0.876   0.753   5.915  0.00  0.00    +0.259 A 
ATOM      4  O   UNL     1       0.354   1.225   6.910  0.00  0.00    -0.267 OA
ATOM      5  N   UNL     1       2.162   0.351   5.949  0.00  0.00    -0.255 N 
ATOM      6  C   UNL     1       2.745  -0.171   4.854  0.00  0.00    +0.331 A 
ATOM      7  O   UNL     1       3.906  -0.527   4.907  0.00  0.00    -0.246 OA
ATOM      8  N   UNL     1       2.060  -0.309   3.704  0.00  0.00    -0.296 N 
ATOM      9  H   UNL     1       2.496  -0.692   2.926  0.00  0.00    +0.172 HD
ENDROOT
BRANCH   5  10
ATOM     10  C   UNL     1       2.932   0.484   7.188  0.00  0.00    +0.054 C 
ATOM     11  C   UNL     1       4.142   1.387   6.943  0.00  0.00    +0.032 C 
ATOM     12  C   UNL     1       4.946   1.526   8.237  0.00  0.00    -0.008 C 
ATOM     13  C   UNL     1       4.061   2.142   9.323  0.00  0.00    +0.007 C 
ATOM     14  C   UNL     1       2.851   1.239   9.569  0.00  0.00    -0.008 C 
ATOM     15  C   UNL     1       2.047   1.100   8.274  0.00  0.00    +0.032 C 
ATOM     16  C   UNL     1       3.329  -0.142  10.023  0.00  0.00    +0.007 C 
ATOM     17  C   UNL     1       4.213  -0.758   8.937  0.00  0.00    -0.008 C 
ATOM     18  C   UNL     1       5.424   0.145   8.691  0.00  0.00    +0.007 C 
ATOM     19  C   UNL     1       3.409  -0.897   7.642  0.00  0.00    +0.032 C 
ENDBRANCH   5  10
BRANCH   1  20
ATOM     20  N   UNL     1       0.055  -0.043   2.448  0.00  0.00    -0.327 N 
ATOM     21  H   UNL     1      -0.871   0.242   2.396  0.00  0.00    +0.148 HD
BRANCH  20  28
ATOM     22  C   UNL     1       0.111   1.408  -0.058  0.00  0.00    +0.009 C 
ATOM     23  C   UNL     1       0.019  -0.118   0.004  0.00  0.00    +0.006 C 
ATOM     24  C   UNL     1       0.704  -0.721  -1.224  0.00  0.00    +0.005 C 
ATOM     25  C   UNL     1       0.611  -2.247  -1.163  0.00  0.00    +0.000 C 
ATOM     26  C   UNL     1       1.304  -2.749   0.106  0.00  0.00    +0.002 C 
ATOM     27  C   UNL     1       0.619  -2.146   1.334  0.00  0.00    +0.022 C 
ATOM     28  C   UNL     1       0.711  -0.621   1.272  0.00  0.00    +0.074 C 
ENDBRANCH  20  28
ENDBRANCH   1  20
TORSDOF 3
