REMARK  Name = ZINC16556528
REMARK  8 active torsions:
REMARK  status: ('A' for Active; 'I' for Inactive)
REMARK    1  A    between atoms: C_1  and  C_2
REMARK    2  A    between atoms: C_2  and  C_28
REMARK    3  A    between atoms: N_5  and  C_9
REMARK    4  A    between atoms: C_9  and  C_10
REMARK    5  A    between atoms: C_20  and  S_22
REMARK    6  A    between atoms: S_22  and  N_25
REMARK    7  A    between atoms: N_25  and  C_26
REMARK    8  A    between atoms: N_25  and  C_27
REMARK                            x       y       z     vdW  Elec       q    Type
REMARK                         _______ _______ _______ _____ _____    ______ ____
ROOT
ATOM      1  C   UNL     1      -1.509   3.282   6.340  0.00  0.00    +0.238 C 
ATOM      2  O   UNL     1      -0.399   2.796   6.287  0.00  0.00    -0.274 OA
ATOM      3  N   UNL     1      -2.269   3.346   5.229  0.00  0.00    -0.270 N 
ATOM      4  C   UNL     1      -3.662   3.808   5.303  0.00  0.00    +0.114 C 
ATOM      5  C   UNL     1      -4.518   2.854   4.459  0.00  0.00    +0.024 C 
ATOM      6  C   UNL     1      -4.070   2.948   3.001  0.00  0.00    +0.038 C 
ATOM      7  C   UNL     1      -2.578   2.768   2.895  0.00  0.00    -0.024 A 
ATOM      8  C   UNL     1      -1.745   2.972   3.984  0.00  0.00    +0.040 A 
ATOM      9  C   UNL     1      -0.372   2.803   3.850  0.00  0.00    +0.026 A 
ATOM     10  C   UNL     1       0.164   2.430   2.633  0.00  0.00    +0.030 A 
ATOM     11  C   UNL     1      -0.668   2.225   1.548  0.00  0.00    +0.106 A 
ATOM     12  C   UNL     1      -2.033   2.398   1.677  0.00  0.00    +0.034 A 
ENDROOT
BRANCH  11  13
ATOM     13  S   UNL     1       0.015   1.750  -0.005  0.00  0.00    +0.060 S 
ATOM     14  O   UNL     1       1.366   2.189  -0.006  0.00  0.00    -0.153 OA
ATOM     15  O   UNL     1      -0.918   2.151  -0.999  0.00  0.00    -0.153 OA
BRANCH  13  16
ATOM     16  N   UNL     1       0.056   0.094  -0.035  0.00  0.00    -0.183 NA
ATOM     17  C   UNL     1      -1.089  -0.658  -0.554  0.00  0.00    +0.131 C 
ATOM     18  C   UNL     1       1.238  -0.618   0.457  0.00  0.00    +0.131 C 
ENDBRANCH  13  16
ENDBRANCH  11  13
BRANCH   1  19
ATOM     19  C   UNL     1      -2.037   3.815   7.646  0.00  0.00    +0.214 C 
BRANCH  19  24
ATOM     20  C   UNL     1       2.239   4.140   9.563  0.00  0.00    +0.047 C 
ATOM     21  C   UNL     1       0.784   4.228  10.027  0.00  0.00    +0.135 C 
ATOM     22  C   UNL     1      -0.103   4.736   8.907  0.00  0.00    +0.251 C 
ATOM     23  O   UNL     1      -0.032   5.809   8.348  0.00  0.00    -0.272 OA
ATOM     24  N   UNL     1      -0.985   3.747   8.663  0.00  0.00    -0.215 N 
ATOM     25  C   UNL     1      -0.784   2.697   9.467  0.00  0.00    +0.310 C 
ATOM     26  O   UNL     1      -1.456   1.685   9.438  0.00  0.00    -0.252 OA
ATOM     27  N   UNL     1       0.248   2.885  10.310  0.00  0.00    -0.281 N 
ATOM     28  H   UNL     1       0.574   2.260  10.976  0.00  0.00    +0.152 HD
BRANCH  21  29
ATOM     29  C   UNL     1       0.665   5.113  11.241  0.00  0.00    -0.015 A 
ATOM     30  C   UNL     1       0.388   6.458  11.090  0.00  0.00    +0.009 A 
ATOM     31  C   UNL     1       0.273   7.270  12.203  0.00  0.00    +0.039 A 
ATOM     32  C   UNL     1       0.448   6.737  13.468  0.00  0.00    +0.123 A 
ATOM     33  C   UNL     1       0.731   5.390  13.618  0.00  0.00    +0.039 A 
ATOM     34  C   UNL     1       0.839   4.579  12.504  0.00  0.00    +0.009 A 
ATOM     35  F   UNL     1       0.342   7.530  14.557  0.00  0.00    -0.205 F 
ENDBRANCH  21  29
ENDBRANCH  19  24
ENDBRANCH   1  19
TORSDOF 5
