REMARK  Name = ZINC22063134
REMARK  11 active torsions:
REMARK  status: ('A' for Active; 'I' for Inactive)
REMARK    1  A    between atoms: C_1  and  C_2
REMARK    2  A    between atoms: C_2  and  C_4
REMARK    3  A    between atoms: C_2  and  C_10
REMARK    4  A    between atoms: C_4  and  C_5
REMARK    5  A    between atoms: C_5  and  C_6
REMARK    6  A    between atoms: C_6  and  O_8
REMARK    7  A    between atoms: O_8  and  C_9
REMARK    8  A    between atoms: C_16  and  C_41
REMARK    9  A    between atoms: C_17  and  O_40
REMARK   10  A    between atoms: C_24  and  O_39
REMARK   11  A    between atoms: C_29  and  C_38
REMARK                            x       y       z     vdW  Elec       q    Type
REMARK                         _______ _______ _______ _____ _____    ______ ____
ROOT
ATOM      1  C   UNL     1      -0.984   0.265  -0.639  0.00  0.00    +0.001 C 
ATOM      2  C   UNL     1       0.199   1.039  -1.265  0.00  0.00    +0.005 C 
ATOM      3  C   UNL     1       0.561   2.168  -0.265  0.00  0.00    +0.005 C 
ATOM      4  C   UNL     1       0.041   1.631   1.076  0.00  0.00    +0.003 C 
ATOM      5  C   UNL     1      -1.321   1.002   0.657  0.00  0.00    +0.000 C 
ATOM      6  C   UNL     1      -1.751   0.118   1.809  0.00  0.00    +0.121 C 
ATOM      7  C   UNL     1      -1.897   0.926   3.082  0.00  0.00    +0.036 C 
ATOM      8  C   UNL     1      -0.984   2.096   3.297  0.00  0.00    +0.003 C 
ATOM      9  C   UNL     1      -0.301   2.701   2.094  0.00  0.00    +0.025 C 
ATOM     10  C   UNL     1       0.940   3.484   2.504  0.00  0.00    +0.118 C 
ATOM     11  C   UNL     1       2.003   2.542   3.054  0.00  0.00    +0.036 C 
ATOM     12  C   UNL     1       1.365   1.371   3.804  0.00  0.00    +0.003 C 
ATOM     13  C   UNL     1       0.027   1.787   4.409  0.00  0.00    -0.026 C 
ATOM     14  C   UNL     1      -0.551   0.645   5.252  0.00  0.00    +0.012 C 
ATOM     15  C   UNL     1       0.426   0.260   6.361  0.00  0.00    +0.065 C 
ATOM     16  C   UNL     1       1.740  -0.202   5.726  0.00  0.00    +0.170 C 
ATOM     17  C   UNL     1       2.336   0.944   4.911  0.00  0.00    +0.069 C 
ATOM     18  O   UNL     1       1.489  -1.326   4.868  0.00  0.00    -0.346 OA
ATOM     19  C   UNL     1       2.654  -2.173   5.018  0.00  0.00    +0.191 C 
ATOM     20  C   UNL     1       2.992  -1.980   6.518  0.00  0.00    +0.191 C 
ATOM     21  O   UNL     1       2.658  -0.597   6.753  0.00  0.00    -0.346 OA
ATOM     22  C   UNL     1       0.225   3.023   5.288  0.00  0.00    +0.012 C 
ATOM     23  C   UNL     1      -2.357   2.097   0.393  0.00  0.00    +0.014 C 
ENDROOT
BRANCH   1  25
ATOM     24  C   UNL     1      -3.350  -0.478  -0.944  0.00  0.00    +0.008 C 
ATOM     25  C   UNL     1      -2.186   0.280  -1.585  0.00  0.00    -0.010 C 
BRANCH  25  26
ATOM     26  C   UNL     1      -1.804  -0.393  -2.905  0.00  0.00    +0.014 C 
BRANCH  26  27
ATOM     27  C   UNL     1      -2.964  -0.267  -3.896  0.00  0.00    +0.121 C 
BRANCH  27  28
ATOM     28  C   UNL     1      -2.588  -0.930  -5.196  0.00  0.00    +0.307 C 
ATOM     29  O   UNL     1      -1.504  -1.450  -5.318  0.00  0.00    -0.251 OA
BRANCH  28  30
ATOM     30  O   UNL     1      -3.458  -0.943  -6.218  0.00  0.00    -0.468 OA
ATOM     31  C   UNL     1      -3.028  -1.600  -7.440  0.00  0.00    +0.280 C 
ENDBRANCH  28  30
ENDBRANCH  27  28
ENDBRANCH  26  27
ENDBRANCH  25  26
ENDBRANCH   1  25
BRANCH  10  32
ATOM     32  O   UNL     1       1.462   4.173   1.366  0.00  0.00    -0.391 OA
ATOM     33  H   UNL     1       2.364   4.796   1.466  0.00  0.00    +0.210 HD
ENDBRANCH  10  32
BRANCH   6  34
ATOM     34  O   UNL     1      -0.771  -0.903   2.010  0.00  0.00    -0.391 OA
ATOM     35  H   UNL     1      -0.909  -1.648   2.808  0.00  0.00    +0.210 HD
ENDBRANCH   6  34
TORSDOF 7
