REMARK  Name = ZINC26578805
REMARK  7 active torsions:
REMARK  status: ('A' for Active; 'I' for Inactive)
REMARK    1  A    between atoms: C_1  and  N_2
REMARK    2  A    between atoms: N_2  and  C_3
REMARK    3  A    between atoms: C_3  and  C_4
REMARK    4  A    between atoms: C_4  and  C_6
REMARK    5  A    between atoms: C_4  and  C_23
REMARK    6  A    between atoms: C_6  and  C_7
REMARK    7  A    between atoms: C_7  and  N_8
REMARK                            x       y       z     vdW  Elec       q    Type
REMARK                         _______ _______ _______ _____ _____    ______ ____
ROOT
ATOM      1  C   UNL     1       7.695   3.435  -0.787  0.00  0.00    -0.078 C 
ENDROOT
BRANCH   1   2
ATOM      2  N   UNL     1       6.489   2.605  -0.669  0.00  0.00    +0.380 N 
ATOM      3  C   UNL     1       6.104   2.433   0.738  0.00  0.00    -0.078 C 
ATOM      4  C   UNL     1       4.936   1.448   0.832  0.00  0.00    -0.006 C 
ATOM      5  C   UNL     1       3.754   1.989   0.021  0.00  0.00    +0.005 C 
ATOM      6  C   UNL     1       4.195   2.204  -1.431  0.00  0.00    -0.006 C 
ATOM      7  C   UNL     1       5.385   3.166  -1.458  0.00  0.00    -0.078 C 
ATOM      8  C   UNL     1       3.329   3.352   0.615  0.00  0.00    +0.120 C 
ATOM      9  S   UNL     1       1.521   3.277   0.283  0.00  0.00    +0.055 S 
ATOM     10  O   UNL     1       1.261   3.741  -1.035  0.00  0.00    -0.252 OA
ATOM     11  C   UNL     1       1.342   1.510   0.159  0.00  0.00    +0.043 A 
ATOM     12  C   UNL     1       2.622   0.990   0.058  0.00  0.00    -0.025 A 
ATOM     13  C   UNL     1       2.741  -0.402  -0.012  0.00  0.00    +0.005 A 
ATOM     14  C   UNL     1       1.629  -1.213   0.009  0.00  0.00    +0.000 A 
ATOM     15  C   UNL     1       0.362  -0.668   0.095  0.00  0.00    +0.001 A 
ATOM     16  C   UNL     1       0.226   0.707   0.169  0.00  0.00    +0.017 A 
ATOM     17  H   UNL     1       6.719   1.610  -1.077  0.00  0.00    -0.082 HD
ENDBRANCH   1   2
BRANCH   1  18
ATOM     18  C   UNL     1       7.922   3.799  -2.256  0.00  0.00    -0.012 C 
BRANCH  18  19
ATOM     19  C   UNL     1       9.252   4.543  -2.397  0.00  0.00    +0.000 C 
BRANCH  19  20
ATOM     20  C   UNL     1      10.386   3.616  -2.044  0.00  0.00    -0.045 A 
ATOM     21  C   UNL     1      11.236   3.930  -1.000  0.00  0.00    +0.005 A 
ATOM     22  C   UNL     1      12.277   3.081  -0.675  0.00  0.00    +0.022 A 
ATOM     23  C   UNL     1      12.469   1.915  -1.395  0.00  0.00    +0.059 A 
ATOM     24  C   UNL     1      11.618   1.600  -2.440  0.00  0.00    +0.060 A 
ATOM     25  C   UNL     1      10.573   2.449  -2.760  0.00  0.00    +0.025 A 
ATOM     26 CL   UNL     1      11.857   0.138  -3.344  0.00  0.00    -0.082 Cl
ATOM     27 CL   UNL     1      13.776   0.849  -0.987  0.00  0.00    -0.082 Cl
ENDBRANCH  19  20
BRANCH  19  28
ATOM     28  C   UNL     1       9.416   5.023  -3.841  0.00  0.00    -0.075 C 
BRANCH  28  30
ATOM     29  C   UNL     1       8.503   6.498  -5.529  0.00  0.00    -0.100 C 
ATOM     30  N   UNL     1       8.376   6.013  -4.149  0.00  0.00    +0.378 N 
ATOM     31  H   UNL     1       8.477   6.859  -3.452  0.00  0.00    -0.086 HD
ATOM     32  H   UNL     1       7.390   5.543  -4.014  0.00  0.00    -0.086 HD
ENDBRANCH  28  30
ENDBRANCH  19  28
ENDBRANCH  18  19
ENDBRANCH   1  18
TORSDOF 6
