REMARK  Name = ZINC35035605
REMARK  6 active torsions:
REMARK  status: ('A' for Active; 'I' for Inactive)
REMARK    1  A    between atoms: C_1  and  C_2
REMARK    2  A    between atoms: C_2  and  C_4
REMARK    3  A    between atoms: C_2  and  N_17
REMARK    4  A    between atoms: N_14  and  C_15
REMARK    5  A    between atoms: C_23  and  C_25
REMARK    6  A    between atoms: C_25  and  C_27
REMARK                            x       y       z     vdW  Elec       q    Type
REMARK                         _______ _______ _______ _____ _____    ______ ____
ROOT
ATOM      1  N   UNL     1       0.534  -0.589  -1.396  0.00  0.00    -0.290 NA
ATOM      2  C   UNL     1       0.349  -2.046  -1.362  0.00  0.00    +0.104 C 
ATOM      3  C   UNL     1       0.916  -2.659  -2.647  0.00  0.00    +0.123 C 
ATOM      4  N   UNL     1       2.309  -2.212  -2.803  0.00  0.00    -0.298 N 
ATOM      5  C   UNL     1       2.592  -0.772  -2.711  0.00  0.00    +0.123 C 
ATOM      6  C   UNL     1       1.959  -0.233  -1.424  0.00  0.00    +0.104 C 
ATOM      7  C   UNL     1       3.299  -3.099  -3.026  0.00  0.00    +0.238 C 
ATOM      8  O   UNL     1       4.452  -2.724  -3.059  0.00  0.00    -0.274 OA
ENDROOT
BRANCH   1  10
ATOM      9  C   UNL     1      -0.096   1.574  -0.436  0.00  0.00    +0.032 C 
ATOM     10  C   UNL     1      -0.148   0.054  -0.265  0.00  0.00    +0.120 C 
BRANCH  10  11
ATOM     11  C   UNL     1      -1.585  -0.398  -0.221  0.00  0.00    +0.130 A 
ATOM     12  N   UNL     1      -2.207  -0.582  -1.345  0.00  0.00    -0.232 NA
ATOM     13  C   UNL     1      -3.500  -0.989  -1.383  0.00  0.00    +0.080 A 
ATOM     14  C   UNL     1      -4.172  -1.188  -2.591  0.00  0.00    +0.048 A 
ATOM     15  C   UNL     1      -5.486  -1.603  -2.578  0.00  0.00    +0.043 A 
ATOM     16  C   UNL     1      -6.150  -1.824  -1.377  0.00  0.00    +0.021 A 
ATOM     17  C   UNL     1      -5.513  -1.635  -0.182  0.00  0.00    +0.017 A 
ATOM     18  C   UNL     1      -4.184  -1.217  -0.168  0.00  0.00    +0.065 A 
ATOM     19  C   UNL     1      -3.450  -0.999   1.087  0.00  0.00    +0.262 A 
ATOM     20  O   UNL     1      -3.979  -1.178   2.168  0.00  0.00    -0.267 OA
ATOM     21  N   UNL     1      -2.160  -0.598   0.993  0.00  0.00    -0.298 N 
ATOM     22  C   UNL     1      -1.381  -0.371   2.212  0.00  0.00    +0.154 C 
ATOM     23 CL   UNL     1      -6.323  -1.851  -4.079  0.00  0.00    -0.083 Cl
ENDBRANCH  10  11
ENDBRANCH   1  10
BRANCH   7  24
ATOM     24  C   UNL     1       2.974  -4.556  -3.232  0.00  0.00    +0.196 C 
ATOM     25 CL   UNL     1       3.374  -5.479  -1.736  0.00  0.00    -0.107 Cl
BRANCH  24  26
ATOM     26  C   UNL     1       3.783  -5.093  -4.385  0.00  0.00    -0.021 A 
ATOM     27  C   UNL     1       5.160  -5.164  -4.289  0.00  0.00    +0.005 A 
ATOM     28  C   UNL     1       5.902  -5.656  -5.346  0.00  0.00    +0.000 A 
ATOM     29  C   UNL     1       5.266  -6.078  -6.499  0.00  0.00    +0.000 A 
ATOM     30  C   UNL     1       3.889  -6.008  -6.595  0.00  0.00    +0.000 A 
ATOM     31  C   UNL     1       3.147  -5.519  -5.536  0.00  0.00    +0.005 A 
ENDBRANCH  24  26
ENDBRANCH   7  24
TORSDOF 4
