REMARK  Name = ZINC20831760
REMARK  10 active torsions:
REMARK  status: ('A' for Active; 'I' for Inactive)
REMARK    1  A    between atoms: C_1  and  C_2
REMARK    2  A    between atoms: N_5  and  S_8
REMARK    3  A    between atoms: S_8  and  C_11
REMARK    4  A    between atoms: C_14  and  N_17
REMARK    5  A    between atoms: C_18  and  C_20
REMARK    6  A    between atoms: C_20  and  C_21
REMARK    7  A    between atoms: C_21  and  S_22
REMARK    8  A    between atoms: S_22  and  C_23
REMARK    9  A    between atoms: N_28  and  N_29
REMARK   10  A    between atoms: C_30  and  C_31
REMARK                            x       y       z     vdW  Elec       q    Type
REMARK                         _______ _______ _______ _____ _____    ______ ____
ROOT
ATOM      1  N   UNL     1      -2.071  -6.223  -0.013  0.00  0.00    -0.285 N 
ATOM      2  C   UNL     1      -1.256  -5.149  -0.016  0.00  0.00    +0.218 C 
ATOM      3  O   UNL     1      -0.053  -5.302  -0.036  0.00  0.00    -0.275 OA
ATOM      4  H   UNL     1      -3.159  -6.087   0.082  0.00  0.00    +0.155 HD
ENDROOT
BRANCH   1   8
ATOM      5  C   UNL     1      -0.472 -10.054  -0.362  0.00  0.00    +0.106 A 
ATOM      6  C   UNL     1       0.220  -9.078   0.331  0.00  0.00    +0.030 A 
ATOM      7  C   UNL     1      -0.308  -7.807   0.449  0.00  0.00    +0.025 A 
ATOM      8  C   UNL     1      -1.534  -7.510  -0.130  0.00  0.00    +0.033 A 
ATOM      9  C   UNL     1      -2.230  -8.493  -0.821  0.00  0.00    +0.025 A 
ATOM     10  C   UNL     1      -1.694  -9.761  -0.940  0.00  0.00    +0.030 A 
BRANCH   5  11
ATOM     11  S   UNL     1       0.204 -11.674  -0.510  0.00  0.00    +0.061 S 
ATOM     12  O   UNL     1      -0.379 -12.254  -1.669  0.00  0.00    -0.153 OA
ATOM     13  O   UNL     1       1.610 -11.544  -0.349  0.00  0.00    -0.153 OA
BRANCH  11  18
ATOM     14  C   UNL     1      -0.421 -16.249   2.890  0.00  0.00    +0.007 C 
ATOM     15  C   UNL     1      -0.664 -14.796   2.475  0.00  0.00    -0.012 C 
ATOM     16  C   UNL     1      -1.325 -14.764   1.095  0.00  0.00    +0.020 C 
ATOM     17  C   UNL     1      -1.598 -13.310   0.698  0.00  0.00    +0.110 C 
ATOM     18  N   UNL     1      -0.342 -12.552   0.783  0.00  0.00    -0.177 NA
ATOM     19  C   UNL     1       0.424 -12.594   2.037  0.00  0.00    +0.110 C 
ATOM     20  C   UNL     1       0.672 -14.052   2.420  0.00  0.00    +0.020 C 
ENDBRANCH  11  18
ENDBRANCH   5  11
ENDBRANCH   1   8
BRANCH   2  21
ATOM     21  C   UNL     1      -1.840  -3.760   0.005  0.00  0.00    +0.107 C 
BRANCH  21  22
ATOM     22  C   UNL     1      -0.707  -2.731  -0.004  0.00  0.00    +0.086 C 
BRANCH  22  23
ATOM     23  S   UNL     1      -1.410  -1.059   0.022  0.00  0.00    -0.084 S 
BRANCH  23  24
ATOM     24  C   UNL     1       0.002  -0.004   0.009  0.00  0.00    +0.210 A 
ATOM     25  N   UNL     1      -0.017   1.362   0.022  0.00  0.00    -0.186 NA
ATOM     26  C   UNL     1       1.277   1.802   0.005  0.00  0.00    +0.232 A 
ATOM     27  N   UNL     1       2.062   0.753  -0.017  0.00  0.00    -0.245 N 
ATOM     28  N   UNL     1       1.254  -0.392  -0.014  0.00  0.00    -0.144 NA
ATOM     29  N   UNL     1       1.688   3.128   0.009  0.00  0.00    -0.205 N 
ATOM     30  H   UNL     1       0.941   3.935   0.027  0.00  0.00    +0.177 HD
ATOM     31  H   UNL     1       3.154   0.883  -0.034  0.00  0.00    +0.192 HD
BRANCH  29  32
ATOM     32  N   UNL     1       3.054   3.438  -0.011  0.00  0.00    -0.188 NA
ATOM     33  C   UNL     1       3.438   4.678  -0.007  0.00  0.00    +0.138 C 
BRANCH  33  34
ATOM     34  C   UNL     1       4.875   5.005  -0.027  0.00  0.00    -0.005 A 
ATOM     35  C   UNL     1       5.827   3.982  -0.044  0.00  0.00    +0.009 A 
ATOM     36  C   UNL     1       7.170   4.295  -0.070  0.00  0.00    +0.001 A 
ATOM     37  C   UNL     1       7.576   5.618  -0.066  0.00  0.00    +0.000 A 
ATOM     38  C   UNL     1       6.639   6.636  -0.042  0.00  0.00    +0.001 A 
ATOM     39  C   UNL     1       5.293   6.338  -0.023  0.00  0.00    +0.009 A 
ENDBRANCH  33  34
ENDBRANCH  29  32
ENDBRANCH  23  24
ENDBRANCH  22  23
ENDBRANCH  21  22
ENDBRANCH   2  21
TORSDOF 9
