REMARK  Name = ZINC06632066
REMARK  5 active torsions:
REMARK  status: ('A' for Active; 'I' for Inactive)
REMARK    1  A    between atoms: C_1  and  C_2
REMARK    2  A    between atoms: C_2  and  C_3
REMARK    3  A    between atoms: C_10  and  C_12
REMARK    4  A    between atoms: C_17  and  C_28
REMARK    5  A    between atoms: C_20  and  C_23
REMARK                            x       y       z     vdW  Elec       q    Type
REMARK                         _______ _______ _______ _____ _____    ______ ____
ROOT
ATOM      1  C   UNL     1      -2.143   0.812  -3.468  0.00  0.00    +0.167 A 
ATOM      2  C   UNL     1      -1.693   1.735  -4.440  0.00  0.00    +0.112 A 
ATOM      3  C   UNL     1      -2.614   1.772  -5.424  0.00  0.00    +0.137 A 
ATOM      4  N   UNL     1      -3.620   0.907  -5.097  0.00  0.00    -0.237 N 
ATOM      5  N   UNL     1      -3.298   0.316  -3.876  0.00  0.00    -0.163 NA
ATOM      6  C   UNL     1      -4.803   0.684  -5.933  0.00  0.00    +0.215 C 
ATOM      7  C   UNL     1      -4.958   1.864  -6.899  0.00  0.00    +0.066 C 
ATOM      8  C   UNL     1      -3.629   2.133  -7.612  0.00  0.00    +0.140 C 
ATOM      9  N   UNL     1      -2.625   2.525  -6.603  0.00  0.00    -0.318 N 
ATOM     10 CL   UNL     1      -0.222   2.655  -4.378  0.00  0.00    -0.078 Cl
ATOM     11  H   UNL     1      -2.010   3.261  -6.748  0.00  0.00    +0.148 HD
ENDROOT
BRANCH   1  18
ATOM     12  C   UNL     1      -1.327  -0.786  -0.114  0.00  0.00    +0.076 C 
ATOM     13  C   UNL     1      -0.926  -2.262  -0.026  0.00  0.00    +0.022 C 
ATOM     14  C   UNL     1      -2.139  -3.136  -0.354  0.00  0.00    +0.003 C 
ATOM     15  C   UNL     1      -2.607  -2.847  -1.782  0.00  0.00    +0.019 C 
ATOM     16  C   UNL     1      -3.026  -1.377  -1.890  0.00  0.00    +0.108 C 
ATOM     17  N   UNL     1      -1.915  -0.531  -1.436  0.00  0.00    -0.293 N 
ATOM     18  C   UNL     1      -1.440   0.459  -2.218  0.00  0.00    +0.268 C 
ATOM     19  O   UNL     1      -0.435   1.061  -1.895  0.00  0.00    -0.268 OA
BRANCH  12  21
ATOM     20  C   UNL     1       0.479  -0.122   1.481  0.00  0.00    +0.006 C 
ATOM     21  C   UNL     1      -0.089   0.093   0.076  0.00  0.00    +0.019 C 
ENDBRANCH  12  21
ENDBRANCH   1  18
BRANCH   8  22
ATOM     22  C   UNL     1      -3.175   0.885  -8.325  0.00  0.00    +0.125 A 
ATOM     23  C   UNL     1      -3.314   0.635  -9.639  0.00  0.00    +0.046 A 
ATOM     24  C   UNL     1      -2.754  -0.641  -9.875  0.00  0.00    +0.041 A 
ATOM     25  C   UNL     1      -2.306  -1.095  -8.691  0.00  0.00    +0.195 A 
ATOM     26  O   UNL     1      -2.559  -0.164  -7.756  0.00  0.00    -0.466 OA
ENDBRANCH   8  22
BRANCH   6  27
ATOM     27  C   UNL     1      -6.045   0.579  -5.045  0.00  0.00    +0.412 C 
ATOM     28  F   UNL     1      -6.203   1.766  -4.322  0.00  0.00    -0.168 F 
ATOM     29  F   UNL     1      -7.173   0.366  -5.844  0.00  0.00    -0.168 F 
ATOM     30  F   UNL     1      -5.894  -0.491  -4.157  0.00  0.00    -0.168 F 
ENDBRANCH   6  27
TORSDOF 4
