REMARK  Name = ZINC09471103
REMARK  6 active torsions:
REMARK  status: ('A' for Active; 'I' for Inactive)
REMARK    1  A    between atoms: C_4  and  C_7
REMARK    2  A    between atoms: C_7  and  C_9
REMARK    3  A    between atoms: C_7  and  N_53
REMARK    4  A    between atoms: C_9  and  N_10
REMARK    5  A    between atoms: N_10  and  C_11
REMARK    6  A    between atoms: C_22  and  C_25
REMARK                            x       y       z     vdW  Elec       q    Type
REMARK                         _______ _______ _______ _____ _____    ______ ____
ROOT
ATOM      1  C   UNL     1       0.801  -1.809   1.531  0.00  0.00    +0.071 A 
ATOM      2  C   UNL     1       0.294  -2.761   0.620  0.00  0.00    +0.158 A 
ATOM      3  N   UNL     1       0.459  -4.036   0.838  0.00  0.00    -0.168 NA
ATOM      4  N   UNL     1       1.129  -4.492   1.978  0.00  0.00    -0.177 N 
ATOM      5  C   UNL     1       1.625  -3.618   2.877  0.00  0.00    +0.293 A 
ATOM      6  O   UNL     1       2.208  -4.024   3.870  0.00  0.00    -0.264 OA
ATOM      7  C   UNL     1       1.467  -2.241   2.664  0.00  0.00    +0.129 A 
ATOM      8 CL   UNL     1       2.097  -1.096   3.806  0.00  0.00    -0.076 Cl
ATOM      9  C   UNL     1       1.285  -5.863   2.187  0.00  0.00    +0.158 A 
ATOM     10  C   UNL     1       0.774  -6.763   1.260  0.00  0.00    +0.049 A 
ATOM     11  C   UNL     1       0.936  -8.121   1.479  0.00  0.00    +0.017 A 
ATOM     12  C   UNL     1       1.608  -8.531   2.622  0.00  0.00    +0.073 A 
ATOM     13  C   UNL     1       2.090  -7.580   3.501  0.00  0.00    +0.125 A 
ATOM     14  N   UNL     1       1.925  -6.294   3.263  0.00  0.00    -0.235 NA
ENDROOT
BRANCH  12  15
ATOM     15  C   UNL     1       1.809  -9.998   2.902  0.00  0.00    +0.419 C 
ATOM     16  F   UNL     1       3.013 -10.421   2.329  0.00  0.00    -0.166 F 
ATOM     17  F   UNL     1       1.851 -10.208   4.284  0.00  0.00    -0.166 F 
ATOM     18  F   UNL     1       0.749 -10.727   2.352  0.00  0.00    -0.166 F 
ENDBRANCH  12  15
BRANCH   1  19
ATOM     19  N   UNL     1       0.629  -0.456   1.295  0.00  0.00    -0.343 N 
ATOM     20  H   UNL     1       0.976   0.195   1.925  0.00  0.00    +0.146 HD
BRANCH  19  21
ATOM     21  C   UNL     1      -0.076  -0.005   0.092  0.00  0.00    +0.091 C 
BRANCH  21  22
ATOM     22  C   UNL     1      -0.017   1.521   0.008  0.00  0.00    -0.020 C 
BRANCH  22  26
ATOM     23  C   UNL     1       4.033   2.759  -0.551  0.00  0.00    +0.000 A 
ATOM     24  C   UNL     1       3.459   2.817   0.706  0.00  0.00    +0.000 A 
ATOM     25  C   UNL     1       2.149   2.417   0.886  0.00  0.00    +0.002 A 
ATOM     26  C   UNL     1       1.412   1.958  -0.190  0.00  0.00    -0.059 A 
ATOM     27  C   UNL     1       1.987   1.895  -1.445  0.00  0.00    +0.002 A 
ATOM     28  C   UNL     1       3.296   2.300  -1.627  0.00  0.00    +0.000 A 
ENDBRANCH  22  26
BRANCH  22  33
ATOM     29  C   UNL     1      -2.243   1.545  -0.979  0.00  0.00    -0.078 C 
ATOM     30  C   UNL     1      -3.012   2.516  -1.909  0.00  0.00    -0.020 C 
ATOM     31  C   UNL     1      -2.261   3.853  -1.711  0.00  0.00    -0.020 C 
ATOM     32  C   UNL     1      -0.868   3.458  -1.187  0.00  0.00    -0.078 C 
ATOM     33  N   UNL     1      -0.851   1.995  -1.137  0.00  0.00    +0.385 N 
ATOM     34  H   UNL     1      -0.464   1.623  -2.013  0.00  0.00    -0.081 HD
ENDBRANCH  22  33
ENDBRANCH  21  22
ENDBRANCH  19  21
ENDBRANCH   1  19
TORSDOF 6
