REMARK  Name = ZINC19165099
REMARK  8 active torsions:
REMARK  status: ('A' for Active; 'I' for Inactive)
REMARK    1  A    between atoms: C_1  and  C_2
REMARK    2  A    between atoms: C_2  and  C_3
REMARK    3  A    between atoms: C_3  and  S_4
REMARK    4  A    between atoms: S_4  and  C_5
REMARK    5  A    between atoms: C_8  and  N_26
REMARK    6  A    between atoms: C_9  and  N_11
REMARK    7  A    between atoms: C_12  and  C_14
REMARK    8  A    between atoms: C_14  and  N_15
REMARK                            x       y       z     vdW  Elec       q    Type
REMARK                         _______ _______ _______ _____ _____    ______ ____
ROOT
ATOM      1  N   UNL     1       2.296   3.882  -0.001  0.00  0.00    -0.282 N 
ATOM      2  C   UNL     1       2.355   5.052   0.665  0.00  0.00    +0.235 C 
ATOM      3  O   UNL     1       1.412   5.417   1.335  0.00  0.00    -0.274 OA
ATOM      4  H   UNL     1       3.076   3.553  -0.474  0.00  0.00    +0.155 HD
ENDROOT
BRANCH   1   9
ATOM      5  C   UNL     1      -1.292   3.055  -0.034  0.00  0.00    +0.010 A 
ATOM      6  C   UNL     1      -1.238   1.666  -0.034  0.00  0.00    +0.017 A 
ATOM      7  C   UNL     1      -0.017   1.021  -0.014  0.00  0.00    +0.036 A 
ATOM      8  C   UNL     1       1.155   1.753  -0.005  0.00  0.00    +0.147 A 
ATOM      9  C   UNL     1       1.109   3.142  -0.010  0.00  0.00    +0.065 A 
ATOM     10  C   UNL     1      -0.116   3.793  -0.025  0.00  0.00    +0.040 A 
BRANCH   8  11
ATOM     11  N   UNL     1       2.461   1.057   0.009  0.00  0.00    +0.058 N 
ATOM     12  O   UNL     1       2.504  -0.157   0.104  0.00  0.00    -0.126 OA
ATOM     13  O   UNL     1       3.494   1.698  -0.074  0.00  0.00    -0.126 OA
ENDBRANCH   8  11
BRANCH   5  14
ATOM     14  S   UNL     1      -2.850   3.878  -0.051  0.00  0.00    -0.125 S 
BRANCH  14  15
ATOM     15  C   UNL     1      -4.060   2.526  -0.059  0.00  0.00    +0.074 C 
BRANCH  15  17
ATOM     16  C   UNL     1      -6.495   1.969  -0.081  0.00  0.00    +0.004 C 
ATOM     17  C   UNL     1      -5.474   3.108  -0.075  0.00  0.00    +0.008 C 
ENDBRANCH  15  17
ENDBRANCH  14  15
ENDBRANCH   5  14
ENDBRANCH   1   9
BRANCH   2  18
ATOM     18  C   UNL     1       3.593   5.907   0.579  0.00  0.00    +0.213 C 
BRANCH  18  19
ATOM     19  N   UNL     1       3.410   7.116   1.385  0.00  0.00    -0.225 N 
ATOM     20  C   UNL     1       2.896   8.269   0.921  0.00  0.00    +0.254 C 
ATOM     21  O   UNL     1       2.517   8.470  -0.216  0.00  0.00    -0.270 OA
ATOM     22  C   UNL     1       2.868   9.251   2.026  0.00  0.00    +0.049 A 
ATOM     23  C   UNL     1       2.455  10.569   2.139  0.00  0.00    +0.014 A 
ATOM     24  C   UNL     1       2.574  11.223   3.355  0.00  0.00    +0.001 A 
ATOM     25  C   UNL     1       3.100  10.571   4.454  0.00  0.00    +0.001 A 
ATOM     26  C   UNL     1       3.518   9.253   4.355  0.00  0.00    +0.014 A 
ATOM     27  C   UNL     1       3.405   8.585   3.146  0.00  0.00    +0.049 A 
ATOM     28  C   UNL     1       3.737   7.221   2.685  0.00  0.00    +0.254 C 
ATOM     29  O   UNL     1       4.224   6.341   3.367  0.00  0.00    -0.270 OA
ENDBRANCH  18  19
ENDBRANCH   2  18
TORSDOF 7
