REMARK  Name = ZINC14881632
REMARK  12 active torsions:
REMARK  status: ('A' for Active; 'I' for Inactive)
REMARK    1  A    between atoms: C_1  and  C_2
REMARK    2  A    between atoms: C_2  and  C_3
REMARK    3  A    between atoms: C_6  and  C_8
REMARK    4  A    between atoms: C_8  and  N_68
REMARK    5  A    between atoms: C_11  and  C_14
REMARK    6  A    between atoms: C_14  and  C_31
REMARK    7  A    between atoms: N_17  and  C_21
REMARK    8  A    between atoms: C_21  and  C_22
REMARK    9  A    between atoms: C_22  and  C_23
REMARK   10  A    between atoms: C_26  and  O_29
REMARK   11  A    between atoms: O_29  and  C_30
REMARK   12  A    between atoms: C_31  and  C_32
REMARK                            x       y       z     vdW  Elec       q    Type
REMARK                         _______ _______ _______ _____ _____    ______ ____
ROOT
ATOM      1  C   UNL     1      -4.841   1.540   5.248  0.00  0.00    +0.115 C 
ATOM      2  C   UNL     1      -4.209   0.230   5.674  0.00  0.00    +0.247 C 
ATOM      3  O   UNL     1      -3.025  -0.028   5.728  0.00  0.00    -0.273 OA
ATOM      4  N   UNL     1      -5.235  -0.587   5.981  0.00  0.00    -0.224 N 
ATOM      5  C   UNL     1      -6.416   0.018   5.811  0.00  0.00    +0.309 C 
ATOM      6  O   UNL     1      -7.486  -0.517   6.024  0.00  0.00    -0.252 OA
ATOM      7  N   UNL     1      -6.287   1.284   5.377  0.00  0.00    -0.285 N 
ATOM      8  H   UNL     1      -7.005   1.908   5.186  0.00  0.00    +0.151 HD
ENDROOT
BRANCH   1  11
ATOM      9  C   UNL     1      -2.610   2.383   2.226  0.00  0.00    -0.078 C 
ATOM     10  C   UNL     1      -2.973   2.117   3.688  0.00  0.00    -0.013 C 
ATOM     11  C   UNL     1      -4.480   1.866   3.797  0.00  0.00    +0.018 C 
ATOM     12  C   UNL     1      -4.859   0.686   2.898  0.00  0.00    -0.013 C 
ATOM     13  C   UNL     1      -4.441   0.994   1.458  0.00  0.00    -0.078 C 
ATOM     14  N   UNL     1      -2.978   1.201   1.417  0.00  0.00    +0.384 N 
ATOM     15  H   UNL     1      -2.513   0.373   1.808  0.00  0.00    -0.081 HD
BRANCH  14  16
ATOM     16  C   UNL     1      -2.533   1.387   0.021  0.00  0.00    -0.003 C 
BRANCH  16  20
ATOM     17  C   UNL     1       0.640   3.193   0.012  0.00  0.00    +0.105 A 
ATOM     18  C   UNL     1       1.111   1.934   0.002  0.00  0.00    +0.045 A 
ATOM     19  C   UNL     1      -0.013   1.076   0.008  0.00  0.00    +0.043 A 
ATOM     20  C   UNL     1      -1.103   1.863   0.017  0.00  0.00    +0.089 A 
ATOM     21  O   UNL     1      -0.702   3.144   0.024  0.00  0.00    -0.466 OA
BRANCH  17  23
ATOM     22  C   UNL     1       1.745   4.878  -1.433  0.00  0.00    +0.012 C 
ATOM     23  C   UNL     1       1.476   4.447   0.010  0.00  0.00    +0.071 C 
ENDBRANCH  17  23
ENDBRANCH  16  20
ENDBRANCH  14  16
ENDBRANCH   1  11
BRANCH   1  24
ATOM     24  C   UNL     1      -4.407   2.675   6.177  0.00  0.00    +0.032 C 
ATOM     25  C   UNL     1      -4.780   2.325   7.619  0.00  0.00    +0.006 C 
ENDBRANCH   1  24
BRANCH   4  26
ATOM     26  C   UNL     1      -5.077  -1.968   6.446  0.00  0.00    +0.122 C 
BRANCH  26  27
ATOM     27  C   UNL     1      -4.983  -1.984   7.973  0.00  0.00    +0.054 C 
BRANCH  27  28
ATOM     28  C   UNL     1      -4.820  -3.404   8.451  0.00  0.00    -0.046 A 
ATOM     29  C   UNL     1      -5.936  -4.164   8.748  0.00  0.00    +0.007 A 
ATOM     30  C   UNL     1      -5.790  -5.468   9.181  0.00  0.00    +0.046 A 
ATOM     31  C   UNL     1      -4.522  -6.011   9.329  0.00  0.00    +0.120 A 
ATOM     32  C   UNL     1      -3.403  -5.244   9.036  0.00  0.00    +0.046 A 
ATOM     33  C   UNL     1      -3.555  -3.942   8.598  0.00  0.00    +0.007 A 
BRANCH  31  34
ATOM     34  O   UNL     1      -4.375  -7.291   9.759  0.00  0.00    -0.495 OA
ATOM     35  C   UNL     1      -5.571  -8.021  10.042  0.00  0.00    +0.277 C 
ENDBRANCH  31  34
ENDBRANCH  27  28
ENDBRANCH  26  27
ENDBRANCH   4  26
TORSDOF 9
