REMARK  Name = ZINC63824979
REMARK  4 active torsions:
REMARK  status: ('A' for Active; 'I' for Inactive)
REMARK    1  A    between atoms: C_1  and  C_2
REMARK    2  A    between atoms: C_4  and  C_21
REMARK    3  A    between atoms: N_12  and  C_14
REMARK    4  A    between atoms: N_29  and  C_32
REMARK                            x       y       z     vdW  Elec       q    Type
REMARK                         _______ _______ _______ _____ _____    ______ ____
ROOT
ATOM      1  C   UNL     1      -0.156   1.410  -0.930  0.00  0.00    +0.062 C 
ATOM      2  C   UNL     1      -0.173  -0.096  -0.882  0.00  0.00    +0.022 C 
ATOM      3  C   UNL     1      -1.153  -0.804  -0.395  0.00  0.00    -0.004 C 
ATOM      4  C   UNL     1      -2.525  -0.387   0.080  0.00  0.00    +0.064 C 
ATOM      5  C   UNL     1      -3.532  -1.105  -0.831  0.00  0.00    +0.108 C 
ATOM      6  C   UNL     1      -3.086  -2.491  -1.167  0.00  0.00    +0.216 C 
ATOM      7  O   UNL     1      -3.948  -3.255  -1.546  0.00  0.00    -0.276 OA
ATOM      8  N   UNL     1      -1.849  -2.985  -1.099  0.00  0.00    -0.292 N 
ATOM      9  C   UNL     1      -0.750  -2.268  -0.465  0.00  0.00    +0.210 C 
ATOM     10  N   UNL     1       0.474  -2.258  -1.268  0.00  0.00    -0.210 N 
ATOM     11  N   UNL     1       0.849  -0.905  -1.355  0.00  0.00    -0.265 N 
ATOM     12  H   UNL     1      -1.674  -3.857  -1.486  0.00  0.00    +0.151 HD
ATOM     13  H   UNL     1       1.699  -0.585  -1.696  0.00  0.00    +0.170 HD
ENDROOT
BRANCH   4  14
ATOM     14  C   UNL     1      -2.684   1.106  -0.045  0.00  0.00    +0.025 A 
ATOM     15  C   UNL     1      -3.260   1.634  -1.153  0.00  0.00    +0.019 A 
ATOM     16  C   UNL     1      -3.400   3.088  -1.243  0.00  0.00    -0.001 A 
ATOM     17  C   UNL     1      -3.986   3.691  -2.361  0.00  0.00    +0.010 A 
ATOM     18  C   UNL     1      -4.103   5.051  -2.414  0.00  0.00    +0.001 A 
ATOM     19  C   UNL     1      -3.645   5.841  -1.368  0.00  0.00    +0.002 A 
ATOM     20  C   UNL     1      -3.064   5.269  -0.257  0.00  0.00    +0.026 A 
ATOM     21  C   UNL     1      -2.935   3.886  -0.180  0.00  0.00    +0.052 A 
ATOM     22  N   UNL     1      -2.359   3.287   0.920  0.00  0.00    -0.311 N 
ATOM     23  C   UNL     1      -2.239   1.950   0.996  0.00  0.00    +0.255 A 
ATOM     24  O   UNL     1      -1.729   1.454   1.986  0.00  0.00    -0.267 OA
ATOM     25  C   UNL     1      -1.876   4.119   2.025  0.00  0.00    +0.152 C 
ENDBRANCH   4  14
BRANCH  10  26
ATOM     26  C   UNL     1       1.126  -3.353  -1.829  0.00  0.00    +0.162 A 
ATOM     27  C   UNL     1       2.292  -3.168  -2.572  0.00  0.00    +0.052 A 
ATOM     28  C   UNL     1       2.903  -4.288  -3.110  0.00  0.00    +0.077 A 
ATOM     29  C   UNL     1       2.316  -5.530  -2.876  0.00  0.00    +0.289 A 
ATOM     30  O   UNL     1       2.881  -6.656  -3.383  0.00  0.00    -0.264 OA
ATOM     31  N   UNL     1       1.209  -5.610  -2.158  0.00  0.00    -0.105 NA
ATOM     32  N   UNL     1       0.644  -4.574  -1.654  0.00  0.00    -0.129 NA
ENDBRANCH  10  26
TORSDOF 2
