REMARK  Name = ZINC33254100
REMARK  9 active torsions:
REMARK  status: ('A' for Active; 'I' for Inactive)
REMARK    1  A    between atoms: C_1  and  C_2
REMARK    2  A    between atoms: C_5  and  C_34
REMARK    3  A    between atoms: C_6  and  S_8
REMARK    4  A    between atoms: S_8  and  N_11
REMARK    5  A    between atoms: N_11  and  C_12
REMARK    6  A    between atoms: C_14  and  C_31
REMARK    7  A    between atoms: C_17  and  N_18
REMARK    8  A    between atoms: C_22  and  C_25
REMARK    9  A    between atoms: C_25  and  N_26
REMARK                            x       y       z     vdW  Elec       q    Type
REMARK                         _______ _______ _______ _____ _____    ______ ____
ROOT
ATOM      1  C   UNL     1      -1.818   3.145  -0.021  0.00  0.00    +0.070 A 
ATOM      2  C   UNL     1      -0.581   3.760  -0.025  0.00  0.00    +0.041 A 
ATOM      3  C   UNL     1       0.577   2.994  -0.197  0.00  0.00    +0.065 A 
ATOM      4  C   UNL     1       0.478   1.610  -0.364  0.00  0.00    +0.017 A 
ATOM      5  C   UNL     1      -0.758   1.001  -0.360  0.00  0.00    +0.026 A 
ATOM      6  C   UNL     1      -1.910   1.761  -0.195  0.00  0.00    +0.052 A 
ENDROOT
BRANCH   6   7
ATOM      7  N   UNL     1      -3.158   1.142  -0.197  0.00  0.00    -0.328 N 
ATOM      8  C   UNL     1      -3.438   0.527  -1.500  0.00  0.00    +0.105 C 
ATOM      9  C   UNL     1      -4.869  -0.015  -1.514  0.00  0.00    +0.019 C 
ATOM     10  C   UNL     1      -5.028  -1.050  -0.396  0.00  0.00    +0.005 C 
ATOM     11  C   UNL     1      -4.684  -0.397   0.946  0.00  0.00    -0.010 C 
ATOM     12  C   UNL     1      -3.258   0.156   0.887  0.00  0.00    +0.107 C 
BRANCH  11  13
ATOM     13  C   UNL     1      -4.783  -1.439   2.062  0.00  0.00    -0.074 C 
BRANCH  13  14
ATOM     14  N   UNL     1      -4.501  -0.801   3.354  0.00  0.00    +0.380 N 
ATOM     15  C   UNL     1      -5.448   0.313   3.616  0.00  0.00    -0.079 C 
ATOM     16  C   UNL     1      -5.364   0.497   5.152  0.00  0.00    -0.020 C 
ATOM     17  C   UNL     1      -5.226  -0.954   5.667  0.00  0.00    -0.020 C 
ATOM     18  C   UNL     1      -4.685  -1.756   4.468  0.00  0.00    -0.079 C 
ATOM     19  H   UNL     1      -3.461  -0.448   3.294  0.00  0.00    -0.082 HD
ENDBRANCH  13  14
ENDBRANCH  11  13
ENDBRANCH   6   7
BRANCH   3  20
ATOM     20  C   UNL     1       1.899   3.646  -0.200  0.00  0.00    +0.387 C 
ATOM     21  O   UNL     1       1.984   4.849  -0.054  0.00  0.00    -0.241 OA
ATOM     22  O   UNL     1       3.014   2.906  -0.365  0.00  0.00    -0.241 OA
ENDBRANCH   3  20
BRANCH   1  23
ATOM     23  N   UNL     1      -2.980   3.908   0.150  0.00  0.00    -0.214 N 
ATOM     24  H   UNL     1      -3.831   3.496   0.712  0.00  0.00    +0.174 HD
BRANCH  23  25
ATOM     25  S   UNL     1      -3.072   5.431  -0.493  0.00  0.00    +0.073 S 
ATOM     26  O   UNL     1      -4.403   5.882  -0.280  0.00  0.00    -0.150 OA
ATOM     27  O   UNL     1      -1.940   6.144  -0.013  0.00  0.00    -0.150 OA
BRANCH  25  33
ATOM     28  C   UNL     1      -0.407   6.329  -4.898  0.00  0.00    +0.044 C 
ATOM     29  C   UNL     1      -1.605   5.715  -4.223  0.00  0.00    -0.049 A 
ATOM     30  C   UNL     1      -2.544   5.028  -4.971  0.00  0.00    +0.004 A 
ATOM     31  C   UNL     1      -3.644   4.465  -4.351  0.00  0.00    +0.005 A 
ATOM     32  C   UNL     1      -3.802   4.584  -2.982  0.00  0.00    -0.024 A 
ATOM     33  C   UNL     1      -2.867   5.275  -2.236  0.00  0.00    +0.112 A 
ATOM     34  C   UNL     1      -1.767   5.838  -2.856  0.00  0.00    +0.032 A 
ATOM     35  C   UNL     1      -4.998   3.964  -2.306  0.00  0.00    +0.046 C 
ENDBRANCH  25  33
ENDBRANCH  23  25
ENDBRANCH   1  23
TORSDOF 7
