REMARK  Name = ZINC07166495
REMARK  6 active torsions:
REMARK  status: ('A' for Active; 'I' for Inactive)
REMARK    1  A    between atoms: C_1  and  C_2
REMARK    2  A    between atoms: C_3  and  C_14
REMARK    3  A    between atoms: N_5  and  C_7
REMARK    4  A    between atoms: C_15  and  C_16
REMARK    5  A    between atoms: C_16  and  C_18
REMARK    6  A    between atoms: C_21  and  O_24
REMARK                            x       y       z     vdW  Elec       q    Type
REMARK                         _______ _______ _______ _____ _____    ______ ____
ROOT
ATOM      1  C   UNL     1      -0.018   1.503   0.010  0.00  0.00    +0.068 C 
ATOM      2  C   UNL     1       0.002  -0.004   0.002  0.00  0.00    +0.069 A 
ATOM      3  C   UNL     1       0.008  -0.829  -1.149  0.00  0.00    +0.035 A 
ATOM      4  C   UNL     1       0.028  -2.143  -0.707  0.00  0.00    +0.140 A 
ATOM      5  N   UNL     1       0.034  -2.112   0.640  0.00  0.00    -0.221 N 
ATOM      6  N   UNL     1       0.023  -0.775   1.054  0.00  0.00    -0.170 NA
ATOM      7 CL   UNL     1       0.042  -3.564  -1.704  0.00  0.00    -0.061 Cl
ENDROOT
BRANCH   5   8
ATOM      8  C   UNL     1       0.052  -3.230   1.484  0.00  0.00    +0.067 A 
ATOM      9  C   UNL     1      -0.619  -4.389   1.119  0.00  0.00    +0.028 A 
ATOM     10  C   UNL     1      -0.598  -5.490   1.953  0.00  0.00    +0.002 A 
ATOM     11  C   UNL     1       0.090  -5.438   3.151  0.00  0.00    +0.000 A 
ATOM     12  C   UNL     1       0.759  -4.285   3.518  0.00  0.00    +0.002 A 
ATOM     13  C   UNL     1       0.746  -3.183   2.686  0.00  0.00    +0.028 A 
ENDBRANCH   5   8
BRANCH   3  14
ATOM     14  C   UNL     1      -0.004  -0.378  -2.545  0.00  0.00    +0.016 C 
ATOM     15  C   UNL     1       0.897  -0.875  -3.425  0.00  0.00    +0.052 C 
BRANCH  15  16
ATOM     16  C   UNL     1       0.885  -0.441  -4.772  0.00  0.00    +0.186 C 
ATOM     17  O   UNL     1       0.064   0.381  -5.139  0.00  0.00    -0.287 OA
BRANCH  16  18
ATOM     18  C   UNL     1       1.868  -0.983  -5.732  0.00  0.00    +0.022 A 
ATOM     19  C   UNL     1       2.807  -1.929  -5.313  0.00  0.00    +0.015 A 
ATOM     20  C   UNL     1       3.722  -2.433  -6.211  0.00  0.00    +0.046 A 
ATOM     21  C   UNL     1       3.712  -2.000  -7.532  0.00  0.00    +0.117 A 
ATOM     22  C   UNL     1       2.780  -1.058  -7.952  0.00  0.00    +0.046 A 
ATOM     23  C   UNL     1       1.858  -0.555  -7.062  0.00  0.00    +0.015 A 
BRANCH  21  24
ATOM     24  O   UNL     1       4.616  -2.498  -8.414  0.00  0.00    -0.507 OA
ATOM     25  H   UNL     1       4.317  -3.291  -8.878  0.00  0.00    +0.292 HD
ENDBRANCH  21  24
ENDBRANCH  16  18
ENDBRANCH  15  16
ENDBRANCH   3  14
TORSDOF 5
