REMARK  Name = ZINC15000637
REMARK  7 active torsions:
REMARK  status: ('A' for Active; 'I' for Inactive)
REMARK    1  A    between atoms: C_4  and  C_7
REMARK    2  A    between atoms: C_7  and  C_8
REMARK    3  A    between atoms: C_7  and  N_57
REMARK    4  A    between atoms: C_14  and  C_15
REMARK    5  A    between atoms: C_14  and  N_57
REMARK    6  A    between atoms: N_23  and  C_26
REMARK    7  A    between atoms: C_26  and  C_27
REMARK                            x       y       z     vdW  Elec       q    Type
REMARK                         _______ _______ _______ _____ _____    ______ ____
ROOT
ATOM      1  C   UNL     1       1.286   3.516   0.009  0.00  0.00    +0.001 A 
ATOM      2  C   UNL     1       1.372   4.189   1.183  0.00  0.00    +0.017 A 
ATOM      3  C   UNL     1       1.310   5.650   1.158  0.00  0.00    -0.001 A 
ATOM      4  C   UNL     1       1.395   6.399   2.337  0.00  0.00    +0.013 A 
ATOM      5  C   UNL     1       1.335   7.761   2.281  0.00  0.00    +0.039 A 
ATOM      6  C   UNL     1       1.190   8.413   1.061  0.00  0.00    +0.125 A 
ATOM      7  C   UNL     1       1.104   7.694  -0.115  0.00  0.00    +0.064 A 
ATOM      8  C   UNL     1       1.164   6.306  -0.080  0.00  0.00    +0.055 A 
ATOM      9  N   UNL     1       1.082   5.563  -1.239  0.00  0.00    -0.303 N 
ATOM     10  C   UNL     1       1.145   4.220  -1.205  0.00  0.00    +0.253 A 
ATOM     11  O   UNL     1       1.074   3.596  -2.250  0.00  0.00    -0.267 OA
ATOM     12  F   UNL     1       1.132   9.762   1.025  0.00  0.00    -0.205 F 
ENDROOT
BRANCH   1  13
ATOM     13  C   UNL     1       1.346   2.010   0.000  0.00  0.00    -0.040 C 
BRANCH  13  14
ATOM     14  N   UNL     1      -0.027   1.471   0.010  0.00  0.00    +0.389 N 
ATOM     15  H   UNL     1      -0.512   1.795   0.855  0.00  0.00    -0.084 HD
ATOM     16  H   UNL     1      -0.528   1.804  -0.822  0.00  0.00    -0.084 HD
BRANCH  14  17
ATOM     17  C   UNL     1       0.002  -0.004   0.002  0.00  0.00    -0.010 C 
BRANCH  17  21
ATOM     18  C   UNL     1      -3.612  -1.486   1.731  0.00  0.00    +0.000 A 
ATOM     19  C   UNL     1      -2.408  -2.106   2.009  0.00  0.00    +0.000 A 
ATOM     20  C   UNL     1      -1.238  -1.626   1.449  0.00  0.00    +0.002 A 
ATOM     21  C   UNL     1      -1.273  -0.527   0.612  0.00  0.00    -0.057 A 
ATOM     22  C   UNL     1      -2.476   0.096   0.338  0.00  0.00    +0.002 A 
ATOM     23  C   UNL     1      -3.646  -0.387   0.894  0.00  0.00    +0.000 A 
ENDBRANCH  17  21
BRANCH  17  24
ATOM     24  C   UNL     1       0.119  -0.497  -1.417  0.00  0.00    -0.057 A 
ATOM     25  C   UNL     1      -0.587   0.130  -2.427  0.00  0.00    +0.002 A 
ATOM     26  C   UNL     1      -0.475  -0.319  -3.730  0.00  0.00    +0.000 A 
ATOM     27  C   UNL     1       0.334  -1.402  -4.021  0.00  0.00    +0.000 A 
ATOM     28  C   UNL     1       1.035  -2.032  -3.010  0.00  0.00    +0.000 A 
ATOM     29  C   UNL     1       0.928  -1.580  -1.708  0.00  0.00    +0.002 A 
ENDBRANCH  17  24
ENDBRANCH  14  17
ENDBRANCH  13  14
ENDBRANCH   1  13
BRANCH   9  30
ATOM     30  C   UNL     1       0.929   6.247  -2.525  0.00  0.00    +0.162 C 
BRANCH  30  31
ATOM     31  C   UNL     1       2.290   6.539  -3.103  0.00  0.00    -0.010 A 
ATOM     32  C   UNL     1       2.913   5.618  -3.933  0.00  0.00    +0.008 A 
ATOM     33  C   UNL     1       4.164   5.929  -4.442  0.00  0.00    +0.020 A 
ATOM     34  C   UNL     1       4.745   7.138  -4.108  0.00  0.00    +0.111 A 
ATOM     35  N   UNL     1       4.124   7.990  -3.316  0.00  0.00    -0.263 NA
ATOM     36  C   UNL     1       2.930   7.729  -2.818  0.00  0.00    +0.116 A 
ENDBRANCH  30  31
ENDBRANCH   9  30
TORSDOF 7
