REMARK  Name = ZINC39711146
REMARK  10 active torsions:
REMARK  status: ('A' for Active; 'I' for Inactive)
REMARK    1  A    between atoms: C_1  and  C_2
REMARK    2  A    between atoms: C_4  and  C_43
REMARK    3  A    between atoms: C_7  and  C_14
REMARK    4  A    between atoms: C_14  and  C_16
REMARK    5  A    between atoms: C_14  and  N_28
REMARK    6  A    between atoms: N_21  and  C_22
REMARK    7  A    between atoms: N_28  and  C_29
REMARK    8  A    between atoms: N_28  and  C_36
REMARK    9  A    between atoms: C_29  and  C_30
REMARK   10  A    between atoms: C_36  and  C_37
REMARK                            x       y       z     vdW  Elec       q    Type
REMARK                         _______ _______ _______ _____ _____    ______ ____
ROOT
ATOM      1  C   UNL     1       0.617  -5.885   3.458  0.00  0.00    -0.010 C 
ENDROOT
BRANCH   1   8
ATOM      2  C   UNL     1      -2.878 -10.705   8.014  0.00  0.00    +0.044 C 
ATOM      3  C   UNL     1      -2.229  -9.503   7.379  0.00  0.00    -0.048 A 
ATOM      4  C   UNL     1      -1.389  -8.706   8.157  0.00  0.00    +0.007 A 
ATOM      5  C   UNL     1      -0.776  -7.609   7.640  0.00  0.00    -0.042 A 
ATOM      6  C   UNL     1      -1.009  -7.267   6.237  0.00  0.00    -0.004 A 
ATOM      7  C   UNL     1      -0.415  -6.176   5.675  0.00  0.00    -0.006 C 
ATOM      8  C   UNL     1      -0.713  -5.897   4.215  0.00  0.00    +0.088 C 
ATOM      9  C   UNL     1      -1.644  -6.850   3.501  0.00  0.00    +0.223 C 
ATOM     10  O   UNL     1      -1.917  -6.674   2.328  0.00  0.00    -0.275 OA
ATOM     11  N   UNL     1      -2.160  -7.877   4.155  0.00  0.00    -0.285 N 
ATOM     12  C   UNL     1      -1.901  -8.126   5.439  0.00  0.00    +0.041 A 
ATOM     13  C   UNL     1      -2.482  -9.241   6.070  0.00  0.00    +0.027 A 
ATOM     14  C   UNL     1       0.127  -6.761   8.497  0.00  0.00    +0.044 C 
ATOM     15  H   UNL     1      -2.755  -8.477   3.679  0.00  0.00    +0.155 HD
ENDBRANCH   1   8
BRANCH   1  16
ATOM     16  C   UNL     1       1.358  -4.579   3.749  0.00  0.00    +0.183 C 
ATOM     17  N   UNL     1       1.497  -4.369   5.202  0.00  0.00    -0.229 N 
ATOM     18  N   UNL     1       0.809  -3.183   5.486  0.00  0.00    -0.064 NA
ATOM     19  N   UNL     1       0.307  -2.677   4.486  0.00  0.00    -0.061 NA
ATOM     20  N   UNL     1       0.556  -3.417   3.320  0.00  0.00    -0.213 N 
ATOM     21  H   UNL     1       1.968  -4.937   5.832  0.00  0.00    +0.172 HD
BRANCH  20  22
ATOM     22  C   UNL     1       0.112  -3.105   1.959  0.00  0.00    +0.096 C 
ATOM     23  C   UNL     1       0.786  -1.815   1.486  0.00  0.00    +0.024 C 
ATOM     24  C   UNL     1       0.323  -1.489   0.065  0.00  0.00    +0.002 C 
ATOM     25  C   UNL     1      -1.196  -1.304   0.054  0.00  0.00    +0.000 C 
ATOM     26  C   UNL     1      -1.871  -2.593   0.527  0.00  0.00    +0.002 C 
ATOM     27  C   UNL     1      -1.407  -2.920   1.948  0.00  0.00    +0.024 C 
ENDBRANCH  20  22
ENDBRANCH   1  16
BRANCH   1  28
ATOM     28  N   UNL     1       1.439  -7.022   3.896  0.00  0.00    +0.390 N 
ATOM     29  H   UNL     1       1.687  -6.903   4.867  0.00  0.00    -0.080 HD
BRANCH  28  30
ATOM     30  C   UNL     1       2.660  -7.084   3.082  0.00  0.00    -0.042 C 
BRANCH  30  31
ATOM     31  C   UNL     1       3.635  -6.038   3.558  0.00  0.00    -0.064 A 
ATOM     32  C   UNL     1       4.317  -5.261   2.641  0.00  0.00    +0.002 A 
ATOM     33  C   UNL     1       5.211  -4.301   3.077  0.00  0.00    +0.000 A 
ATOM     34  C   UNL     1       5.423  -4.118   4.431  0.00  0.00    +0.000 A 
ATOM     35  C   UNL     1       4.740  -4.895   5.348  0.00  0.00    +0.000 A 
ATOM     36  C   UNL     1       3.843  -5.852   4.912  0.00  0.00    +0.002 A 
ENDBRANCH  30  31
ENDBRANCH  28  30
BRANCH  28  37
ATOM     37  C   UNL     1       0.678  -8.268   3.733  0.00  0.00    -0.040 C 
BRANCH  37  38
ATOM     38  C   UNL     1       1.538  -9.438   4.136  0.00  0.00    -0.046 A 
ATOM     39  C   UNL     1       2.339 -10.075   3.200  0.00  0.00    +0.005 A 
ATOM     40  C   UNL     1       3.114 -11.147   3.615  0.00  0.00    +0.020 A 
ATOM     41  C   UNL     1       3.062 -11.543   4.939  0.00  0.00    +0.111 A 
ATOM     42  N   UNL     1       2.288 -10.914   5.801  0.00  0.00    -0.263 NA
ATOM     43  C   UNL     1       1.543  -9.886   5.443  0.00  0.00    +0.112 A 
ENDBRANCH  37  38
ENDBRANCH  28  37
ENDBRANCH   1  28
TORSDOF 8
