REMARK  Name = ZINC01429924
REMARK  4 active torsions:
REMARK  status: ('A' for Active; 'I' for Inactive)
REMARK    1  A    between atoms: C_3  and  C_7
REMARK    2  A    between atoms: C_9  and  C_27
REMARK    3  A    between atoms: C_10  and  N_26
REMARK    4  A    between atoms: N_11  and  C_19
REMARK                            x       y       z     vdW  Elec       q    Type
REMARK                         _______ _______ _______ _____ _____    ______ ____
ROOT
ATOM      1  C   UNL     1      -0.530   1.846  -3.163  0.00  0.00    +0.113 C 
ATOM      2  C   UNL     1      -1.875   1.456  -3.722  0.00  0.00    +0.078 C 
ATOM      3  C   UNL     1      -3.031   1.889  -3.158  0.00  0.00    +0.107 C 
ATOM      4  N   UNL     1      -3.056   2.698  -2.049  0.00  0.00    -0.259 N 
ATOM      5  C   UNL     1      -1.877   2.841  -1.283  0.00  0.00    +0.040 C 
ATOM      6  C   UNL     1      -0.719   2.451  -1.804  0.00  0.00    +0.096 C 
ATOM      7  S   UNL     1       0.537   2.786  -0.596  0.00  0.00    -0.004 S 
ATOM      8  O   UNL     1       0.832   1.538   0.017  0.00  0.00    -0.170 OA
ATOM      9  O   UNL     1       1.537   3.536  -1.271  0.00  0.00    -0.170 OA
ATOM     10  C   UNL     1      -0.451   3.861   0.530  0.00  0.00    +0.177 C 
ATOM     11  C   UNL     1      -1.871   3.397   0.113  0.00  0.00    +0.076 C 
ENDROOT
BRANCH   4  12
ATOM     12  C   UNL     1      -4.229   3.368  -1.682  0.00  0.00    +0.040 A 
ATOM     13  C   UNL     1      -4.517   4.613  -2.226  0.00  0.00    +0.026 A 
ATOM     14  C   UNL     1      -5.677   5.271  -1.866  0.00  0.00    +0.040 A 
ATOM     15  C   UNL     1      -6.548   4.694  -0.956  0.00  0.00    +0.124 A 
ATOM     16  C   UNL     1      -6.260   3.455  -0.409  0.00  0.00    +0.040 A 
ATOM     17  C   UNL     1      -5.103   2.792  -0.770  0.00  0.00    +0.026 A 
ATOM     18  F   UNL     1      -7.680   5.341  -0.602  0.00  0.00    -0.205 F 
ENDBRANCH   4  12
BRANCH   1  21
ATOM     19  C   UNL     1       1.913   3.527  -5.495  0.00  0.00    +0.020 A 
ATOM     20  C   UNL     1       1.349   2.573  -4.662  0.00  0.00    +0.007 A 
ATOM     21  C   UNL     1       0.124   2.851  -4.075  0.00  0.00    -0.015 A 
ATOM     22  C   UNL     1      -0.492   4.059  -4.343  0.00  0.00    +0.115 A 
ATOM     23  N   UNL     1       0.076   4.945  -5.136  0.00  0.00    -0.263 NA
ATOM     24  C   UNL     1       1.240   4.715  -5.711  0.00  0.00    +0.111 A 
ENDBRANCH   1  21
BRANCH   3  25
ATOM     25  N   UNL     1      -4.224   1.503  -3.720  0.00  0.00    -0.345 N 
ATOM     26  H   UNL     1      -4.229   1.008  -4.554  0.00  0.00    +0.144 HD
ATOM     27  H   UNL     1      -5.061   1.726  -3.283  0.00  0.00    +0.144 HD
ENDBRANCH   3  25
BRANCH   2  28
ATOM     28  C   UNL     1      -1.933   0.609  -4.875  0.00  0.00    +0.099 C 
ATOM     29  N   UNL     1      -1.980  -0.063  -5.790  0.00  0.00    -0.191 NA
ENDBRANCH   2  28
TORSDOF 4
