REMARK  Name = ZINC12662971
REMARK  8 active torsions:
REMARK  status: ('A' for Active; 'I' for Inactive)
REMARK    1  A    between atoms: C_1  and  C_2
REMARK    2  A    between atoms: C_5  and  N_9
REMARK    3  A    between atoms: C_6  and  C_8
REMARK    4  A    between atoms: C_14  and  C_15
REMARK    5  A    between atoms: C_14  and  N_70
REMARK    6  A    between atoms: C_26  and  C_33
REMARK    7  A    between atoms: C_28  and  C_32
REMARK    8  A    between atoms: C_29  and  O_31
REMARK                            x       y       z     vdW  Elec       q    Type
REMARK                         _______ _______ _______ _____ _____    ______ ____
ROOT
ATOM      1  C   UNL     1      -4.047  -4.825   1.217  0.00  0.00    +0.090 C 
ATOM      2  C   UNL     1      -5.352  -5.590   1.411  0.00  0.00    +0.071 C 
ATOM      3  C   UNL     1      -5.149  -6.870   0.596  0.00  0.00    +0.187 C 
ATOM      4  C   UNL     1      -5.713  -6.714  -0.820  0.00  0.00    +0.076 C 
ATOM      5  C   UNL     1      -7.169  -6.311  -0.675  0.00  0.00    -0.061 C 
ATOM      6  C   UNL     1      -8.071  -7.125  -1.137  0.00  0.00    -0.027 C 
ATOM      7  C   UNL     1      -9.546  -6.916  -0.950  0.00  0.00    +0.027 C 
ATOM      8  C   UNL     1      -9.819  -5.419  -0.784  0.00  0.00    +0.008 C 
ATOM      9  C   UNL     1      -8.946  -4.882   0.348  0.00  0.00    -0.001 C 
ATOM     10  C   UNL     1      -7.459  -5.006   0.005  0.00  0.00    +0.018 C 
ATOM     11  C   UNL     1      -6.644  -4.863   1.280  0.00  0.00    +0.132 C 
ATOM     12  C   UNL     1      -7.129  -3.858  -0.957  0.00  0.00    +0.018 C 
ATOM     13  C   UNL     1      -9.287  -3.408   0.573  0.00  0.00    +0.008 C 
ATOM     14  O   UNL     1      -3.699  -7.021   0.482  0.00  0.00    -0.460 OA
ATOM     15  C   UNL     1      -3.045  -5.934   0.914  0.00  0.00    +0.309 C 
ATOM     16  O   UNL     1      -1.846  -5.834   1.050  0.00  0.00    -0.251 OA
ENDROOT
BRANCH  11  17
ATOM     17  O   UNL     1      -6.451  -3.474   1.576  0.00  0.00    -0.391 OA
ATOM     18  H   UNL     1      -6.121  -3.304   2.469  0.00  0.00    +0.210 HD
ENDBRANCH  11  17
BRANCH   1  19
ATOM     19  C   UNL     1      -4.058  -3.829   0.062  0.00  0.00    -0.064 C 
BRANCH  19  25
ATOM     20  N   UNL     1      -1.197  -0.720   0.010  0.00  0.00    -0.333 N 
ATOM     21  C   UNL     1      -1.326  -1.517   1.238  0.00  0.00    +0.086 C 
ATOM     22  C   UNL     1      -2.684  -2.223   1.245  0.00  0.00    -0.060 C 
ATOM     23  C   UNL     1      -2.667  -2.278  -1.175  0.00  0.00    -0.060 C 
ATOM     24  C   UNL     1      -1.309  -1.573  -1.182  0.00  0.00    +0.086 C 
ATOM     25  N   UNL     1      -2.775  -3.093   0.054  0.00  0.00    +0.382 N 
ATOM     26  H   UNL     1      -2.003  -3.769   0.075  0.00  0.00    -0.082 HD
BRANCH  20  31
ATOM     27  C   UNL     1       3.671   2.188  -0.022  0.00  0.00    +0.044 C 
ATOM     28  C   UNL     1       2.377   1.415  -0.013  0.00  0.00    -0.050 A 
ATOM     29  C   UNL     1       2.400   0.032  -0.021  0.00  0.00    +0.005 A 
ATOM     30  C   UNL     1       1.216  -0.679  -0.013  0.00  0.00    +0.023 A 
ATOM     31  C   UNL     1       0.002  -0.004   0.002  0.00  0.00    +0.033 A 
ATOM     32  C   UNL     1      -0.017   1.385   0.010  0.00  0.00    -0.029 A 
ATOM     33  C   UNL     1       1.171   2.090   0.002  0.00  0.00    +0.008 A 
ATOM     34  C   UNL     1      -1.331   2.121   0.020  0.00  0.00    +0.045 C 
ENDBRANCH  20  31
ENDBRANCH  19  25
ENDBRANCH   1  19
TORSDOF 4
