REMARK  Name = ZINC11012313
REMARK  9 active torsions:
REMARK  status: ('A' for Active; 'I' for Inactive)
REMARK    1  A    between atoms: C_1  and  C_2
REMARK    2  A    between atoms: C_5  and  C_8
REMARK    3  A    between atoms: C_9  and  C_32
REMARK    4  A    between atoms: C_17  and  C_19
REMARK    5  A    between atoms: C_19  and  N_53
REMARK    6  A    between atoms: C_20  and  N_53
REMARK    7  A    between atoms: C_21  and  C_22
REMARK    8  A    between atoms: C_21  and  N_53
REMARK    9  A    between atoms: C_24  and  N_29
REMARK                            x       y       z     vdW  Elec       q    Type
REMARK                         _______ _______ _______ _____ _____    ______ ____
ROOT
ATOM      1  C   UNL     1      -1.967   4.160   4.498  0.00  0.00    +0.007 A 
ATOM      2  C   UNL     1      -3.100   4.836   4.189  0.00  0.00    -0.003 A 
ATOM      3  S   UNL     1      -3.303   4.524   2.446  0.00  0.00    -0.073 S 
ATOM      4  C   UNL     1      -1.878   3.503   2.176  0.00  0.00    +0.116 A 
ATOM      5  C   UNL     1      -1.277   3.428   3.443  0.00  0.00    +0.080 A 
ATOM      6  C   UNL     1      -0.079   2.647   3.516  0.00  0.00    +0.260 A 
ATOM      7  O   UNL     1       0.514   2.522   4.573  0.00  0.00    -0.267 OA
ATOM      8  N   UNL     1       0.379   2.049   2.401  0.00  0.00    -0.312 N 
ATOM      9  H   UNL     1       1.188   1.515   2.445  0.00  0.00    +0.170 HD
ATOM     10  C   UNL     1      -0.267   2.181   1.214  0.00  0.00    +0.094 A 
ATOM     11  N   UNL     1      -1.362   2.886   1.115  0.00  0.00    -0.229 NA
ATOM     12  C   UNL     1      -3.977   5.655   5.099  0.00  0.00    +0.052 C 
ENDROOT
BRANCH   1  17
ATOM     13  C   UNL     1       0.083   4.177   9.879  0.00  0.00    +0.044 C 
ATOM     14  C   UNL     1      -0.454   4.173   8.470  0.00  0.00    -0.050 A 
ATOM     15  C   UNL     1      -1.675   3.582   8.201  0.00  0.00    +0.004 A 
ATOM     16  C   UNL     1      -2.171   3.575   6.913  0.00  0.00    +0.009 A 
ATOM     17  C   UNL     1      -1.440   4.165   5.883  0.00  0.00    -0.016 A 
ATOM     18  C   UNL     1      -0.207   4.753   6.161  0.00  0.00    +0.009 A 
ATOM     19  C   UNL     1       0.278   4.759   7.453  0.00  0.00    +0.004 A 
ENDBRANCH   1  17
BRANCH  10  20
ATOM     20  C   UNL     1       0.285   1.496  -0.010  0.00  0.00    -0.003 C 
BRANCH  20  22
ATOM     21  C   UNL     1      -1.905   1.165  -0.987  0.00  0.00    -0.095 C 
ATOM     22  N   UNL     1      -0.585   1.806  -1.163  0.00  0.00    +0.385 N 
ATOM     23  H   UNL     1      -0.713   2.824  -1.221  0.00  0.00    -0.081 HD
BRANCH  22  24
ATOM     24  C   UNL     1       0.044   1.331  -2.413  0.00  0.00    -0.041 C 
BRANCH  24  25
ATOM     25  C   UNL     1      -0.661   1.967  -3.583  0.00  0.00    -0.043 A 
ATOM     26  C   UNL     1      -1.519   1.216  -4.365  0.00  0.00    +0.036 A 
ATOM     27  C   UNL     1      -2.170   1.800  -5.435  0.00  0.00    +0.126 A 
ATOM     28  C   UNL     1      -1.956   3.134  -5.730  0.00  0.00    +0.034 A 
ATOM     29  C   UNL     1      -1.095   3.885  -4.952  0.00  0.00    +0.022 A 
ATOM     30  C   UNL     1      -0.447   3.301  -3.878  0.00  0.00    +0.042 A 
ATOM     31 CL   UNL     1       0.634   4.244  -2.900  0.00  0.00    -0.083 Cl
BRANCH  27  32
ATOM     32  N   UNL     1      -3.091   0.997  -6.269  0.00  0.00    +0.056 N 
ATOM     33  O   UNL     1      -3.662   1.510  -7.215  0.00  0.00    -0.126 OA
ATOM     34  O   UNL     1      -3.280  -0.178  -6.009  0.00  0.00    -0.126 OA
ENDBRANCH  27  32
ENDBRANCH  24  25
ENDBRANCH  22  24
ENDBRANCH  20  22
ENDBRANCH  10  20
TORSDOF 6
