REMARK  Name = ZINC44367798
REMARK  5 active torsions:
REMARK  status: ('A' for Active; 'I' for Inactive)
REMARK    1  A    between atoms: C_1  and  C_2
REMARK    2  A    between atoms: C_2  and  C_17
REMARK    3  A    between atoms: C_4  and  N_6
REMARK    4  A    between atoms: N_6  and  C_7
REMARK    5  A    between atoms: C_10  and  N_14
REMARK                            x       y       z     vdW  Elec       q    Type
REMARK                         _______ _______ _______ _____ _____    ______ ____
ROOT
ATOM      1  C   UNL     1       2.358  -0.352   2.977  0.00  0.00    +0.046 A 
ATOM      2  C   UNL     1       2.847  -1.634   2.758  0.00  0.00    +0.026 A 
ATOM      3  C   UNL     1       3.893  -2.112   3.522  0.00  0.00    +0.034 A 
ATOM      4  C   UNL     1       4.453  -1.318   4.506  0.00  0.00    +0.128 A 
ATOM      5  C   UNL     1       3.969  -0.042   4.728  0.00  0.00    +0.054 A 
ATOM      6  C   UNL     1       2.927   0.446   3.963  0.00  0.00    +0.064 A 
ATOM      7 CL   UNL     1       2.324   2.051   4.236  0.00  0.00    -0.082 Cl
ENDROOT
BRANCH   4   8
ATOM      8  N   UNL     1       5.573  -1.835   5.324  0.00  0.00    +0.056 N 
ATOM      9  O   UNL     1       5.997  -2.951   5.131  0.00  0.00    -0.126 OA
ATOM     10  O   UNL     1       6.064  -1.142   6.184  0.00  0.00    -0.126 OA
ENDBRANCH   4   8
BRANCH   1  11
ATOM     11  N   UNL     1       1.300   0.135   2.205  0.00  0.00    -0.339 N 
ATOM     12  H   UNL     1       0.962   1.032   2.357  0.00  0.00    +0.146 HD
BRANCH  11  16
ATOM     13  C   UNL     1      -0.019   1.526   0.010  0.00  0.00    +0.013 C 
ATOM     14  C   UNL     1       0.002  -0.004   0.002  0.00  0.00    -0.015 C 
ATOM     15  C   UNL     1      -0.825  -0.728   1.066  0.00  0.00    +0.031 C 
ATOM     16  C   UNL     1       0.701  -0.708   1.167  0.00  0.00    +0.077 C 
ATOM     17  C   UNL     1       0.102  -0.655  -1.379  0.00  0.00    +0.013 C 
ENDBRANCH  11  16
ENDBRANCH   1  11
TORSDOF 3
