REMARK  Name = ZINC37297049
REMARK  2 active torsions:
REMARK  status: ('A' for Active; 'I' for Inactive)
REMARK    1  A    between atoms: C_3  and  C_20
REMARK    2  A    between atoms: C_14  and  C_17
REMARK                            x       y       z     vdW  Elec       q    Type
REMARK                         _______ _______ _______ _____ _____    ______ ____
ROOT
ATOM      1  C   UNL     1       1.329  -0.675   1.277  0.00  0.00    +0.020 C 
ATOM      2  C   UNL     1       2.824  -0.424   1.071  0.00  0.00    +0.016 C 
ATOM      3  C   UNL     1       3.070   0.062  -0.359  0.00  0.00    +0.092 C 
ATOM      4  C   UNL     1       2.622  -1.021  -1.346  0.00  0.00    +0.122 C 
ATOM      5  N   UNL     1       1.224  -1.373  -1.059  0.00  0.00    -0.285 N 
ATOM      6  C   UNL     1       0.861  -1.767   0.309  0.00  0.00    +0.109 C 
ATOM      7  C   UNL     1       0.293  -1.334  -2.033  0.00  0.00    +0.305 C 
ATOM      8  O   UNL     1       0.550  -0.810  -3.099  0.00  0.00    -0.252 OA
ATOM      9  N   UNL     1      -0.923  -1.876  -1.824  0.00  0.00    -0.285 N 
ATOM     10  C   UNL     1      -1.754  -1.439  -0.693  0.00  0.00    +0.109 C 
ATOM     11  C   UNL     1      -3.129  -1.023  -1.224  0.00  0.00    +0.020 C 
ATOM     12  C   UNL     1      -3.728  -2.175  -2.035  0.00  0.00    +0.018 C 
ATOM     13  C   UNL     1      -2.823  -2.483  -3.230  0.00  0.00    +0.119 C 
ATOM     14  C   UNL     1      -1.446  -2.912  -2.726  0.00  0.00    +0.124 C 
ENDROOT
BRANCH   3  15
ATOM     15  C   UNL     1       4.538   0.341  -0.550  0.00  0.00    +0.215 C 
ATOM     16  O   UNL     1       5.313   0.169   0.367  0.00  0.00    -0.276 OA
ATOM     17  N   UNL     1       4.991   0.782  -1.741  0.00  0.00    -0.329 N 
ATOM     18  H   UNL     1       4.371   0.920  -2.474  0.00  0.00    +0.145 HD
ATOM     19  H   UNL     1       5.936   0.962  -1.864  0.00  0.00    +0.145 HD
ENDBRANCH   3  15
BRANCH  13  20
ATOM     20  C   UNL     1      -3.430  -3.595  -4.047  0.00  0.00    +0.361 C 
ATOM     21  O   UNL     1      -3.388  -3.549  -5.264  0.00  0.00    -0.246 OA
ATOM     22  O   UNL     1      -3.963  -4.540  -3.490  0.00  0.00    -0.246 OA
ENDBRANCH  13  20
TORSDOF 2
