REMARK  Name = ZINC20240458
REMARK  12 active torsions:
REMARK  status: ('A' for Active; 'I' for Inactive)
REMARK    1  A    between atoms: C_1  and  C_2
REMARK    2  A    between atoms: C_2  and  N_3
REMARK    3  A    between atoms: C_5  and  C_27
REMARK    4  A    between atoms: C_12  and  S_14
REMARK    5  A    between atoms: S_14  and  N_17
REMARK    6  A    between atoms: N_29  and  C_30
REMARK    7  A    between atoms: N_29  and  C_31
REMARK    8  A    between atoms: C_31  and  C_32
REMARK    9  A    between atoms: C_32  and  O_33
REMARK   10  A    between atoms: C_32  and  O_35
REMARK   11  A    between atoms: O_33  and  C_34
REMARK   12  A    between atoms: O_35  and  C_36
REMARK                            x       y       z     vdW  Elec       q    Type
REMARK                         _______ _______ _______ _____ _____    ______ ____
ROOT
ATOM      1  N   UNL     1       3.804   0.352   5.654  0.00  0.00    -0.346 N 
ATOM      2  C   UNL     1       5.070  -0.004   5.905  0.00  0.00    +0.103 A 
ATOM      3  C   UNL     1       6.142   0.604   5.286  0.00  0.00    +0.100 A 
ATOM      4  C   UNL     1       5.885   1.681   4.316  0.00  0.00    +0.202 A 
ATOM      5  O   UNL     1       6.797   2.249   3.742  0.00  0.00    -0.286 OA
ATOM      6  C   UNL     1       4.477   2.042   4.067  0.00  0.00    +0.048 A 
ATOM      7  C   UNL     1       3.471   1.348   4.761  0.00  0.00    +0.053 A 
ATOM      8  C   UNL     1       2.138   1.680   4.536  0.00  0.00    +0.028 A 
ATOM      9  C   UNL     1       1.819   2.681   3.645  0.00  0.00    +0.030 A 
ATOM     10  C   UNL     1       2.813   3.361   2.957  0.00  0.00    +0.106 A 
ATOM     11  C   UNL     1       4.139   3.050   3.164  0.00  0.00    +0.042 A 
ENDROOT
BRANCH   3  12
ATOM     12  C   UNL     1       7.519   0.184   5.590  0.00  0.00    +0.252 C 
ATOM     13  O   UNL     1       8.369   0.213   4.721  0.00  0.00    -0.270 OA
ATOM     14  N   UNL     1       7.838  -0.232   6.831  0.00  0.00    -0.296 N 
ATOM     15  C   UNL     1       6.794  -0.361   7.851  0.00  0.00    +0.132 C 
BRANCH  14  16
ATOM     16  C   UNL     1       9.228  -0.555   7.161  0.00  0.00    +0.169 C 
BRANCH  16  17
ATOM     17  C   UNL     1       9.934   0.701   7.678  0.00  0.00    +0.266 C 
BRANCH  17  18
ATOM     18  O   UNL     1       9.907   1.712   6.668  0.00  0.00    -0.353 OA
ATOM     19  C   UNL     1      10.970   2.661   6.768  0.00  0.00    +0.197 C 
ENDBRANCH  17  18
BRANCH  17  20
ATOM     20  O   UNL     1       9.265   1.176   8.847  0.00  0.00    -0.353 OA
ATOM     21  C   UNL     1       9.930   2.263   9.495  0.00  0.00    +0.197 C 
ENDBRANCH  17  20
ENDBRANCH  16  17
ENDBRANCH  14  16
ENDBRANCH   3  12
BRANCH  10  22
ATOM     22  S   UNL     1       2.379   4.633   1.817  0.00  0.00    +0.061 S 
ATOM     23  O   UNL     1       3.509   5.489   1.715  0.00  0.00    -0.153 OA
ATOM     24  O   UNL     1       1.097   5.106   2.207  0.00  0.00    -0.153 OA
BRANCH  22  25
ATOM     25  N   UNL     1       2.191   3.920   0.335  0.00  0.00    -0.172 NA
ATOM     26  C   UNL     1       3.321   3.784  -0.599  0.00  0.00    +0.114 C 
ATOM     27  C   UNL     1       3.595   2.293  -0.790  0.00  0.00    +0.052 C 
ATOM     28  C   UNL     1       2.316   1.543  -1.060  0.00  0.00    -0.042 A 
ATOM     29  C   UNL     1       2.417   0.292  -1.657  0.00  0.00    +0.004 A 
ATOM     30  C   UNL     1       1.286  -0.452  -1.920  0.00  0.00    +0.000 A 
ATOM     31  C   UNL     1       0.041   0.048  -1.589  0.00  0.00    +0.000 A 
ATOM     32  C   UNL     1      -0.062   1.291  -1.000  0.00  0.00    +0.005 A 
ATOM     33  C   UNL     1       1.075   2.043  -0.738  0.00  0.00    -0.028 A 
ATOM     34  C   UNL     1       0.891   3.398  -0.101  0.00  0.00    +0.144 C 
ENDBRANCH  22  25
ENDBRANCH  10  22
BRANCH   1  36
ATOM     35  C   UNL     1       2.203  -1.489   5.484  0.00  0.00    +0.027 C 
ATOM     36  C   UNL     1       2.726  -0.347   6.358  0.00  0.00    +0.118 C 
ENDBRANCH   1  36
TORSDOF 8
