REMARK  Name = ZINC39446840
REMARK  9 active torsions:
REMARK  status: ('A' for Active; 'I' for Inactive)
REMARK    1  A    between atoms: C_1  and  C_2
REMARK    2  A    between atoms: C_5  and  C_37
REMARK    3  A    between atoms: N_7  and  C_8
REMARK    4  A    between atoms: C_8  and  C_9
REMARK    5  A    between atoms: C_12  and  C_15
REMARK    6  A    between atoms: C_20  and  C_23
REMARK    7  A    between atoms: C_25  and  C_29
REMARK    8  A    between atoms: C_29  and  C_30
REMARK    9  A    between atoms: C_30  and  C_31
REMARK                            x       y       z     vdW  Elec       q    Type
REMARK                         _______ _______ _______ _____ _____    ______ ____
ROOT
ATOM      1  C   UNL     1       2.945  -2.458   6.860  0.00  0.00    +0.247 C 
ATOM      2  O   UNL     1       3.195  -3.631   7.056  0.00  0.00    -0.270 OA
ATOM      3  N   UNL     1       3.376  -1.522   7.728  0.00  0.00    -0.298 N 
ATOM      4  C   UNL     1       2.970  -0.118   7.578  0.00  0.00    +0.108 C 
ATOM      5  C   UNL     1       2.362   0.364   8.899  0.00  0.00    +0.025 C 
ATOM      6  C   UNL     1       3.358   0.115  10.035  0.00  0.00    +0.022 C 
ATOM      7  C   UNL     1       3.638  -1.385  10.150  0.00  0.00    +0.025 C 
ATOM      8  C   UNL     1       4.255  -1.887   8.847  0.00  0.00    +0.108 C 
ENDROOT
BRANCH   1  12
ATOM      9  C   UNL     1       0.712  -1.310   3.433  0.00  0.00    -0.032 A 
ATOM     10  C   UNL     1       1.802  -0.555   3.830  0.00  0.00    +0.006 A 
ATOM     11  C   UNL     1       2.531  -0.922   4.942  0.00  0.00    +0.013 A 
ATOM     12  C   UNL     1       2.167  -2.058   5.667  0.00  0.00    +0.037 A 
ATOM     13  C   UNL     1       1.067  -2.815   5.261  0.00  0.00    +0.013 A 
ATOM     14  C   UNL     1       0.343  -2.434   4.151  0.00  0.00    +0.006 A 
BRANCH   9  15
ATOM     15  C   UNL     1      -0.080  -0.902   2.218  0.00  0.00    +0.139 C 
BRANCH  15  21
ATOM     16  C   UNL     1      -3.290  -0.538   1.474  0.00  0.00    +0.030 C 
ATOM     17  C   UNL     1      -2.036   0.338   1.466  0.00  0.00    +0.096 C 
ATOM     18  C   UNL     1      -2.396   1.791   1.701  0.00  0.00    +0.011 C 
ATOM     19  C   UNL     1      -1.560   2.282   2.580  0.00  0.00    -0.005 C 
ATOM     20  N   UNL     1      -0.630   1.325   2.995  0.00  0.00    -0.354 NA
ATOM     21  N   UNL     1      -1.160   0.009   2.620  0.00  0.00    -0.235 NA
ATOM     22  C   UNL     1      -1.596   3.703   3.083  0.00  0.00    +0.059 C 
ATOM     23  H   UNL     1       0.253   1.482   2.533  0.00  0.00    +0.141 HD
ATOM     24  H   UNL     1      -0.509   1.375   3.996  0.00  0.00    +0.141 HD
ENDBRANCH  15  21
ENDBRANCH   9  15
ENDBRANCH   1  12
BRANCH   6  25
ATOM     25  C   UNL     1       2.768   0.627  11.351  0.00  0.00    +0.159 C 
ATOM     26  C   UNL     1       3.759   0.452  12.487  0.00  0.00    -0.023 C 
ATOM     27  C   UNL     1       3.138  -0.374  13.331  0.00  0.00    +0.136 C 
ATOM     28  N   UNL     1       1.919  -0.716  12.859  0.00  0.00    -0.162 NA
ATOM     29  N   UNL     1       1.628  -0.207  11.769  0.00  0.00    -0.180 NA
BRANCH  26  30
ATOM     30  C   UNL     1       5.128   1.067  12.629  0.00  0.00    +0.039 C 
BRANCH  30  31
ATOM     31  C   UNL     1       6.153   0.206  11.889  0.00  0.00    +0.039 C 
BRANCH  31  32
ATOM     32  C   UNL     1       7.522   0.822  12.031  0.00  0.00    -0.047 A 
ATOM     33  C   UNL     1       7.963   1.746  11.102  0.00  0.00    +0.003 A 
ATOM     34  C   UNL     1       9.218   2.311  11.232  0.00  0.00    +0.000 A 
ATOM     35  C   UNL     1      10.031   1.952  12.291  0.00  0.00    +0.000 A 
ATOM     36  C   UNL     1       9.589   1.028  13.220  0.00  0.00    +0.000 A 
ATOM     37  C   UNL     1       8.333   0.467  13.092  0.00  0.00    +0.003 A 
ENDBRANCH  31  32
ENDBRANCH  30  31
ENDBRANCH  26  30
ENDBRANCH   6  25
TORSDOF 7
