REMARK  Name = ZINC36546779
REMARK  14 active torsions:
REMARK  status: ('A' for Active; 'I' for Inactive)
REMARK    1  A    between atoms: C_1  and  C_2
REMARK    2  A    between atoms: C_2  and  C_32
REMARK    3  A    between atoms: C_3  and  C_4
REMARK    4  A    between atoms: N_6  and  C_7
REMARK    5  A    between atoms: N_6  and  C_14
REMARK    6  A    between atoms: C_14  and  C_16
REMARK    7  A    between atoms: C_14  and  C_25
REMARK    8  A    between atoms: C_17  and  O_24
REMARK    9  A    between atoms: C_19  and  O_23
REMARK   10  A    between atoms: C_21  and  O_22
REMARK   11  A    between atoms: N_27  and  C_28
REMARK   12  A    between atoms: C_28  and  C_29
REMARK   13  A    between atoms: C_28  and  C_30
REMARK   14  A    between atoms: C_28  and  C_31
REMARK                            x       y       z     vdW  Elec       q    Type
REMARK                         _______ _______ _______ _____ _____    ______ ____
ROOT
ATOM      1  C   UNL     1       2.566   0.101   4.105  0.00  0.00    +0.204 C 
ENDROOT
BRANCH   1   2
ATOM      2  C   UNL     1       2.127  -0.419   5.449  0.00  0.00    +0.065 A 
ATOM      3  C   UNL     1       2.095  -1.784   5.688  0.00  0.00    +0.129 A 
ATOM      4  C   UNL     1       1.691  -2.263   6.926  0.00  0.00    +0.091 A 
ATOM      5  C   UNL     1       1.318  -1.375   7.924  0.00  0.00    +0.124 A 
ATOM      6  C   UNL     1       1.351  -0.009   7.685  0.00  0.00    +0.091 A 
ATOM      7  C   UNL     1       1.760   0.469   6.449  0.00  0.00    +0.129 A 
BRANCH   7   8
ATOM      8  O   UNL     1       1.796   1.807   6.217  0.00  0.00    -0.506 OA
ATOM      9  H   UNL     1       0.970   2.168   5.866  0.00  0.00    +0.292 HD
ENDBRANCH   7   8
BRANCH   5  10
ATOM     10  O   UNL     1       0.921  -1.844   9.136  0.00  0.00    -0.507 OA
ATOM     11  H   UNL     1       1.642  -1.950   9.772  0.00  0.00    +0.292 HD
ENDBRANCH   5  10
BRANCH   3  12
ATOM     12  O   UNL     1       2.460  -2.654   4.710  0.00  0.00    -0.506 OA
ATOM     13  H   UNL     1       3.401  -2.876   4.711  0.00  0.00    +0.292 HD
ENDBRANCH   3  12
ENDBRANCH   1   2
BRANCH   1  14
ATOM     14  C   UNL     1       3.907  -0.490   3.751  0.00  0.00    +0.239 C 
ATOM     15  O   UNL     1       4.028  -1.163   2.750  0.00  0.00    -0.273 OA
ATOM     16  N   UNL     1       4.971  -0.271   4.549  0.00  0.00    -0.309 N 
ATOM     17  H   UNL     1       4.874   0.267   5.350  0.00  0.00    +0.149 HD
BRANCH  16  18
ATOM     18  C   UNL     1       6.274  -0.846   4.206  0.00  0.00    +0.026 C 
ATOM     19  C   UNL     1       6.721  -0.318   2.841  0.00  0.00    +0.031 C 
ATOM     20  C   UNL     1       7.302  -0.448   5.267  0.00  0.00    +0.031 C 
ATOM     21  C   UNL     1       6.161  -2.370   4.151  0.00  0.00    +0.031 C 
ENDBRANCH  16  18
ENDBRANCH   1  14
BRANCH   1  24
ATOM     22  C   UNL     1       1.046   0.660   2.284  0.00  0.00    +0.245 C 
ATOM     23  O   UNL     1       1.380   1.823   2.401  0.00  0.00    -0.270 OA
ATOM     24  N   UNL     1       1.582  -0.280   3.088  0.00  0.00    -0.250 N 
BRANCH  24  25
ATOM     25  C   UNL     1       1.198  -1.618   2.953  0.00  0.00    +0.056 A 
ATOM     26  C   UNL     1       1.904  -2.463   2.107  0.00  0.00    +0.025 A 
ATOM     27  C   UNL     1       1.523  -3.784   1.976  0.00  0.00    +0.002 A 
ATOM     28  C   UNL     1       0.438  -4.266   2.686  0.00  0.00    +0.002 A 
ATOM     29  C   UNL     1      -0.269  -3.428   3.529  0.00  0.00    +0.022 A 
ATOM     30  C   UNL     1       0.112  -2.107   3.670  0.00  0.00    +0.062 A 
ATOM     31 CL   UNL     1      -0.771  -1.057   4.734  0.00  0.00    -0.082 Cl
ENDBRANCH  24  25
BRANCH  22  34
ATOM     32  C   UNL     1      -0.056   2.647   0.616  0.00  0.00    +0.039 C 
ATOM     33  C   UNL     1      -0.470   1.205   0.470  0.00  0.00    -0.071 C 
ATOM     34  C   UNL     1       0.058   0.278   1.264  0.00  0.00    +0.066 C 
ATOM     35  C   UNL     1      -1.483   0.814  -0.575  0.00  0.00    +0.039 C 
ENDBRANCH  22  34
ENDBRANCH   1  24
TORSDOF 9
