REMARK  Name = ZINC35677631
REMARK  9 active torsions:
REMARK  status: ('A' for Active; 'I' for Inactive)
REMARK    1  A    between atoms: C_1  and  C_2
REMARK    2  A    between atoms: C_2  and  C_3
REMARK    3  A    between atoms: C_2  and  C_4
REMARK    4  A    between atoms: C_2  and  C_5
REMARK    5  A    between atoms: C_8  and  C_11
REMARK    6  A    between atoms: C_11  and  O_13
REMARK    7  A    between atoms: O_13  and  C_14
REMARK    8  A    between atoms: C_17  and  C_20
REMARK    9  A    between atoms: C_32  and  O_34
REMARK                            x       y       z     vdW  Elec       q    Type
REMARK                         _______ _______ _______ _____ _____    ______ ____
ROOT
ATOM      1  C   UNL     1       4.481  -1.998  -6.122  0.00  0.00    +0.132 A 
ATOM      2  C   UNL     1       3.667  -2.721  -6.983  0.00  0.00    +0.047 A 
ATOM      3  C   UNL     1       4.178  -3.205  -8.171  0.00  0.00    +0.011 A 
ATOM      4  C   UNL     1       5.500  -2.971  -8.503  0.00  0.00    -0.005 A 
ATOM      5  C   UNL     1       6.313  -2.251  -7.647  0.00  0.00    +0.011 A 
ATOM      6  C   UNL     1       5.805  -1.759  -6.460  0.00  0.00    +0.047 A 
ENDROOT
BRANCH   4   7
ATOM      7  C   UNL     1       6.055  -3.502  -9.800  0.00  0.00    +0.224 C 
ATOM      8  N   UNL     1       7.139  -2.614 -10.258  0.00  0.00    -0.313 N 
ATOM      9  C   UNL     1       6.754  -1.492 -10.956  0.00  0.00    +0.080 A 
ATOM     10  C   UNL     1       5.542  -1.434 -11.654  0.00  0.00    +0.068 A 
ATOM     11  C   UNL     1       5.266  -0.181 -12.332  0.00  0.00    -0.023 A 
ATOM     12  C   UNL     1       6.232   0.756 -12.196  0.00  0.00    -0.005 A 
ATOM     13  S   UNL     1       7.471  -0.016 -11.191  0.00  0.00    -0.078 S 
ATOM     14  C   UNL     1       6.237   2.136 -12.775  0.00  0.00    +0.043 C 
ATOM     15  C   UNL     1       5.152   2.208 -13.860  0.00  0.00    +0.005 C 
ATOM     16  C   UNL     1       3.855   1.613 -13.305  0.00  0.00    +0.005 C 
ATOM     17  C   UNL     1       4.006   0.100 -13.139  0.00  0.00    +0.037 C 
ATOM     18  C   UNL     1       4.682  -2.646 -11.635  0.00  0.00    +0.220 C 
ATOM     19  N   UNL     1       4.979  -3.584 -10.779  0.00  0.00    -0.223 NA
ATOM     20  H   UNL     1       8.072  -2.809 -10.077  0.00  0.00    +0.149 HD
BRANCH  18  21
ATOM     21  O   UNL     1       3.628  -2.770 -12.474  0.00  0.00    -0.492 OA
ATOM     22  H   UNL     1       3.140  -3.599 -12.373  0.00  0.00    +0.294 HD
ENDBRANCH  18  21
ENDBRANCH   4   7
BRANCH   1  23
ATOM     23  O   UNL     1       3.980  -1.520  -4.953  0.00  0.00    -0.422 OA
BRANCH  23  24
ATOM     24  C   UNL     1       3.673  -0.209  -4.885  0.00  0.00    +0.344 C 
ATOM     25  O   UNL     1       3.929   0.523  -5.819  0.00  0.00    -0.245 OA
BRANCH  24  29
ATOM     26  C   UNL     1       1.811   1.357  -1.405  0.00  0.00    -0.042 A 
ATOM     27  C   UNL     1       2.102   2.195  -2.467  0.00  0.00    +0.005 A 
ATOM     28  C   UNL     1       2.707   1.693  -3.600  0.00  0.00    +0.015 A 
ATOM     29  C   UNL     1       3.026   0.336  -3.674  0.00  0.00    +0.059 A 
ATOM     30  C   UNL     1       2.730  -0.504  -2.599  0.00  0.00    +0.015 A 
ATOM     31  C   UNL     1       2.129   0.012  -1.469  0.00  0.00    +0.005 A 
BRANCH  26  33
ATOM     32  C   UNL     1       2.058   1.688   1.040  0.00  0.00    +0.015 C 
ATOM     33  C   UNL     1       1.150   1.914  -0.170  0.00  0.00    -0.013 C 
ATOM     34  C   UNL     1      -0.187   1.204   0.056  0.00  0.00    +0.015 C 
ATOM     35  C   UNL     1       0.907   3.413  -0.353  0.00  0.00    +0.015 C 
ENDBRANCH  26  33
ENDBRANCH  24  29
ENDBRANCH  23  24
ENDBRANCH   1  23
TORSDOF 6
