REMARK  Name = ZINC36527335
REMARK  15 active torsions:
REMARK  status: ('A' for Active; 'I' for Inactive)
REMARK    1  A    between atoms: C_1  and  C_2
REMARK    2  A    between atoms: C_2  and  C_3
REMARK    3  A    between atoms: C_3  and  C_5
REMARK    4  A    between atoms: C_3  and  C_11
REMARK    5  A    between atoms: N_13  and  C_14
REMARK    6  A    between atoms: N_13  and  C_15
REMARK    7  A    between atoms: C_15  and  C_17
REMARK    8  A    between atoms: C_15  and  C_26
REMARK    9  A    between atoms: C_18  and  O_25
REMARK   10  A    between atoms: C_20  and  O_24
REMARK   11  A    between atoms: C_22  and  O_23
REMARK   12  A    between atoms: N_28  and  C_29
REMARK   13  A    between atoms: C_29  and  S_30
REMARK   14  A    between atoms: S_30  and  C_33
REMARK   15  A    between atoms: C_36  and  C_39
REMARK                            x       y       z     vdW  Elec       q    Type
REMARK                         _______ _______ _______ _____ _____    ______ ____
ROOT
ATOM      1  C   UNL     1       3.339   1.798  -1.630  0.00  0.00    +0.199 C 
ENDROOT
BRANCH   1   2
ATOM      2  C   UNL     1       2.830   2.293  -0.300  0.00  0.00    +0.065 A 
ATOM      3  C   UNL     1       2.732   3.655  -0.058  0.00  0.00    +0.129 A 
ATOM      4  C   UNL     1       2.264   4.109   1.165  0.00  0.00    +0.091 A 
ATOM      5  C   UNL     1       1.893   3.202   2.146  0.00  0.00    +0.124 A 
ATOM      6  C   UNL     1       1.989   1.840   1.903  0.00  0.00    +0.091 A 
ATOM      7  C   UNL     1       2.454   1.385   0.679  0.00  0.00    +0.129 A 
BRANCH   7   8
ATOM      8  O   UNL     1       2.544   0.051   0.439  0.00  0.00    -0.506 OA
ATOM      9  H   UNL     1       3.395  -0.336   0.686  0.00  0.00    +0.292 HD
ENDBRANCH   7   8
BRANCH   5  10
ATOM     10  O   UNL     1       1.434   3.648   3.345  0.00  0.00    -0.507 OA
ATOM     11  H   UNL     1       0.476   3.775   3.378  0.00  0.00    +0.292 HD
ENDBRANCH   5  10
BRANCH   3  12
ATOM     12  O   UNL     1       3.096   4.543  -1.020  0.00  0.00    -0.506 OA
ATOM     13  H   UNL     1       2.361   4.861  -1.560  0.00  0.00    +0.292 HD
ENDBRANCH   3  12
ENDBRANCH   1   2
BRANCH   1  16
ATOM     14  C   UNL     1       2.432  -0.117  -2.832  0.00  0.00    +0.224 C 
ATOM     15  O   UNL     1       3.522  -0.645  -2.760  0.00  0.00    -0.275 OA
ATOM     16  N   UNL     1       2.253   1.129  -2.350  0.00  0.00    -0.288 N 
ATOM     17  C   UNL     1       0.974   1.814  -2.548  0.00  0.00    +0.133 C 
BRANCH  14  18
ATOM     18  C   UNL     1       1.277  -0.855  -3.459  0.00  0.00    +0.105 C 
BRANCH  18  19
ATOM     19  C   UNL     1       1.299  -0.646  -4.952  0.00  0.00    -0.036 A 
ATOM     20  C   UNL     1       2.393  -1.056  -5.691  0.00  0.00    +0.004 A 
ATOM     21  C   UNL     1       2.412  -0.864  -7.060  0.00  0.00    +0.000 A 
ATOM     22  C   UNL     1       1.338  -0.263  -7.689  0.00  0.00    +0.000 A 
ATOM     23  C   UNL     1       0.244   0.146  -6.950  0.00  0.00    +0.000 A 
ATOM     24  C   UNL     1       0.223  -0.050  -5.582  0.00  0.00    +0.004 A 
ENDBRANCH  18  19
BRANCH  18  26
ATOM     25  C   UNL     1       1.234  -2.575  -1.647  0.00  0.00    +0.005 C 
ATOM     26  C   UNL     1       1.399  -2.349  -3.152  0.00  0.00    +0.014 C 
ENDBRANCH  18  26
ENDBRANCH  14  18
ENDBRANCH   1  16
BRANCH   1  27
ATOM     27  C   UNL     1       3.837   2.966  -2.443  0.00  0.00    +0.240 C 
ATOM     28  O   UNL     1       3.073   3.571  -3.165  0.00  0.00    -0.273 OA
ATOM     29  N   UNL     1       5.130   3.337  -2.367  0.00  0.00    -0.294 N 
ATOM     30  H   UNL     1       5.753   2.818  -1.836  0.00  0.00    +0.150 HD
BRANCH  29  31
ATOM     31  C   UNL     1       5.594   4.525  -3.088  0.00  0.00    +0.278 C 
BRANCH  31  32
ATOM     32  S   UNL     1       6.017   5.827  -1.898  0.00  0.00    +0.013 S 
ATOM     33  O   UNL     1       6.541   6.960  -2.577  0.00  0.00    -0.168 OA
ATOM     34  O   UNL     1       4.976   5.974  -0.942  0.00  0.00    -0.168 OA
BRANCH  32  35
ATOM     35  C   UNL     1       7.379   5.181  -0.985  0.00  0.00    +0.090 A 
ATOM     36  C   UNL     1       7.153   4.422   0.148  0.00  0.00    +0.027 A 
ATOM     37  C   UNL     1       8.221   3.915   0.864  0.00  0.00    +0.005 A 
ATOM     38  C   UNL     1       9.515   4.167   0.448  0.00  0.00    -0.050 A 
ATOM     39  C   UNL     1       9.741   4.926  -0.686  0.00  0.00    +0.005 A 
ATOM     40  C   UNL     1       8.672   5.429  -1.405  0.00  0.00    +0.027 A 
ATOM     41  C   UNL     1      10.679   3.615   1.229  0.00  0.00    +0.044 C 
ENDBRANCH  32  35
ENDBRANCH  31  32
ENDBRANCH  29  31
ENDBRANCH   1  27
TORSDOF 12
