REMARK  Name = ZINC03357406
REMARK  9 active torsions:
REMARK  status: ('A' for Active; 'I' for Inactive)
REMARK    1  A    between atoms: C_1  and  C_2
REMARK    2  A    between atoms: C_2  and  N_3
REMARK    3  A    between atoms: C_7  and  C_9
REMARK    4  A    between atoms: C_9  and  C_11
REMARK    5  A    between atoms: C_9  and  O_12
REMARK    6  A    between atoms: O_12  and  C_13
REMARK    7  A    between atoms: C_13  and  C_15
REMARK    8  A    between atoms: C_18  and  S_21
REMARK    9  A    between atoms: S_21  and  N_24
REMARK                            x       y       z     vdW  Elec       q    Type
REMARK                         _______ _______ _______ _____ _____    ______ ____
ROOT
ATOM      1  C   UNL     1       3.930  -3.389  -2.874  0.00  0.00    +0.059 A 
ATOM      2  C   UNL     1       4.600  -2.172  -2.732  0.00  0.00    +0.017 A 
ATOM      3  C   UNL     1       4.490  -1.462  -1.555  0.00  0.00    +0.029 A 
ATOM      4  C   UNL     1       3.718  -1.952  -0.516  0.00  0.00    +0.109 A 
ATOM      5  C   UNL     1       3.056  -3.160  -0.649  0.00  0.00    +0.029 A 
ATOM      6  C   UNL     1       3.152  -3.878  -1.823  0.00  0.00    +0.017 A 
ENDROOT
BRANCH   4   7
ATOM      7  S   UNL     1       3.584  -1.038   0.984  0.00  0.00    +0.075 S 
ATOM      8  O   UNL     1       4.738  -0.213   1.062  0.00  0.00    -0.150 OA
ATOM      9  O   UNL     1       3.245  -1.972   2.000  0.00  0.00    -0.150 OA
BRANCH   7  10
ATOM     10  N   UNL     1       2.286  -0.022   0.823  0.00  0.00    -0.203 N 
ATOM     11  C   UNL     1       2.474   1.366   0.380  0.00  0.00    +0.132 C 
ATOM     12  C   UNL     1       1.621   2.267   1.283  0.00  0.00    +0.025 C 
ATOM     13  C   UNL     1       0.148   1.908   1.088  0.00  0.00    +0.038 C 
ATOM     14  C   UNL     1      -0.058   0.424   1.244  0.00  0.00    -0.025 A 
ATOM     15  C   UNL     1       0.992  -0.471   1.108  0.00  0.00    +0.054 A 
ATOM     16  C   UNL     1       0.765  -1.835   1.254  0.00  0.00    +0.025 A 
ATOM     17  C   UNL     1      -0.504  -2.299   1.538  0.00  0.00    +0.002 A 
ATOM     18  C   UNL     1      -1.549  -1.405   1.677  0.00  0.00    +0.000 A 
ATOM     19  C   UNL     1      -1.327  -0.049   1.530  0.00  0.00    +0.005 A 
ENDBRANCH   7  10
ENDBRANCH   4   7
BRANCH   1  20
ATOM     20  C   UNL     1       4.042  -4.155  -4.133  0.00  0.00    +0.340 C 
ATOM     21  O   UNL     1       4.719  -3.727  -5.046  0.00  0.00    -0.245 OA
BRANCH  20  22
ATOM     22  O   UNL     1       3.394  -5.329  -4.267  0.00  0.00    -0.449 OA
BRANCH  22  23
ATOM     23  C   UNL     1       3.550  -6.027  -5.530  0.00  0.00    +0.259 C 
ATOM     24  C   UNL     1       2.455  -5.577  -6.500  0.00  0.00    +0.062 C 
BRANCH  23  29
ATOM     25  N   UNL     1       3.765 -10.555  -7.130  0.00  0.00    -0.299 N 
ATOM     26  C   UNL     1       3.552  -9.698  -6.112  0.00  0.00    +0.306 C 
ATOM     27  O   UNL     1       3.270 -10.122  -5.009  0.00  0.00    -0.252 OA
ATOM     28  N   UNL     1       3.652  -8.370  -6.318  0.00  0.00    -0.237 N 
ATOM     29  C   UNL     1       3.438  -7.512  -5.300  0.00  0.00    +0.261 C 
ATOM     30  O   UNL     1       3.157  -7.936  -4.200  0.00  0.00    -0.271 OA
ATOM     31  H   UNL     1       3.991 -10.216  -8.011  0.00  0.00    +0.150 HD
ATOM     32  H   UNL     1       3.877  -8.031  -7.199  0.00  0.00    +0.159 HD
BRANCH  25  34
ATOM     33  C   UNL     1       3.945 -12.740  -8.214  0.00  0.00    +0.024 C 
ATOM     34  C   UNL     1       3.657 -11.999  -6.907  0.00  0.00    +0.102 C 
ENDBRANCH  25  34
ENDBRANCH  23  29
ENDBRANCH  22  23
ENDBRANCH  20  22
ENDBRANCH   1  20
TORSDOF 7
