REMARK  Name = ZINC20907248
REMARK  7 active torsions:
REMARK  status: ('A' for Active; 'I' for Inactive)
REMARK    1  A    between atoms: C_1  and  C_2
REMARK    2  A    between atoms: C_2  and  O_3
REMARK    3  A    between atoms: O_3  and  C_4
REMARK    4  A    between atoms: C_7  and  C_10
REMARK    5  A    between atoms: N_24  and  C_25
REMARK    6  A    between atoms: C_25  and  C_26
REMARK    7  A    between atoms: C_29  and  C_31
REMARK                            x       y       z     vdW  Elec       q    Type
REMARK                         _______ _______ _______ _____ _____    ______ ____
ROOT
ATOM      1  C   UNL     1      -2.171  -5.832   0.029  0.00  0.00    +0.134 C 
ATOM      2  C   UNL     1      -2.438  -6.342   1.426  0.00  0.00    +0.042 A 
ATOM      3  C   UNL     1      -3.155  -7.461   1.678  0.00  0.00    -0.016 A 
ATOM      4  C   UNL     1      -3.199  -7.626   3.114  0.00  0.00    +0.003 A 
ATOM      5  C   UNL     1      -3.787  -8.585   3.944  0.00  0.00    +0.010 A 
ATOM      6  C   UNL     1      -3.622  -8.422   5.297  0.00  0.00    +0.001 A 
ATOM      7  C   UNL     1      -2.908  -7.361   5.829  0.00  0.00    +0.002 A 
ATOM      8  C   UNL     1      -2.315  -6.397   5.032  0.00  0.00    +0.026 A 
ATOM      9  C   UNL     1      -2.466  -6.537   3.654  0.00  0.00    +0.047 A 
ATOM     10  N   UNL     1      -2.022  -5.784   2.604  0.00  0.00    -0.356 N 
ATOM     11  H   UNL     1      -1.490  -4.976   2.682  0.00  0.00    +0.166 HD
ATOM     12  C   UNL     1      -3.760  -8.322   0.598  0.00  0.00    +0.053 C 
ATOM     13  C   UNL     1      -3.101  -7.943  -0.736  0.00  0.00    +0.090 C 
ATOM     14  N   UNL     1      -3.114  -6.481  -0.896  0.00  0.00    -0.283 NA
ENDROOT
BRANCH   1  18
ATOM     15  C   UNL     1      -2.732  -1.597  -0.087  0.00  0.00    +0.121 A 
ATOM     16  C   UNL     1      -1.452  -2.127  -0.004  0.00  0.00    +0.046 A 
ATOM     17  C   UNL     1      -1.274  -3.496   0.034  0.00  0.00    +0.009 A 
ATOM     18  C   UNL     1      -2.369  -4.339  -0.011  0.00  0.00    -0.024 A 
ATOM     19  C   UNL     1      -3.645  -3.814  -0.095  0.00  0.00    +0.009 A 
ATOM     20  C   UNL     1      -3.829  -2.445  -0.126  0.00  0.00    +0.046 A 
BRANCH  15  21
ATOM     21  O   UNL     1      -2.910  -0.251  -0.123  0.00  0.00    -0.492 OA
BRANCH  21  23
ATOM     22  C   UNL     1      -2.132   2.037  -0.130  0.00  0.00    +0.048 C 
ATOM     23  C   UNL     1      -1.735   0.561  -0.079  0.00  0.00    +0.225 C 
ENDBRANCH  21  23
ENDBRANCH  15  21
ENDBRANCH   1  18
BRANCH  14  24
ATOM     24  C   UNL     1      -2.835  -6.098  -2.287  0.00  0.00    +0.157 C 
BRANCH  24  25
ATOM     25  C   UNL     1      -4.050  -6.368  -3.136  0.00  0.00    +0.099 A 
ATOM     26  N   UNL     1      -5.082  -7.083  -2.781  0.00  0.00    -0.349 N 
ATOM     27  C   UNL     1      -5.970  -7.107  -3.786  0.00  0.00    +0.105 A 
ATOM     28  C   UNL     1      -5.470  -6.379  -4.802  0.00  0.00    +0.030 A 
ATOM     29  N   UNL     1      -4.254  -5.906  -4.388  0.00  0.00    -0.346 N 
ATOM     30  C   UNL     1      -6.124  -6.129  -6.136  0.00  0.00    +0.065 C 
ATOM     31  H   UNL     1      -3.650  -5.345  -4.900  0.00  0.00    +0.167 HD
ATOM     32  H   UNL     1      -5.190  -7.527  -1.925  0.00  0.00    +0.166 HD
ENDBRANCH  24  25
ENDBRANCH  14  24
TORSDOF 5
