REMARK  Name = ZINC36589899
REMARK  9 active torsions:
REMARK  status: ('A' for Active; 'I' for Inactive)
REMARK    1  A    between atoms: C_1  and  C_2
REMARK    2  A    between atoms: C_2  and  C_3
REMARK    3  A    between atoms: C_3  and  C_5
REMARK    4  A    between atoms: C_3  and  C_6
REMARK    5  A    between atoms: C_6  and  C_8
REMARK    6  A    between atoms: C_6  and  N_12
REMARK    7  A    between atoms: C_8  and  O_10
REMARK    8  A    between atoms: O_10  and  C_11
REMARK    9  A    between atoms: C_24  and  C_26
REMARK                            x       y       z     vdW  Elec       q    Type
REMARK                         _______ _______ _______ _____ _____    ______ ____
ROOT
ATOM      1  N   UNL     1      -0.218  -2.511   2.939  0.00  0.00    -0.286 N 
ATOM      2  C   UNL     1       0.770  -1.891   3.615  0.00  0.00    +0.304 C 
ATOM      3  O   UNL     1       0.788  -0.677   3.687  0.00  0.00    -0.253 OA
ATOM      4  N   UNL     1       1.738  -2.616   4.210  0.00  0.00    -0.273 N 
ATOM      5  C   UNL     1       2.759  -1.967   5.046  0.00  0.00    +0.116 C 
ATOM      6  C   UNL     1       2.612  -2.458   6.491  0.00  0.00    +0.074 C 
ATOM      7  C   UNL     1       2.431  -3.954   6.480  0.00  0.00    +0.040 A 
ATOM      8  C   UNL     1       2.066  -4.678   5.400  0.00  0.00    +0.062 A 
ATOM      9  N   UNL     1       2.003  -5.961   5.763  0.00  0.00    -0.348 N 
ATOM     10  C   UNL     1       2.317  -6.064   7.028  0.00  0.00    +0.171 A 
ATOM     11  N   UNL     1       2.592  -4.830   7.510  0.00  0.00    -0.349 N 
ATOM     12  H   UNL     1       2.855  -4.610   8.418  0.00  0.00    +0.166 HD
ATOM     13  C   UNL     1       1.794  -4.080   4.045  0.00  0.00    +0.159 C 
ATOM     14  H   UNL     1      -0.264  -3.480   2.928  0.00  0.00    +0.151 HD
ATOM     15  H   UNL     1       1.762  -6.699   5.182  0.00  0.00    +0.167 HD
ENDROOT
BRANCH  13  16
ATOM     16  C   UNL     1       2.904  -4.446   3.095  0.00  0.00    +0.017 A 
ATOM     17  C   UNL     1       4.085  -4.973   3.582  0.00  0.00    +0.047 A 
ATOM     18  C   UNL     1       5.105  -5.311   2.709  0.00  0.00    +0.124 A 
ATOM     19  C   UNL     1       4.942  -5.120   1.348  0.00  0.00    +0.041 A 
ATOM     20  C   UNL     1       3.762  -4.592   0.860  0.00  0.00    +0.041 A 
ATOM     21  C   UNL     1       2.740  -4.260   1.733  0.00  0.00    +0.129 A 
ATOM     22  F   UNL     1       1.583  -3.749   1.256  0.00  0.00    -0.205 F 
ATOM     23  F   UNL     1       6.260  -5.826   3.186  0.00  0.00    -0.205 F 
ENDBRANCH  13  16
BRANCH   1  24
ATOM     24  C   UNL     1      -1.222  -1.722   2.221  0.00  0.00    +0.186 C 
BRANCH  24  25
ATOM     25  C   UNL     1      -2.337  -1.315   3.187  0.00  0.00    +0.017 C 
ATOM     26  C   UNL     1      -2.886  -2.561   3.885  0.00  0.00    +0.010 C 
BRANCH  25  28
ATOM     27  C   UNL     1      -1.361   0.956   3.552  0.00  0.00    +0.004 C 
ATOM     28  C   UNL     1      -1.778  -0.349   4.234  0.00  0.00    +0.002 C 
ENDBRANCH  25  28
ENDBRANCH  24  25
BRANCH  24  29
ATOM     29  C   UNL     1      -1.802  -2.546   1.102  0.00  0.00    +0.328 C 
ATOM     30  O   UNL     1      -1.705  -3.750   1.125  0.00  0.00    -0.249 OA
BRANCH  29  31
ATOM     31  O   UNL     1      -2.428  -1.943   0.079  0.00  0.00    -0.467 OA
ATOM     32  C   UNL     1      -3.052  -2.789  -0.890  0.00  0.00    +0.280 C 
ENDBRANCH  29  31
ENDBRANCH  24  29
ENDBRANCH   1  24
TORSDOF 6
