REMARK  Name = ZINC65190343
REMARK  6 active torsions:
REMARK  status: ('A' for Active; 'I' for Inactive)
REMARK    1  A    between atoms: C_1  and  C_2
REMARK    2  A    between atoms: C_2  and  N_3
REMARK    3  A    between atoms: N_6  and  N_7
REMARK    4  A    between atoms: C_8  and  C_10
REMARK    5  A    between atoms: C_11  and  C_12
REMARK    6  A    between atoms: C_15  and  N_18
REMARK                            x       y       z     vdW  Elec       q    Type
REMARK                         _______ _______ _______ _____ _____    ______ ____
ROOT
ATOM      1  C   UNL     1       3.238  -0.842   5.462  0.00  0.00    +0.069 C 
ATOM      2  C   UNL     1       3.891  -1.289   6.556  0.00  0.00    +0.013 C 
ENDROOT
BRANCH   2   3
ATOM      3  C   UNL     1       4.446  -0.332   7.523  0.00  0.00    -0.025 A 
ATOM      4  C   UNL     1       4.293   1.044   7.315  0.00  0.00    +0.010 A 
ATOM      5  C   UNL     1       4.812   1.934   8.220  0.00  0.00    +0.025 A 
ATOM      6  C   UNL     1       5.491   1.471   9.344  0.00  0.00    +0.051 A 
ATOM      7  C   UNL     1       5.645   0.103   9.554  0.00  0.00    +0.025 A 
ATOM      8  C   UNL     1       5.123  -0.794   8.658  0.00  0.00    +0.010 A 
BRANCH   6   9
ATOM      9  N   UNL     1       6.016   2.377  10.259  0.00  0.00    -0.207 N 
ATOM     10  C   UNL     1       6.405   3.775  10.002  0.00  0.00    +0.133 C 
ATOM     11  C   UNL     1       6.245   4.631  11.272  0.00  0.00    +0.045 C 
ATOM     12  C   UNL     1       6.873   3.780  12.416  0.00  0.00    +0.190 C 
ATOM     13  S   UNL     1       6.330   2.105  11.883  0.00  0.00    +0.046 S 
ATOM     14  O   UNL     1       5.076   1.773  12.462  0.00  0.00    -0.155 OA
ATOM     15  O   UNL     1       7.419   1.192  11.912  0.00  0.00    -0.155 OA
ENDBRANCH   6   9
ENDBRANCH   2   3
BRANCH   1  17
ATOM     16  N   UNL     1       2.034  -1.348   3.408  0.00  0.00    -0.230 N 
ATOM     17  C   UNL     1       2.686  -1.794   4.500  0.00  0.00    +0.253 C 
ATOM     18  O   UNL     1       2.816  -2.990   4.685  0.00  0.00    -0.269 OA
ATOM     19  H   UNL     1       1.931  -0.394   3.260  0.00  0.00    +0.173 HD
BRANCH  16  23
ATOM     20  N   UNL     1       0.711  -0.489   1.189  0.00  0.00    -0.298 N 
ATOM     21  C   UNL     1       0.854  -1.814   1.394  0.00  0.00    +0.316 C 
ATOM     22  O   UNL     1       0.395  -2.606   0.593  0.00  0.00    -0.251 OA
ATOM     23  N   UNL     1       1.506  -2.260   2.486  0.00  0.00    -0.218 N 
ATOM     24  H   UNL     1       1.077   0.142   1.827  0.00  0.00    +0.150 HD
ATOM     25  H   UNL     1       1.609  -3.213   2.633  0.00  0.00    +0.174 HD
BRANCH  20  27
ATOM     26  C   UNL     1      -0.019   1.526   0.010  0.00  0.00    +0.024 C 
ATOM     27  C   UNL     1       0.002  -0.004   0.002  0.00  0.00    +0.102 C 
ENDBRANCH  20  27
ENDBRANCH  16  23
ENDBRANCH   1  17
TORSDOF 5
