REMARK  Name = ZINC34683665
REMARK  8 active torsions:
REMARK  status: ('A' for Active; 'I' for Inactive)
REMARK    1  A    between atoms: C_1  and  C_2
REMARK    2  A    between atoms: C_2  and  C_3
REMARK    3  A    between atoms: C_2  and  C_4
REMARK    4  A    between atoms: C_4  and  N_5
REMARK    5  A    between atoms: C_8  and  N_11
REMARK    6  A    between atoms: N_11  and  C_12
REMARK    7  A    between atoms: N_11  and  S_18
REMARK    8  A    between atoms: S_18  and  C_21
REMARK                            x       y       z     vdW  Elec       q    Type
REMARK                         _______ _______ _______ _____ _____    ______ ____
ROOT
ATOM      1  N   UNL     1      -2.085  -6.072   0.884  0.00  0.00    -0.200 N 
ENDROOT
BRANCH   1   5
ATOM      2  N   UNL     1      -0.291  -2.257   0.863  0.00  0.00    +0.380 N 
ATOM      3  C   UNL     1      -0.106  -3.067   2.073  0.00  0.00    -0.077 C 
ATOM      4  C   UNL     1      -0.389  -4.537   1.757  0.00  0.00    +0.005 C 
ATOM      5  C   UNL     1      -1.831  -4.679   1.261  0.00  0.00    +0.095 C 
ATOM      6  C   UNL     1      -2.033  -3.773   0.043  0.00  0.00    +0.005 C 
ATOM      7  C   UNL     1      -1.690  -2.332   0.423  0.00  0.00    -0.077 C 
ATOM      8  H   UNL     1       0.309  -2.608   0.131  0.00  0.00    -0.082 HD
BRANCH   2   9
ATOM      9  C   UNL     1       0.056  -0.860   1.152  0.00  0.00    -0.076 C 
BRANCH   9  11
ATOM     10  C   UNL     1       2.353  -1.136   0.210  0.00  0.00    +0.005 C 
ATOM     11  C   UNL     1       1.552  -0.759   1.457  0.00  0.00    -0.034 C 
ATOM     12  C   UNL     1       1.893   0.675   1.868  0.00  0.00    +0.005 C 
ENDBRANCH   9  11
ENDBRANCH   2   9
ENDBRANCH   1   5
BRANCH   1  13
ATOM     13  C   UNL     1      -1.362  -6.655  -0.159  0.00  0.00    +0.052 A 
ATOM     14  C   UNL     1      -1.589  -6.258  -1.470  0.00  0.00    +0.025 A 
ATOM     15  C   UNL     1      -0.873  -6.837  -2.499  0.00  0.00    +0.002 A 
ATOM     16  C   UNL     1       0.069  -7.812  -2.225  0.00  0.00    +0.000 A 
ATOM     17  C   UNL     1       0.298  -8.209  -0.921  0.00  0.00    +0.002 A 
ATOM     18  C   UNL     1      -0.411  -7.630   0.114  0.00  0.00    +0.025 A 
ENDBRANCH   1  13
BRANCH   1  19
ATOM     19  S   UNL     1      -3.228  -6.954   1.695  0.00  0.00    +0.075 S 
ATOM     20  O   UNL     1      -2.818  -8.312   1.625  0.00  0.00    -0.150 OA
ATOM     21  O   UNL     1      -3.454  -6.288   2.930  0.00  0.00    -0.150 OA
BRANCH  19  22
ATOM     22  C   UNL     1      -4.727  -6.832   0.777  0.00  0.00    +0.109 A 
ATOM     23  C   UNL     1      -5.618  -5.808   1.040  0.00  0.00    +0.031 A 
ATOM     24  C   UNL     1      -6.793  -5.712   0.321  0.00  0.00    +0.040 A 
ATOM     25  C   UNL     1      -7.079  -6.641  -0.665  0.00  0.00    +0.124 A 
ATOM     26  C   UNL     1      -6.186  -7.666  -0.928  0.00  0.00    +0.040 A 
ATOM     27  C   UNL     1      -5.009  -7.758  -0.211  0.00  0.00    +0.031 A 
ATOM     28  F   UNL     1      -8.229  -6.548  -1.369  0.00  0.00    -0.205 F 
ENDBRANCH  19  22
ENDBRANCH   1  19
TORSDOF 6
