REMARK  Name = ZINC63896847
REMARK  11 active torsions:
REMARK  status: ('A' for Active; 'I' for Inactive)
REMARK    1  A    between atoms: C_1  and  C_2
REMARK    2  A    between atoms: C_4  and  O_11
REMARK    3  A    between atoms: C_7  and  C_8
REMARK    4  A    between atoms: C_8  and  C_9
REMARK    5  A    between atoms: C_8  and  C_10
REMARK    6  A    between atoms: O_11  and  C_12
REMARK    7  A    between atoms: C_12  and  C_13
REMARK    8  A    between atoms: N_15  and  C_16
REMARK    9  A    between atoms: C_16  and  C_17
REMARK   10  A    between atoms: C_17  and  C_19
REMARK   11  A    between atoms: C_17  and  C_24
REMARK                            x       y       z     vdW  Elec       q    Type
REMARK                         _______ _______ _______ _____ _____    ______ ____
ROOT
ATOM      1  C   UNL     1      -0.024  -6.604  -5.282  0.00  0.00    +0.117 C 
ENDROOT
BRANCH   1   4
ATOM      2  C   UNL     1      -0.072  -4.729  -3.726  0.00  0.00    +0.251 C 
ATOM      3  O   UNL     1      -0.380  -4.007  -4.651  0.00  0.00    -0.272 OA
ATOM      4  N   UNL     1       0.129  -6.045  -3.937  0.00  0.00    -0.312 N 
ATOM      5  H   UNL     1       0.376  -6.622  -3.197  0.00  0.00    +0.149 HD
BRANCH   2   6
ATOM      6  C   UNL     1       0.085  -4.154  -2.342  0.00  0.00    +0.324 C 
BRANCH   6   7
ATOM      7  O   UNL     1      -0.179  -2.750  -2.376  0.00  0.00    -0.483 OA
BRANCH   7  11
ATOM      8  C   UNL     1      -0.484   1.457   0.078  0.00  0.00    +0.044 C 
ATOM      9  C   UNL     1      -0.221  -0.026   0.034  0.00  0.00    -0.044 A 
ATOM     10  C   UNL     1      -0.322  -0.710  -1.162  0.00  0.00    +0.049 A 
ATOM     11  C   UNL     1      -0.079  -2.075  -1.201  0.00  0.00    +0.121 A 
ATOM     12  C   UNL     1       0.265  -2.750  -0.039  0.00  0.00    +0.046 A 
ATOM     13  C   UNL     1       0.365  -2.062   1.154  0.00  0.00    +0.008 A 
ATOM     14  C   UNL     1       0.127  -0.700   1.190  0.00  0.00    -0.042 A 
BRANCH  14  15
ATOM     15  C   UNL     1       0.243   0.050   2.492  0.00  0.00    +0.013 C 
ATOM     16  C   UNL     1      -0.844  -0.430   3.456  0.00  0.00    +0.012 C 
ATOM     17  C   UNL     1       1.620  -0.206   3.108  0.00  0.00    +0.012 C 
ENDBRANCH  14  15
ENDBRANCH   7  11
ENDBRANCH   6   7
ENDBRANCH   2   6
ENDBRANCH   1   4
BRANCH   1  18
ATOM     18  C   UNL     1       0.259  -8.107  -5.245  0.00  0.00    +0.071 C 
BRANCH  18  19
ATOM     19  C   UNL     1       0.222  -8.659  -6.647  0.00  0.00    -0.032 C 
ATOM     20  C   UNL     1       1.227  -9.285  -7.301  0.00  0.00    -0.000 A 
ATOM     21  C   UNL     1       2.603  -9.625  -6.919  0.00  0.00    +0.010 A 
ATOM     22  C   UNL     1       3.392 -10.268  -7.809  0.00  0.00    +0.001 A 
ATOM     23  C   UNL     1       2.929 -10.617  -9.086  0.00  0.00    +0.002 A 
ATOM     24  C   UNL     1       1.678 -10.338  -9.510  0.00  0.00    +0.026 A 
ATOM     25  C   UNL     1       0.763  -9.665  -8.655  0.00  0.00    +0.043 A 
ATOM     26  N   UNL     1      -0.480  -9.288  -8.831  0.00  0.00    -0.380 N 
ATOM     27  C   UNL     1      -0.948  -8.632  -7.605  0.00  0.00    +0.145 C 
ATOM     28  H   UNL     1      -1.005  -9.425  -9.635  0.00  0.00    +0.160 HD
ENDBRANCH  18  19
BRANCH  18  29
ATOM     29  C   UNL     1      -0.787  -8.794  -4.407  0.00  0.00    -0.002 A 
ATOM     30  C   UNL     1      -0.630  -9.528  -3.278  0.00  0.00    +0.012 A 
ATOM     31  C   UNL     1      -1.746 -10.070  -2.669  0.00  0.00    +0.008 A 
ATOM     32  C   UNL     1      -2.966  -9.852  -3.220  0.00  0.00    +0.045 A 
ATOM     33  S   UNL     1      -2.557  -8.849  -4.638  0.00  0.00    -0.101 S 
ENDBRANCH  18  29
ENDBRANCH   1  18
TORSDOF 8
