REMARK  Name = ZINC02301353
REMARK  11 active torsions:
REMARK  status: ('A' for Active; 'I' for Inactive)
REMARK    1  A    between atoms: C_1  and  C_2
REMARK    2  A    between atoms: C_8  and  N_16
REMARK    3  A    between atoms: C_9  and  C_12
REMARK    4  A    between atoms: C_12  and  O_14
REMARK    5  A    between atoms: O_14  and  C_15
REMARK    6  A    between atoms: C_17  and  C_19
REMARK    7  A    between atoms: C_19  and  C_21
REMARK    8  A    between atoms: C_19  and  N_63
REMARK    9  A    between atoms: N_24  and  C_27
REMARK   10  A    between atoms: C_32  and  O_33
REMARK   11  A    between atoms: O_33  and  C_34
REMARK                            x       y       z     vdW  Elec       q    Type
REMARK                         _______ _______ _______ _____ _____    ______ ____
ROOT
ATOM      1  N   UNL     1      -0.515   7.277  -2.382  0.00  0.00    -0.284 N 
ATOM      2  C   UNL     1      -0.653   6.042  -1.860  0.00  0.00    +0.203 C 
ATOM      3  O   UNL     1      -1.518   5.301  -2.276  0.00  0.00    -0.277 OA
ATOM      4  H   UNL     1       0.223   7.842  -2.104  0.00  0.00    +0.155 HD
ENDROOT
BRANCH   1  12
ATOM      5  C   UNL     1      -2.576   3.752  -6.303  0.00  0.00    +0.044 C 
ATOM      6  C   UNL     1      -2.686   5.190  -5.866  0.00  0.00    -0.050 A 
ATOM      7  C   UNL     1      -3.527   6.057  -6.552  0.00  0.00    +0.005 A 
ATOM      8  C   UNL     1      -3.642   7.374  -6.169  0.00  0.00    +0.026 A 
ATOM      9  C   UNL     1      -2.908   7.848  -5.084  0.00  0.00    +0.049 A 
ATOM     10  C   UNL     1      -2.057   6.965  -4.393  0.00  0.00    +0.022 A 
ATOM     11  C   UNL     1      -1.956   5.631  -4.799  0.00  0.00    +0.015 A 
ATOM     12  C   UNL     1      -1.432   7.742  -3.319  0.00  0.00    +0.073 A 
ATOM     13  C   UNL     1      -1.934   9.024  -3.416  0.00  0.00    +0.147 A 
ATOM     14  N   UNL     1      -2.817   9.082  -4.484  0.00  0.00    -0.348 N 
ATOM     15  H   UNL     1      -3.303   9.874  -4.763  0.00  0.00    +0.166 HD
BRANCH  13  16
ATOM     16  C   UNL     1      -1.598  10.107  -2.564  0.00  0.00    +0.357 C 
ATOM     17  O   UNL     1      -0.740   9.968  -1.712  0.00  0.00    -0.243 OA
BRANCH  16  18
ATOM     18  O   UNL     1      -2.230  11.292  -2.698  0.00  0.00    -0.463 OA
ATOM     19  C   UNL     1      -1.842  12.339  -1.806  0.00  0.00    +0.280 C 
ENDBRANCH  16  18
ENDBRANCH  13  16
ENDBRANCH   1  12
BRANCH   2  20
ATOM     20  C   UNL     1       0.268   5.582  -0.760  0.00  0.00    +0.017 C 
ATOM     21  C   UNL     1       1.510   4.931  -1.373  0.00  0.00    -0.004 C 
BRANCH  20  27
ATOM     22  C   UNL     1      -1.719   5.137   0.551  0.00  0.00    -0.059 C 
ATOM     23  C   UNL     1      -2.376   4.124   1.492  0.00  0.00    +0.086 C 
ATOM     24  N   UNL     1      -2.559   2.849   0.783  0.00  0.00    -0.331 N 
ATOM     25  C   UNL     1      -1.270   2.318   0.319  0.00  0.00    +0.086 C 
ATOM     26  C   UNL     1      -0.613   3.331  -0.621  0.00  0.00    -0.059 C 
ATOM     27  N   UNL     1      -0.414   4.600   0.110  0.00  0.00    +0.389 N 
ATOM     28  H   UNL     1       0.170   4.422   0.935  0.00  0.00    -0.081 HD
BRANCH  24  29
ATOM     29  C   UNL     1      -3.224   1.918   1.590  0.00  0.00    +0.072 A 
ATOM     30  C   UNL     1      -2.668   1.521   2.797  0.00  0.00    +0.027 A 
ATOM     31  C   UNL     1      -3.329   0.605   3.594  0.00  0.00    +0.002 A 
ATOM     32  C   UNL     1      -4.540   0.076   3.187  0.00  0.00    +0.004 A 
ATOM     33  C   UNL     1      -5.098   0.464   1.982  0.00  0.00    +0.047 A 
ATOM     34  C   UNL     1      -4.444   1.384   1.180  0.00  0.00    +0.141 A 
BRANCH  34  35
ATOM     35  O   UNL     1      -4.992   1.766  -0.005  0.00  0.00    -0.493 OA
ATOM     36  C   UNL     1      -6.244   1.177  -0.361  0.00  0.00    +0.277 C 
ENDBRANCH  34  35
ENDBRANCH  24  29
ENDBRANCH  20  27
ENDBRANCH   2  20
TORSDOF 7
