REMARK  Name = ZINC65054990
REMARK  10 active torsions:
REMARK  status: ('A' for Active; 'I' for Inactive)
REMARK    1  A    between atoms: C_1  and  N_2
REMARK    2  A    between atoms: N_2  and  C_3
REMARK    3  A    between atoms: N_2  and  C_31
REMARK    4  A    between atoms: C_3  and  C_4
REMARK    5  A    between atoms: C_4  and  C_5
REMARK    6  A    between atoms: C_5  and  N_6
REMARK    7  A    between atoms: C_7  and  C_9
REMARK    8  A    between atoms: C_12  and  C_14
REMARK    9  A    between atoms: C_15  and  C_24
REMARK   10  A    between atoms: N_18  and  C_19
REMARK                            x       y       z     vdW  Elec       q    Type
REMARK                         _______ _______ _______ _____ _____    ______ ____
ROOT
ATOM      1  C   UNL     1      -0.366  -0.213   7.307  0.00  0.00    +0.190 A 
ATOM      2  C   UNL     1       0.000  -0.497   8.607  0.00  0.00    +0.055 A 
ATOM      3  C   UNL     1      -0.991   0.034   9.433  0.00  0.00    +0.052 A 
ATOM      4  C   UNL     1      -1.929   0.625   8.608  0.00  0.00    +0.154 A 
ATOM      5  O   UNL     1      -1.530   0.470   7.333  0.00  0.00    -0.449 OA
ENDROOT
BRANCH   4   6
ATOM      6  C   UNL     1      -3.147   1.310   9.049  0.00  0.00    +0.112 A 
ATOM      7  C   UNL     1      -4.047   0.876  10.014  0.00  0.00    +0.100 A 
ATOM      8  N   UNL     1      -5.016   1.804  10.103  0.00  0.00    -0.235 NA
ATOM      9  C   UNL     1      -4.775   2.772   9.263  0.00  0.00    +0.200 A 
ATOM     10  N   UNL     1      -3.631   2.518   8.593  0.00  0.00    -0.324 N 
BRANCH   7  11
ATOM     11  C   UNL     1      -3.956  -0.376  10.799  0.00  0.00    +0.003 A 
ATOM     12  C   UNL     1      -3.430  -1.530  10.218  0.00  0.00    +0.013 A 
ATOM     13  C   UNL     1      -3.348  -2.694  10.954  0.00  0.00    +0.039 A 
ATOM     14  C   UNL     1      -3.785  -2.717  12.268  0.00  0.00    +0.123 A 
ATOM     15  C   UNL     1      -4.308  -1.574  12.850  0.00  0.00    +0.039 A 
ATOM     16  C   UNL     1      -4.390  -0.403  12.125  0.00  0.00    +0.013 A 
ATOM     17  F   UNL     1      -3.702  -3.860  12.985  0.00  0.00    -0.205 F 
ENDBRANCH   7  11
BRANCH  10  18
ATOM     18  C   UNL     1      -3.018   3.368   7.569  0.00  0.00    +0.089 C 
ATOM     19  C   UNL     1      -2.744   4.774   8.143  0.00  0.00    +0.025 C 
ATOM     20  C   UNL     1      -3.043   5.731   6.962  0.00  0.00    +0.002 C 
ATOM     21  C   UNL     1      -4.271   5.069   6.288  0.00  0.00    +0.002 C 
ATOM     22  C   UNL     1      -3.988   3.556   6.390  0.00  0.00    +0.025 C 
ENDBRANCH  10  18
ENDBRANCH   4   6
BRANCH   1  24
ATOM     23  N   UNL     1      -0.082  -0.239   4.890  0.00  0.00    -0.309 N 
ATOM     24  C   UNL     1       0.384  -0.583   6.107  0.00  0.00    +0.279 C 
ATOM     25  O   UNL     1       1.427  -1.202   6.207  0.00  0.00    -0.267 OA
ATOM     26  H   UNL     1      -0.913   0.254   4.810  0.00  0.00    +0.149 HD
BRANCH  23  27
ATOM     27  C   UNL     1       0.669  -0.610   3.687  0.00  0.00    +0.103 C 
BRANCH  27  28
ATOM     28  C   UNL     1      -0.071  -0.103   2.448  0.00  0.00    +0.000 C 
BRANCH  28  29
ATOM     29  C   UNL     1       0.713  -0.491   1.192  0.00  0.00    -0.077 C 
BRANCH  29  31
ATOM     30  C   UNL     1      -0.018   1.465   0.010  0.00  0.00    -0.096 C 
ATOM     31  N   UNL     1       0.002  -0.004   0.002  0.00  0.00    +0.380 N 
ATOM     32  H   UNL     1      -0.945  -0.353   0.009  0.00  0.00    -0.082 HD
BRANCH  31  33
ATOM     33  C   UNL     1       0.690  -0.478  -1.207  0.00  0.00    -0.069 C 
ATOM     34  C   UNL     1       0.710  -2.008  -1.215  0.00  0.00    -0.015 C 
ATOM     35  C   UNL     1       1.427  -2.501  -2.474  0.00  0.00    -0.002 C 
ATOM     36  C   UNL     1       0.687  -1.994  -3.713  0.00  0.00    -0.000 C 
ATOM     37  C   UNL     1       0.666  -0.464  -3.705  0.00  0.00    -0.002 C 
ATOM     38  C   UNL     1      -0.050   0.029  -2.446  0.00  0.00    -0.015 C 
ENDBRANCH  31  33
ENDBRANCH  29  31
ENDBRANCH  28  29
ENDBRANCH  27  28
ENDBRANCH  23  27
ENDBRANCH   1  24
TORSDOF 9
