REMARK  Name = ZINC63625003
REMARK  6 active torsions:
REMARK  status: ('A' for Active; 'I' for Inactive)
REMARK    1  A    between atoms: C_1  and  C_2
REMARK    2  A    between atoms: C_5  and  C_8
REMARK    3  A    between atoms: N_22  and  S_23
REMARK    4  A    between atoms: S_23  and  C_26
REMARK    5  A    between atoms: N_29  and  C_33
REMARK    6  A    between atoms: C_30  and  C_32
REMARK                            x       y       z     vdW  Elec       q    Type
REMARK                         _______ _______ _______ _____ _____    ______ ____
ROOT
ATOM      1  C   UNL     1       0.103  -5.039   0.375  0.00  0.00    +0.136 C 
ATOM      2  C   UNL     1      -0.917  -5.972   1.036  0.00  0.00    +0.129 C 
ATOM      3  C   UNL     1      -0.197  -7.290   1.295  0.00  0.00    -0.035 C 
ATOM      4  C   UNL     1      -0.912  -8.232   0.693  0.00  0.00    -0.001 A 
ATOM      5  C   UNL     1      -0.761  -9.696   0.646  0.00  0.00    +0.010 A 
ATOM      6  C   UNL     1      -1.685 -10.370  -0.089  0.00  0.00    +0.001 A 
ATOM      7  C   UNL     1      -2.730  -9.742  -0.775  0.00  0.00    +0.002 A 
ATOM      8  C   UNL     1      -2.946  -8.403  -0.783  0.00  0.00    +0.026 A 
ATOM      9  C   UNL     1      -2.043  -7.588  -0.041  0.00  0.00    +0.043 A 
ATOM     10  N   UNL     1      -2.034  -6.279   0.141  0.00  0.00    -0.376 N 
ATOM     11  C   UNL     1       1.114  -7.364   2.039  0.00  0.00    +0.050 C 
ATOM     12  C   UNL     1       2.056  -6.340   1.380  0.00  0.00    +0.114 C 
ATOM     13  N   UNL     1       1.337  -5.078   1.175  0.00  0.00    -0.167 NA
ATOM     14  H   UNL     1      -2.646  -5.632  -0.244  0.00  0.00    +0.160 HD
ENDROOT
BRANCH   1  19
ATOM     15  C   UNL     1      -1.972   0.353   0.245  0.00  0.00    +0.044 C 
ATOM     16  C   UNL     1      -1.431  -1.054   0.279  0.00  0.00    -0.050 A 
ATOM     17  C   UNL     1      -1.598  -1.831   1.409  0.00  0.00    +0.003 A 
ATOM     18  C   UNL     1      -1.102  -3.121   1.440  0.00  0.00    +0.005 A 
ATOM     19  C   UNL     1      -0.439  -3.633   0.340  0.00  0.00    -0.026 A 
ATOM     20  C   UNL     1      -0.272  -2.856  -0.790  0.00  0.00    +0.005 A 
ATOM     21  C   UNL     1      -0.772  -1.567  -0.823  0.00  0.00    +0.003 A 
ENDBRANCH   1  19
BRANCH  13  22
ATOM     22  S   UNL     1       1.920  -3.683   1.852  0.00  0.00    +0.060 S 
ATOM     23  O   UNL     1       3.283  -3.926   2.173  0.00  0.00    -0.153 OA
ATOM     24  O   UNL     1       1.515  -2.619   1.001  0.00  0.00    -0.153 OA
BRANCH  22  25
ATOM     25  C   UNL     1       1.075  -3.454   3.381  0.00  0.00    +0.116 C 
ATOM     26  C   UNL     1       0.281  -2.452   3.698  0.00  0.00    +0.110 C 
ATOM     27  N   UNL     1      -0.219  -2.580   4.978  0.00  0.00    -0.278 N 
ATOM     28  N   UNL     1       0.245  -3.717   5.575  0.00  0.00    -0.162 NA
ATOM     29  C   UNL     1       1.117  -4.375   4.582  0.00  0.00    +0.129 C 
ATOM     30  C   UNL     1       2.545  -4.489   5.119  0.00  0.00    +0.032 C 
ATOM     31  H   UNL     1      -0.821  -1.946   5.399  0.00  0.00    +0.166 HD
BRANCH  28  32
ATOM     32  C   UNL     1      -0.864  -4.600   5.962  0.00  0.00    +0.433 C 
ATOM     33  F   UNL     1      -1.523  -5.051   4.814  0.00  0.00    -0.189 F 
ATOM     34  F   UNL     1      -0.362  -5.696   6.672  0.00  0.00    -0.189 F 
ENDBRANCH  28  32
ENDBRANCH  22  25
ENDBRANCH  13  22
TORSDOF 4
