REMARK  Name = ZINC67625828
REMARK  6 active torsions:
REMARK  status: ('A' for Active; 'I' for Inactive)
REMARK    1  A    between atoms: C_4  and  N_7
REMARK    2  A    between atoms: N_7  and  C_8
REMARK    3  A    between atoms: N_16  and  C_17
REMARK    4  A    between atoms: C_17  and  C_18
REMARK    5  A    between atoms: C_22  and  S_24
REMARK    6  A    between atoms: S_24  and  N_27
REMARK                            x       y       z     vdW  Elec       q    Type
REMARK                         _______ _______ _______ _____ _____    ______ ____
ROOT
ATOM      1  C   UNL     1       3.641  -2.114  -0.044  0.00  0.00    +0.089 C 
ATOM      2  C   UNL     1       5.000  -2.653   0.478  0.00  0.00    +0.043 C 
ATOM      3  C   UNL     1       5.113  -4.029  -0.212  0.00  0.00    +0.111 C 
ATOM      4  N   UNL     1       4.248  -3.995  -1.400  0.00  0.00    -0.284 N 
ATOM      5  C   UNL     1       3.625  -2.662  -1.493  0.00  0.00    +0.131 C 
ATOM      6  C   UNL     1       4.056  -5.014  -2.261  0.00  0.00    +0.303 C 
ATOM      7  O   UNL     1       3.314  -4.872  -3.214  0.00  0.00    -0.253 OA
ATOM      8  N   UNL     1       4.686  -6.189  -2.066  0.00  0.00    -0.295 N 
ATOM      9  H   UNL     1       5.277  -6.302  -1.305  0.00  0.00    +0.151 HD
ENDROOT
BRANCH   1  10
ATOM     10  N   UNL     1       3.620  -0.649  -0.036  0.00  0.00    -0.339 N 
ATOM     11  H   UNL     1       4.452  -0.152  -0.042  0.00  0.00    +0.146 HD
BRANCH  10  15
ATOM     12  C   UNL     1      -0.017   1.379   0.010  0.00  0.00    +0.000 A 
ATOM     13  C   UNL     1       1.169   2.089   0.002  0.00  0.00    +0.002 A 
ATOM     14  C   UNL     1       2.377   1.420  -0.013  0.00  0.00    +0.023 A 
ATOM     15  C   UNL     1       2.400   0.031  -0.021  0.00  0.00    +0.027 A 
ATOM     16  C   UNL     1       1.206  -0.680  -0.013  0.00  0.00    +0.023 A 
ATOM     17  C   UNL     1       0.002  -0.004   0.002  0.00  0.00    +0.002 A 
ENDBRANCH  10  15
ENDBRANCH   1  10
BRANCH   8  18
ATOM     18  C   UNL     1       4.477  -7.296  -3.002  0.00  0.00    +0.141 C 
BRANCH  18  19
ATOM     19  C   UNL     1       5.289  -8.487  -2.561  0.00  0.00    -0.028 A 
ATOM     20  C   UNL     1       6.586  -8.645  -3.015  0.00  0.00    +0.005 A 
ATOM     21  C   UNL     1       7.330  -9.737  -2.610  0.00  0.00    +0.002 A 
ATOM     22  C   UNL     1       6.779 -10.670  -1.752  0.00  0.00    +0.028 A 
ATOM     23  C   UNL     1       5.484 -10.511  -1.298  0.00  0.00    +0.105 A 
ATOM     24  C   UNL     1       4.740  -9.417  -1.699  0.00  0.00    +0.033 A 
BRANCH  23  25
ATOM     25  S   UNL     1       4.781 -11.701  -0.204  0.00  0.00    +0.056 S 
ATOM     26  O   UNL     1       3.371 -11.611  -0.358  0.00  0.00    -0.153 OA
ATOM     27  O   UNL     1       5.494 -12.913  -0.410  0.00  0.00    -0.153 OA
BRANCH  25  28
ATOM     28  N   UNL     1       5.121 -11.208   1.339  0.00  0.00    -0.204 NA
ATOM     29  H   UNL     1       5.625 -10.393   1.488  0.00  0.00    +0.144 HD
ATOM     30  H   UNL     1       4.817 -11.735   2.095  0.00  0.00    +0.144 HD
ENDBRANCH  25  28
ENDBRANCH  23  25
ENDBRANCH  18  19
ENDBRANCH   8  18
TORSDOF 6
