REMARK  Name = ZINC39741376
REMARK  13 active torsions:
REMARK  status: ('A' for Active; 'I' for Inactive)
REMARK    1  A    between atoms: C_1  and  C_2
REMARK    2  A    between atoms: C_2  and  O_3
REMARK    3  A    between atoms: O_3  and  C_4
REMARK    4  A    between atoms: C_4  and  C_6
REMARK    5  A    between atoms: C_7  and  C_33
REMARK    6  A    between atoms: C_8  and  C_13
REMARK    7  A    between atoms: C_10  and  C_12
REMARK    8  A    between atoms: C_13  and  C_15
REMARK    9  A    between atoms: C_15  and  O_16
REMARK   10  A    between atoms: O_16  and  C_17
REMARK   11  A    between atoms: C_17  and  C_19
REMARK   12  A    between atoms: N_22  and  S_25
REMARK   13  A    between atoms: S_25  and  C_28
REMARK                            x       y       z     vdW  Elec       q    Type
REMARK                         _______ _______ _______ _____ _____    ______ ____
ROOT
ATOM      1  O   UNL     1      -7.322  -6.530   0.046  0.00  0.00    -0.456 OA
ENDROOT
BRANCH   1   2
ATOM      2  C   UNL     1      -8.650  -6.723   0.056  0.00  0.00    +0.311 C 
ATOM      3  O   UNL     1      -9.399  -5.775   0.062  0.00  0.00    -0.251 OA
BRANCH   2   4
ATOM      4  C   UNL     1      -9.207  -8.124   0.059  0.00  0.00    +0.100 C 
ATOM      5  C   UNL     1      -8.715  -8.866   1.303  0.00  0.00    +0.032 C 
ATOM      6  C   UNL     1      -9.255 -10.299   1.285  0.00  0.00    +0.110 C 
ATOM      7  N   UNL     1     -10.717 -10.252   1.150  0.00  0.00    -0.176 NA
ATOM      8  C   UNL     1     -11.300  -9.488   0.038  0.00  0.00    +0.110 C 
ATOM      9  C   UNL     1     -10.736  -8.064   0.070  0.00  0.00    +0.032 C 
BRANCH   7  10
ATOM     10  S   UNL     1     -11.691 -11.045   2.230  0.00  0.00    +0.067 S 
ATOM     11  O   UNL     1     -12.922 -11.290   1.563  0.00  0.00    -0.152 OA
ATOM     12  O   UNL     1     -10.908 -12.089   2.792  0.00  0.00    -0.152 OA
BRANCH  10  13
ATOM     13  C   UNL     1     -12.042  -9.919   3.539  0.00  0.00    +0.143 A 
ATOM     14  C   UNL     1     -13.066  -9.039   3.656  0.00  0.00    +0.036 A 
ATOM     15  C   UNL     1     -13.143  -8.246   4.786  0.00  0.00    +0.010 A 
ATOM     16  C   UNL     1     -12.191  -8.372   5.743  0.00  0.00    +0.047 A 
ATOM     17  S   UNL     1     -11.145  -9.646   5.058  0.00  0.00    -0.077 S 
ENDBRANCH  10  13
ENDBRANCH   7  10
ENDBRANCH   2   4
ENDBRANCH   1   2
BRANCH   1  18
ATOM     18  C   UNL     1      -6.863  -5.176   0.044  0.00  0.00    +0.313 C 
BRANCH  18  19
ATOM     19  C   UNL     1      -5.356  -5.156   0.033  0.00  0.00    +0.218 C 
ATOM     20  O   UNL     1      -4.739  -6.194   0.028  0.00  0.00    -0.287 OA
BRANCH  19  23
ATOM     21  C   UNL     1      -2.847  -2.418   0.016  0.00  0.00    +0.065 C 
ATOM     22  C   UNL     1      -3.168  -3.727   0.018  0.00  0.00    -0.010 C 
ATOM     23  C   UNL     1      -4.632  -3.863   0.029  0.00  0.00    +0.108 C 
ATOM     24  N   UNL     1      -5.205  -2.699   0.034  0.00  0.00    -0.272 NA
ATOM     25  C   UNL     1      -4.161  -1.668   0.033  0.00  0.00    +0.140 C 
ATOM     26  C   UNL     1      -4.286  -0.794  -1.216  0.00  0.00    +0.038 C 
ATOM     27  C   UNL     1      -2.185  -4.869   0.010  0.00  0.00    +0.046 C 
BRANCH  21  28
ATOM     28  C   UNL     1      -1.497  -1.838   0.006  0.00  0.00    +0.338 C 
ATOM     29  O   UNL     1      -0.523  -2.565  -0.007  0.00  0.00    -0.245 OA
BRANCH  28  30
ATOM     30  O   UNL     1      -1.339  -0.499   0.012  0.00  0.00    -0.462 OA
BRANCH  30  32
ATOM     31  C   UNL     1      -0.019   1.526   0.010  0.00  0.00    +0.048 C 
ATOM     32  C   UNL     1       0.002  -0.004   0.002  0.00  0.00    +0.229 C 
ENDBRANCH  30  32
ENDBRANCH  28  30
ENDBRANCH  21  28
ENDBRANCH  19  23
ENDBRANCH  18  19
ENDBRANCH   1  18
TORSDOF 10
