REMARK  Name = ZINC20564640
REMARK  6 active torsions:
REMARK  status: ('A' for Active; 'I' for Inactive)
REMARK    1  A    between atoms: C_1  and  C_2
REMARK    2  A    between atoms: C_4  and  C_36
REMARK    3  A    between atoms: N_5  and  C_29
REMARK    4  A    between atoms: C_15  and  C_18
REMARK    5  A    between atoms: N_20  and  C_21
REMARK    6  A    between atoms: C_21  and  C_22
REMARK                            x       y       z     vdW  Elec       q    Type
REMARK                         _______ _______ _______ _____ _____    ______ ____
ROOT
ATOM      1  C   UNL     1       3.586   1.765  -1.345  0.00  0.00    +0.068 C 
ATOM      2  C   UNL     1       2.292   1.199  -0.817  0.00  0.00    +0.072 A 
ATOM      3  C   UNL     1       1.181   2.045  -0.604  0.00  0.00    +0.049 A 
ATOM      4  C   UNL     1       0.898   3.384  -0.752  0.00  0.00    +0.051 A 
ATOM      5  N   UNL     1      -0.376   3.581  -0.368  0.00  0.00    -0.236 N 
ATOM      6  N   UNL     1      -0.946   2.366   0.034  0.00  0.00    -0.163 NA
ATOM      7  C   UNL     1      -0.049   1.414  -0.084  0.00  0.00    +0.137 A 
ATOM      8  C   UNL     1       0.011  -0.027   0.157  0.00  0.00    +0.172 A 
ATOM      9  N   UNL     1       1.143  -0.654  -0.103  0.00  0.00    -0.132 NA
ATOM     10  N   UNL     1       2.191  -0.078  -0.552  0.00  0.00    -0.152 NA
ATOM     11  N   UNL     1      -1.089  -0.715   0.643  0.00  0.00    -0.311 N 
ATOM     12  C   UNL     1      -2.260  -0.511  -0.220  0.00  0.00    +0.106 C 
ATOM     13  C   UNL     1      -3.488  -1.162   0.422  0.00  0.00    +0.020 C 
ATOM     14  C   UNL     1      -3.225  -2.658   0.613  0.00  0.00    +0.016 C 
ATOM     15  C   UNL     1      -1.972  -2.843   1.475  0.00  0.00    +0.092 C 
ATOM     16  C   UNL     1      -0.789  -2.143   0.802  0.00  0.00    +0.119 C 
ATOM     17  C   UNL     1       1.847   4.441  -1.256  0.00  0.00    +0.066 C 
ENDROOT
BRANCH   5  18
ATOM     18  C   UNL     1      -1.036   4.817  -0.374  0.00  0.00    +0.066 A 
ATOM     19  C   UNL     1      -0.412   5.941   0.150  0.00  0.00    +0.029 A 
ATOM     20  C   UNL     1      -1.062   7.159   0.138  0.00  0.00    +0.022 A 
ATOM     21  C   UNL     1      -2.340   7.258  -0.386  0.00  0.00    +0.041 A 
ATOM     22  C   UNL     1      -2.966   6.137  -0.904  0.00  0.00    +0.022 A 
ATOM     23  C   UNL     1      -2.317   4.918  -0.900  0.00  0.00    +0.029 A 
ATOM     24 CL   UNL     1      -3.158   8.789  -0.394  0.00  0.00    -0.084 Cl
ENDBRANCH   5  18
BRANCH  15  25
ATOM     25  C   UNL     1      -1.672  -4.312   1.619  0.00  0.00    +0.218 C 
ATOM     26  O   UNL     1      -0.616  -4.757   1.222  0.00  0.00    -0.275 OA
ATOM     27  N   UNL     1      -2.578  -5.133   2.188  0.00  0.00    -0.311 N 
ATOM     28  H   UNL     1      -3.536  -4.729   2.547  0.00  0.00    +0.149 HD
BRANCH  27  29
ATOM     29  C   UNL     1      -2.286  -6.561   2.328  0.00  0.00    +0.139 C 
BRANCH  29  30
ATOM     30  C   UNL     1      -3.452  -7.250   2.990  0.00  0.00    -0.030 A 
ATOM     31  C   UNL     1      -3.494  -7.365   4.367  0.00  0.00    +0.008 A 
ATOM     32  C   UNL     1      -4.565  -7.992   4.975  0.00  0.00    +0.038 A 
ATOM     33  C   UNL     1      -5.591  -8.513   4.205  0.00  0.00    +0.123 A 
ATOM     34  C   UNL     1      -5.545  -8.401   2.826  0.00  0.00    +0.038 A 
ATOM     35  C   UNL     1      -4.475  -7.770   2.220  0.00  0.00    +0.008 A 
ATOM     36  F   UNL     1      -6.636  -9.130   4.799  0.00  0.00    -0.205 F 
ENDBRANCH  29  30
ENDBRANCH  27  29
ENDBRANCH  15  25
TORSDOF 4
