REMARK  Name = ZINC43218853
REMARK  7 active torsions:
REMARK  status: ('A' for Active; 'I' for Inactive)
REMARK    1  A    between atoms: C_1  and  C_2
REMARK    2  A    between atoms: C_2  and  C_3
REMARK    3  A    between atoms: C_3  and  C_4
REMARK    4  A    between atoms: C_4  and  N_5
REMARK    5  A    between atoms: C_10  and  C_27
REMARK    6  A    between atoms: C_13  and  C_18
REMARK    7  A    between atoms: C_13  and  C_24
REMARK                            x       y       z     vdW  Elec       q    Type
REMARK                         _______ _______ _______ _____ _____    ______ ____
ROOT
ATOM      1  N   UNL     1       1.059  -2.498  -2.782  0.00  0.00    -0.242 N 
ATOM      2  C   UNL     1       0.578  -2.769  -4.039  0.00  0.00    +0.224 C 
ATOM      3  O   UNL     1      -0.498  -2.458  -4.502  0.00  0.00    -0.275 OA
ATOM      4  C   UNL     1       1.636  -3.504  -4.687  0.00  0.00    +0.077 C 
ATOM      5  C   UNL     1       2.113  -3.860  -6.035  0.00  0.00    -0.026 C 
ATOM      6  N   UNL     1       3.462  -4.457  -5.744  0.00  0.00    +0.398 N 
ATOM      7  C   UNL     1       3.923  -3.923  -4.428  0.00  0.00    +0.074 C 
ATOM      8  C   UNL     1       2.921  -2.813  -4.079  0.00  0.00    +0.090 C 
ATOM      9  C   UNL     1       2.401  -2.725  -2.670  0.00  0.00    +0.225 C 
ATOM     10  O   UNL     1       3.042  -2.835  -1.647  0.00  0.00    -0.275 OA
ATOM     11  H   UNL     1       3.387  -5.463  -5.697  0.00  0.00    -0.083 HD
ATOM     12  H   UNL     1       4.115  -4.195  -6.467  0.00  0.00    -0.083 HD
ENDROOT
BRANCH   5  13
ATOM     13  C   UNL     1       1.202  -4.874  -6.677  0.00  0.00    -0.061 A 
ATOM     14  C   UNL     1       1.418  -6.224  -6.473  0.00  0.00    +0.003 A 
ATOM     15  C   UNL     1       0.582  -7.155  -7.061  0.00  0.00    +0.015 A 
ATOM     16  C   UNL     1      -0.470  -6.735  -7.854  0.00  0.00    +0.018 A 
ATOM     17  C   UNL     1      -0.686  -5.384  -8.058  0.00  0.00    +0.015 A 
ATOM     18  C   UNL     1       0.147  -4.454  -7.465  0.00  0.00    +0.003 A 
ATOM     19 BR   UNL     1      -1.613  -8.008  -8.660  0.00  0.00    -0.050 Br
ENDBRANCH   5  13
BRANCH   7  20
ATOM     20  C   UNL     1       3.913  -5.015  -3.389  0.00  0.00    -0.047 A 
ATOM     21  C   UNL     1       4.815  -4.981  -2.342  0.00  0.00    +0.003 A 
ATOM     22  C   UNL     1       4.806  -5.983  -1.389  0.00  0.00    +0.000 A 
ATOM     23  C   UNL     1       3.894  -7.018  -1.483  0.00  0.00    +0.000 A 
ATOM     24  C   UNL     1       2.992  -7.051  -2.530  0.00  0.00    +0.000 A 
ATOM     25  C   UNL     1       2.998  -6.047  -3.480  0.00  0.00    +0.003 A 
ENDBRANCH   7  20
BRANCH   7  26
ATOM     26  C   UNL     1       5.306  -3.339  -4.558  0.00  0.00    +0.350 C 
ATOM     27  O   UNL     1       5.886  -3.377  -5.630  0.00  0.00    -0.248 OA
ATOM     28  O   UNL     1       5.846  -2.827  -3.592  0.00  0.00    -0.248 OA
ENDBRANCH   7  26
BRANCH   1  29
ATOM     29  C   UNL     1       0.223  -2.012  -1.681  0.00  0.00    +0.116 C 
BRANCH  29  30
ATOM     30  C   UNL     1       0.196  -0.482  -1.698  0.00  0.00    +0.019 C 
BRANCH  30  32
ATOM     31  C   UNL     1      -0.704   1.555  -0.566  0.00  0.00    +0.004 C 
ATOM     32  C   UNL     1      -0.676   0.025  -0.548  0.00  0.00    -0.002 C 
ENDBRANCH  30  32
ENDBRANCH  29  30
ENDBRANCH   1  29
TORSDOF 6
