REMARK  Name = ZINC32536783
REMARK  11 active torsions:
REMARK  status: ('A' for Active; 'I' for Inactive)
REMARK    1  A    between atoms: C_1  and  C_2
REMARK    2  A    between atoms: C_4  and  O_31
REMARK    3  A    between atoms: C_5  and  S_9
REMARK    4  A    between atoms: C_7  and  C_8
REMARK    5  A    between atoms: S_9  and  C_12
REMARK    6  A    between atoms: C_19  and  N_21
REMARK    7  A    between atoms: N_21  and  C_22
REMARK    8  A    between atoms: C_22  and  C_23
REMARK    9  A    between atoms: C_28  and  O_29
REMARK   10  A    between atoms: O_29  and  C_30
REMARK   11  A    between atoms: O_31  and  C_32
REMARK                            x       y       z     vdW  Elec       q    Type
REMARK                         _______ _______ _______ _____ _____    ______ ____
ROOT
ATOM      1  C   UNL     1      -0.875   1.013   3.531  0.00  0.00    +0.145 C 
ATOM      2  C   UNL     1      -0.511   1.909   4.735  0.00  0.00    +0.190 C 
ATOM      3  S   UNL     1       0.759   3.020   3.986  0.00  0.00    -0.031 S 
ATOM      4  O   UNL     1       0.111   4.069   3.281  0.00  0.00    -0.174 OA
ATOM      5  O   UNL     1       1.748   3.329   4.959  0.00  0.00    -0.174 OA
ATOM      6  C   UNL     1       1.450   1.807   2.777  0.00  0.00    +0.152 C 
ATOM      7  C   UNL     1       0.200   0.956   2.457  0.00  0.00    -0.024 C 
ENDROOT
BRANCH   1   8
ATOM      8  S   UNL     1      -1.176  -0.670   4.138  0.00  0.00    +0.003 S 
ATOM      9  O   UNL     1       0.052  -1.286   4.500  0.00  0.00    -0.169 OA
ATOM     10  O   UNL     1      -2.282  -0.678   5.030  0.00  0.00    -0.169 OA
BRANCH   8  15
ATOM     11  C   UNL     1      -3.070  -3.751  -0.697  0.00  0.00    +0.044 C 
ATOM     12  C   UNL     1      -2.600  -2.980   0.510  0.00  0.00    -0.044 A 
ATOM     13  C   UNL     1      -3.368  -1.946   1.011  0.00  0.00    +0.051 A 
ATOM     14  C   UNL     1      -2.934  -1.237   2.122  0.00  0.00    +0.145 A 
ATOM     15  C   UNL     1      -1.730  -1.568   2.727  0.00  0.00    +0.130 A 
ATOM     16  C   UNL     1      -0.964  -2.599   2.219  0.00  0.00    +0.034 A 
ATOM     17  C   UNL     1      -1.401  -3.308   1.114  0.00  0.00    -0.046 A 
ATOM     18  C   UNL     1      -0.565  -4.435   0.565  0.00  0.00    +0.044 C 
BRANCH  14  19
ATOM     19  O   UNL     1      -3.688  -0.220   2.616  0.00  0.00    -0.493 OA
ATOM     20  C   UNL     1      -4.915   0.065   1.943  0.00  0.00    +0.277 C 
ENDBRANCH  14  19
ENDBRANCH   8  15
ENDBRANCH   1   8
BRANCH   7  21
ATOM     21  N   UNL     1      -0.376   1.429   1.191  0.00  0.00    +0.386 N 
ATOM     22  H   UNL     1      -1.428   1.115   1.127  0.00  0.00    -0.085 HD
ATOM     23  H   UNL     1      -0.317   2.526   1.148  0.00  0.00    -0.085 HD
BRANCH  21  24
ATOM     24  C   UNL     1       0.351   0.873   0.042  0.00  0.00    -0.043 C 
BRANCH  24  25
ATOM     25  C   UNL     1      -0.267   1.378  -1.236  0.00  0.00    -0.023 A 
ATOM     26  C   UNL     1      -1.141   0.577  -1.946  0.00  0.00    +0.005 A 
ATOM     27  C   UNL     1      -1.708   1.040  -3.119  0.00  0.00    +0.000 A 
ATOM     28  C   UNL     1      -1.404   2.307  -3.584  0.00  0.00    +0.004 A 
ATOM     29  C   UNL     1      -0.532   3.112  -2.877  0.00  0.00    +0.046 A 
ATOM     30  C   UNL     1       0.036   2.651  -1.698  0.00  0.00    +0.121 A 
BRANCH  30  31
ATOM     31  O   UNL     1       0.890   3.443  -0.999  0.00  0.00    -0.495 OA
ATOM     32  C   UNL     1       1.156   4.741  -1.534  0.00  0.00    +0.277 C 
ENDBRANCH  30  31
ENDBRANCH  24  25
ENDBRANCH  21  24
ENDBRANCH   7  21
TORSDOF 7
