REMARK  Name = ZINC36066166
REMARK  12 active torsions:
REMARK  status: ('A' for Active; 'I' for Inactive)
REMARK    1  A    between atoms: C_1  and  C_2
REMARK    2  A    between atoms: C_7  and  N_12
REMARK    3  A    between atoms: C_9  and  C_11
REMARK    4  A    between atoms: C_13  and  C_15
REMARK    5  A    between atoms: C_23  and  C_34
REMARK    6  A    between atoms: N_29  and  C_30
REMARK    7  A    between atoms: C_30  and  C_31
REMARK    8  A    between atoms: C_31  and  O_32
REMARK    9  A    between atoms: O_32  and  C_33
REMARK   10  A    between atoms: N_36  and  C_37
REMARK   11  A    between atoms: C_40  and  O_43
REMARK   12  A    between atoms: O_43  and  C_44
REMARK                            x       y       z     vdW  Elec       q    Type
REMARK                         _______ _______ _______ _____ _____    ______ ____
ROOT
ATOM      1  C   UNL     1      -1.369  -4.425   1.697  0.00  0.00    +0.198 C 
ATOM      2  C   UNL     1      -2.292  -3.918   2.761  0.00  0.00    +0.127 C 
ATOM      3  C   UNL     1      -1.663  -3.930   4.142  0.00  0.00    +0.009 C 
ATOM      4  C   UNL     1      -2.587  -3.451   4.962  0.00  0.00    +0.004 C 
ATOM      5  C   UNL     1      -3.815  -3.204   4.076  0.00  0.00    +0.155 C 
ATOM      6  O   UNL     1      -3.172  -2.819   2.789  0.00  0.00    -0.358 OA
ATOM      7  C   UNL     1      -4.320  -4.671   3.791  0.00  0.00    +0.123 C 
ATOM      8  C   UNL     1      -3.356  -5.086   2.680  0.00  0.00    +0.128 C 
ATOM      9  C   UNL     1      -2.460  -6.257   2.679  0.00  0.00    +0.223 C 
ATOM     10  O   UNL     1      -2.684  -7.338   3.180  0.00  0.00    -0.275 OA
ATOM     11  N   UNL     1      -1.322  -5.890   2.000  0.00  0.00    -0.284 N 
ENDROOT
BRANCH   1  13
ATOM     12  N   UNL     1       0.315  -2.711   1.107  0.00  0.00    -0.311 N 
ATOM     13  C   UNL     1      -0.002  -3.804   1.830  0.00  0.00    +0.237 C 
ATOM     14  O   UNL     1       0.813  -4.288   2.586  0.00  0.00    -0.274 OA
ATOM     15  H   UNL     1      -0.337  -2.324   0.502  0.00  0.00    +0.149 HD
BRANCH  12  21
ATOM     16  C   UNL     1       1.016   0.984  -0.971  0.00  0.00    +0.008 C 
ATOM     17  C   UNL     1       1.089  -0.496  -0.591  0.00  0.00    -0.009 C 
ATOM     18  C   UNL     1       2.068  -1.215  -1.522  0.00  0.00    +0.003 C 
ATOM     19  C   UNL     1       2.141  -2.695  -1.141  0.00  0.00    +0.002 C 
ATOM     20  C   UNL     1       2.622  -2.826   0.305  0.00  0.00    +0.022 C 
ATOM     21  C   UNL     1       1.643  -2.108   1.236  0.00  0.00    +0.076 C 
ATOM     22  C   UNL     1       1.571  -0.628   0.856  0.00  0.00    +0.009 C 
ATOM     23  C   UNL     1       0.592   0.090   1.787  0.00  0.00    +0.009 C 
ENDBRANCH  12  21
ENDBRANCH   1  13
BRANCH   7  24
ATOM     24  C   UNL     1      -4.174  -5.540   5.013  0.00  0.00    +0.224 C 
ATOM     25  O   UNL     1      -3.458  -6.519   4.979  0.00  0.00    -0.275 OA
ATOM     26  N   UNL     1      -4.839  -5.231   6.144  0.00  0.00    -0.285 N 
ATOM     27  H   UNL     1      -5.357  -4.412   6.193  0.00  0.00    +0.155 HD
BRANCH  26  28
ATOM     28  C   UNL     1      -4.784  -6.092   7.247  0.00  0.00    +0.034 A 
ATOM     29  C   UNL     1      -4.815  -5.574   8.535  0.00  0.00    +0.027 A 
ATOM     30  C   UNL     1      -4.761  -6.424   9.622  0.00  0.00    +0.047 A 
ATOM     31  C   UNL     1      -4.674  -7.795   9.428  0.00  0.00    +0.120 A 
ATOM     32  C   UNL     1      -4.642  -8.313   8.142  0.00  0.00    +0.047 A 
ATOM     33  C   UNL     1      -4.703  -7.465   7.054  0.00  0.00    +0.027 A 
BRANCH  31  34
ATOM     34  O   UNL     1      -4.620  -8.630  10.499  0.00  0.00    -0.495 OA
ATOM     35  C   UNL     1      -4.532 -10.030  10.226  0.00  0.00    +0.277 C 
ENDBRANCH  31  34
ENDBRANCH  26  28
ENDBRANCH   7  24
BRANCH  11  36
ATOM     36  C   UNL     1      -0.231  -6.795   1.629  0.00  0.00    +0.136 C 
BRANCH  36  37
ATOM     37  C   UNL     1      -0.473  -7.335   0.219  0.00  0.00    +0.178 C 
BRANCH  37  38
ATOM     38  O   UNL     1      -0.408  -6.260  -0.721  0.00  0.00    -0.381 OA
ATOM     39  C   UNL     1      -0.622  -6.659  -2.076  0.00  0.00    +0.194 C 
ENDBRANCH  37  38
ENDBRANCH  36  37
ENDBRANCH  11  36
TORSDOF 8
