REMARK  Name = ZINC36485035
REMARK  16 active torsions:
REMARK  status: ('A' for Active; 'I' for Inactive)
REMARK    1  A    between atoms: C_1  and  C_2
REMARK    2  A    between atoms: C_2  and  C_3
REMARK    3  A    between atoms: C_2  and  C_4
REMARK    4  A    between atoms: C_2  and  C_5
REMARK    5  A    between atoms: C_5  and  C_6
REMARK    6  A    between atoms: C_6  and  C_7
REMARK    7  A    between atoms: C_6  and  C_8
REMARK    8  A    between atoms: C_6  and  N_9
REMARK    9  A    between atoms: C_10  and  C_12
REMARK   10  A    between atoms: C_12  and  C_14
REMARK   11  A    between atoms: C_12  and  N_21
REMARK   12  A    between atoms: C_17  and  O_20
REMARK   13  A    between atoms: N_21  and  C_22
REMARK   14  A    between atoms: C_29  and  C_31
REMARK   15  A    between atoms: C_35  and  O_38
REMARK   16  A    between atoms: C_36  and  O_37
REMARK                            x       y       z     vdW  Elec       q    Type
REMARK                         _______ _______ _______ _____ _____    ______ ____
ROOT
ATOM      1  C   UNL     1       4.754  -0.150  -4.128  0.00  0.00    +0.197 C 
ENDROOT
BRANCH   1   2
ATOM      2  C   UNL     1       4.619  -1.620  -4.431  0.00  0.00    -0.018 A 
ATOM      3  C   UNL     1       5.479  -2.528  -3.844  0.00  0.00    +0.009 A 
ATOM      4  C   UNL     1       5.358  -3.876  -4.121  0.00  0.00    +0.046 A 
ATOM      5  C   UNL     1       4.371  -4.318  -4.990  0.00  0.00    +0.117 A 
ATOM      6  C   UNL     1       3.508  -3.405  -5.578  0.00  0.00    +0.046 A 
ATOM      7  C   UNL     1       3.630  -2.058  -5.293  0.00  0.00    +0.009 A 
BRANCH   5   8
ATOM      8  O   UNL     1       4.249  -5.643  -5.264  0.00  0.00    -0.507 OA
ATOM      9  H   UNL     1       3.656  -6.117  -4.665  0.00  0.00    +0.292 HD
ENDBRANCH   5   8
ENDBRANCH   1   2
BRANCH   1  11
ATOM     10  N   UNL     1       3.046  -0.181  -2.338  0.00  0.00    -0.308 N 
ATOM     11  C   UNL     1       4.307   0.114  -2.713  0.00  0.00    +0.239 C 
ATOM     12  O   UNL     1       5.082   0.592  -1.911  0.00  0.00    -0.273 OA
ATOM     13  H   UNL     1       2.427  -0.564  -2.979  0.00  0.00    +0.149 HD
BRANCH  10  14
ATOM     14  C   UNL     1       2.612   0.075  -0.963  0.00  0.00    +0.030 C 
ATOM     15  C   UNL     1       2.897   1.534  -0.601  0.00  0.00    +0.031 C 
ATOM     16  C   UNL     1       3.375  -0.845  -0.007  0.00  0.00    +0.031 C 
BRANCH  14  17
ATOM     17  C   UNL     1       1.111  -0.197  -0.843  0.00  0.00    +0.031 C 
BRANCH  17  19
ATOM     18  C   UNL     1       0.514  -0.576  -3.239  0.00  0.00    +0.010 C 
ATOM     19  C   UNL     1       0.389   0.388  -2.058  0.00  0.00    -0.036 C 
ATOM     20  C   UNL     1       1.019   1.732  -2.428  0.00  0.00    +0.010 C 
ATOM     21  C   UNL     1      -1.090   0.594  -1.722  0.00  0.00    +0.010 C 
ENDBRANCH  17  19
ENDBRANCH  14  17
ENDBRANCH  10  14
ENDBRANCH   1  11
BRANCH   1  22
ATOM     22  N   UNL     1       6.154   0.254  -4.281  0.00  0.00    -0.251 N 
ATOM     23  C   UNL     1       6.507   1.542  -4.105  0.00  0.00    +0.255 C 
ATOM     24  O   UNL     1       7.658   1.888  -4.290  0.00  0.00    -0.269 OA
BRANCH  22  25
ATOM     25  C   UNL     1       7.124  -0.698  -4.610  0.00  0.00    +0.039 A 
ATOM     26  C   UNL     1       7.088  -1.330  -5.846  0.00  0.00    +0.023 A 
ATOM     27  C   UNL     1       8.047  -2.270  -6.169  0.00  0.00    +0.003 A 
ATOM     28  C   UNL     1       9.043  -2.583  -5.263  0.00  0.00    +0.020 A 
ATOM     29  C   UNL     1       9.083  -1.956  -4.030  0.00  0.00    +0.043 A 
ATOM     30  C   UNL     1       8.129  -1.010  -3.703  0.00  0.00    +0.043 A 
ATOM     31 CL   UNL     1      10.335  -2.352  -2.894  0.00  0.00    -0.083 Cl
ENDBRANCH  22  25
BRANCH  23  32
ATOM     32  C   UNL     1       5.497   2.533  -3.687  0.00  0.00    +0.082 A 
ATOM     33  C   UNL     1       4.138   2.204  -3.710  0.00  0.00    +0.017 A 
ATOM     34  C   UNL     1       3.198   3.132  -3.320  0.00  0.00    +0.005 A 
ATOM     35  C   UNL     1       3.591   4.394  -2.904  0.00  0.00    +0.049 A 
ATOM     36  C   UNL     1       4.932   4.735  -2.876  0.00  0.00    +0.159 A 
ATOM     37  C   UNL     1       5.894   3.806  -3.261  0.00  0.00    +0.171 A 
BRANCH  37  38
ATOM     38  O   UNL     1       7.211   4.135  -3.229  0.00  0.00    -0.503 OA
ATOM     39  H   UNL     1       7.539   4.525  -4.051  0.00  0.00    +0.292 HD
ENDBRANCH  37  38
BRANCH  36  40
ATOM     40  O   UNL     1       5.310   5.976  -2.466  0.00  0.00    -0.503 OA
ATOM     41  H   UNL     1       5.476   6.042  -1.516  0.00  0.00    +0.292 HD
ENDBRANCH  36  40
ENDBRANCH  23  32
ENDBRANCH   1  22
TORSDOF 11
