REMARK  Name = ZINC15115360
REMARK  8 active torsions:
REMARK  status: ('A' for Active; 'I' for Inactive)
REMARK    1  A    between atoms: C_1  and  O_2
REMARK    2  A    between atoms: O_2  and  C_3
REMARK    3  A    between atoms: C_6  and  C_9
REMARK    4  A    between atoms: C_9  and  C_11
REMARK    5  A    between atoms: C_9  and  N_57
REMARK    6  A    between atoms: C_11  and  N_12
REMARK    7  A    between atoms: N_12  and  C_13
REMARK    8  A    between atoms: C_24  and  C_27
REMARK                            x       y       z     vdW  Elec       q    Type
REMARK                         _______ _______ _______ _____ _____    ______ ____
ROOT
ATOM      1  N   UNL     1       1.208   3.466  -0.058  0.00  0.00    -0.343 N 
ATOM      2  H   UNL     1       0.370   3.952  -0.013  0.00  0.00    +0.146 HD
ENDROOT
BRANCH   1   3
ATOM      3  C   UNL     1       1.204   2.082  -0.118  0.00  0.00    +0.071 A 
ATOM      4  C   UNL     1       2.420   1.368  -0.184  0.00  0.00    +0.158 A 
ATOM      5  N   UNL     1       2.417   0.066  -0.241  0.00  0.00    -0.168 NA
ATOM      6  N   UNL     1       1.218  -0.654  -0.238  0.00  0.00    -0.177 N 
ATOM      7  C   UNL     1       0.035  -0.013  -0.176  0.00  0.00    +0.293 A 
ATOM      8  O   UNL     1      -1.009  -0.649  -0.174  0.00  0.00    -0.264 OA
ATOM      9  C   UNL     1       0.008   1.387  -0.114  0.00  0.00    +0.129 A 
ATOM     10 CL   UNL     1      -1.504   2.237  -0.040  0.00  0.00    -0.076 Cl
ATOM     11  C   UNL     1       1.248  -2.049  -0.299  0.00  0.00    +0.158 A 
ATOM     12  C   UNL     1       2.469  -2.709  -0.364  0.00  0.00    +0.049 A 
ATOM     13  C   UNL     1       2.485  -4.092  -0.424  0.00  0.00    +0.017 A 
ATOM     14  C   UNL     1       1.273  -4.768  -0.418  0.00  0.00    +0.073 A 
ATOM     15  C   UNL     1       0.096  -4.047  -0.353  0.00  0.00    +0.125 A 
ATOM     16  N   UNL     1       0.113  -2.730  -0.290  0.00  0.00    -0.235 NA
BRANCH  14  17
ATOM     17  C   UNL     1       1.240  -6.274  -0.482  0.00  0.00    +0.419 C 
ATOM     18  F   UNL     1       1.268  -6.796   0.815  0.00  0.00    -0.166 F 
ATOM     19  F   UNL     1       0.070  -6.688  -1.127  0.00  0.00    -0.166 F 
ATOM     20  F   UNL     1       2.353  -6.734  -1.195  0.00  0.00    -0.166 F 
ENDBRANCH  14  17
ENDBRANCH   1   3
BRANCH   1  21
ATOM     21  C   UNL     1       2.479   4.195  -0.063  0.00  0.00    +0.091 C 
BRANCH  21  22
ATOM     22  C   UNL     1       2.204   5.698   0.011  0.00  0.00    -0.020 C 
BRANCH  22  26
ATOM     23  C   UNL     1       5.906   7.807   0.347  0.00  0.00    +0.120 A 
ATOM     24  C   UNL     1       5.736   6.595   0.999  0.00  0.00    +0.046 A 
ATOM     25  C   UNL     1       4.538   5.915   0.889  0.00  0.00    +0.005 A 
ATOM     26  C   UNL     1       3.510   6.442   0.129  0.00  0.00    -0.059 A 
ATOM     27  C   UNL     1       3.679   7.648  -0.526  0.00  0.00    +0.005 A 
ATOM     28  C   UNL     1       4.873   8.334  -0.414  0.00  0.00    +0.046 A 
BRANCH  23  30
ATOM     29  C   UNL     1       7.188   9.720  -0.245  0.00  0.00    +0.277 C 
ATOM     30  O   UNL     1       7.083   8.477   0.453  0.00  0.00    -0.495 OA
ENDBRANCH  23  30
ENDBRANCH  22  26
BRANCH  22  35
ATOM     31  C   UNL     1       2.113   5.734   2.443  0.00  0.00    -0.078 C 
ATOM     32  C   UNL     1       1.325   6.558   3.492  0.00  0.00    -0.020 C 
ATOM     33  C   UNL     1       0.922   7.826   2.704  0.00  0.00    -0.020 C 
ATOM     34  C   UNL     1       0.984   7.414   1.222  0.00  0.00    -0.078 C 
ATOM     35  N   UNL     1       1.362   6.001   1.206  0.00  0.00    +0.385 N 
ATOM     36  H   UNL     1       0.518   5.416   1.180  0.00  0.00    -0.081 HD
ENDBRANCH  22  35
ENDBRANCH  21  22
ENDBRANCH   1  21
TORSDOF 7
