REMARK  Name = ZINC39836503
REMARK  11 active torsions:
REMARK  status: ('A' for Active; 'I' for Inactive)
REMARK    1  A    between atoms: C_1  and  C_2
REMARK    2  A    between atoms: C_2  and  C_3
REMARK    3  A    between atoms: C_2  and  C_4
REMARK    4  A    between atoms: C_2  and  C_5
REMARK    5  A    between atoms: C_12  and  N_25
REMARK    6  A    between atoms: C_13  and  C_14
REMARK    7  A    between atoms: N_16  and  C_17
REMARK    8  A    between atoms: C_26  and  C_28
REMARK    9  A    between atoms: C_31  and  O_34
REMARK   10  A    between atoms: O_34  and  C_35
REMARK   11  A    between atoms: C_35  and  C_36
REMARK                            x       y       z     vdW  Elec       q    Type
REMARK                         _______ _______ _______ _____ _____    ______ ____
ROOT
ATOM      1  C   UNL     1       0.718  -0.497  -1.257  0.00  0.00    -0.000 C 
ATOM      2  C   UNL     1       0.746  -2.029  -1.264  0.00  0.00    +0.009 C 
ATOM      3  C   UNL     1       1.234  -2.534  -2.624  0.00  0.00    +0.037 C 
ATOM      4  C   UNL     1       2.546  -1.840  -2.959  0.00  0.00    -0.023 A 
ATOM      5  C   UNL     1       2.920  -0.705  -2.330  0.00  0.00    -0.004 A 
ATOM      6  S   UNL     1       4.484  -0.289  -3.047  0.00  0.00    -0.077 S 
ATOM      7  C   UNL     1       4.646  -1.558  -4.135  0.00  0.00    +0.085 A 
ATOM      8  C   UNL     1       3.496  -2.310  -3.953  0.00  0.00    +0.069 A 
ATOM      9  C   UNL     1       2.161   0.028  -1.267  0.00  0.00    +0.046 C 
ENDROOT
BRANCH   1  11
ATOM     10  C   UNL     1      -0.019   1.526   0.010  0.00  0.00    +0.011 C 
ATOM     11  C   UNL     1       0.002  -0.004   0.002  0.00  0.00    -0.035 C 
ATOM     12  C   UNL     1       0.742  -0.511   1.242  0.00  0.00    +0.011 C 
ATOM     13  C   UNL     1      -1.433  -0.534   0.013  0.00  0.00    +0.011 C 
ENDBRANCH   1  11
BRANCH   8  14
ATOM     14  C   UNL     1       3.248  -3.528  -4.730  0.00  0.00    +0.247 C 
ATOM     15  O   UNL     1       2.655  -3.462  -5.791  0.00  0.00    -0.270 OA
ATOM     16  N   UNL     1       3.677  -4.720  -4.270  0.00  0.00    -0.307 N 
ATOM     17  H   UNL     1       4.150  -4.772  -3.425  0.00  0.00    +0.149 HD
BRANCH  16  18
ATOM     18  C   UNL     1       3.430  -5.937  -5.047  0.00  0.00    +0.096 C 
ATOM     19  C   UNL     1       2.044  -6.504  -4.697  0.00  0.00    +0.046 C 
ATOM     20  C   UNL     1       1.904  -7.940  -5.257  0.00  0.00    +0.168 C 
ATOM     21  S   UNL     1       3.643  -8.538  -5.274  0.00  0.00    -0.029 S 
ATOM     22  O   UNL     1       4.029  -8.801  -6.617  0.00  0.00    -0.174 OA
ATOM     23  O   UNL     1       3.792  -9.554  -4.293  0.00  0.00    -0.174 OA
ATOM     24  C   UNL     1       4.496  -7.012  -4.693  0.00  0.00    +0.188 C 
ENDBRANCH  16  18
ENDBRANCH   8  14
BRANCH   7  25
ATOM     25  N   UNL     1       5.690  -1.797  -5.015  0.00  0.00    -0.275 N 
ATOM     26  C   UNL     1       6.740  -0.953  -5.060  0.00  0.00    +0.249 C 
ATOM     27  O   UNL     1       6.771   0.018  -4.329  0.00  0.00    -0.270 OA
ATOM     28  H   UNL     1       5.665  -2.572  -5.598  0.00  0.00    +0.156 HD
BRANCH  26  29
ATOM     29  C   UNL     1       7.851  -1.208  -5.997  0.00  0.00    +0.037 A 
ATOM     30  C   UNL     1       7.814  -2.321  -6.841  0.00  0.00    +0.016 A 
ATOM     31  C   UNL     1       8.853  -2.555  -7.714  0.00  0.00    +0.046 A 
ATOM     32  C   UNL     1       9.938  -1.687  -7.755  0.00  0.00    +0.121 A 
ATOM     33  C   UNL     1       9.979  -0.579  -6.916  0.00  0.00    +0.046 A 
ATOM     34  C   UNL     1       8.941  -0.334  -6.045  0.00  0.00    +0.016 A 
BRANCH  32  35
ATOM     35  O   UNL     1      10.960  -1.922  -8.616  0.00  0.00    -0.488 OA
BRANCH  35  36
ATOM     36  C   UNL     1      12.044  -0.990  -8.606  0.00  0.00    +0.256 C 
BRANCH  36  37
ATOM     37  C   UNL     1      13.077  -1.410  -9.619  0.00  0.00    +0.006 C 
ATOM     38  C   UNL     1      13.605  -0.521 -10.424  0.00  0.00    +0.007 C 
ENDBRANCH  36  37
ENDBRANCH  35  36
ENDBRANCH  32  35
ENDBRANCH  26  29
ENDBRANCH   7  25
TORSDOF 8
