REMARK  Name = ZINC36753314
REMARK  1 active torsions:
REMARK  status: ('A' for Active; 'I' for Inactive)
REMARK    1  A    between atoms: C_3  and  C_9
REMARK                            x       y       z     vdW  Elec       q    Type
REMARK                         _______ _______ _______ _____ _____    ______ ____
ROOT
ATOM      1  C   UNL     1      -0.017   1.379   0.010  0.00  0.00    +0.002 A 
ATOM      2  C   UNL     1       1.167   2.088   0.002  0.00  0.00    +0.013 A 
ATOM      3  C   UNL     1       2.384   1.410  -0.013  0.00  0.00    +0.040 A 
ATOM      4  C   UNL     1       2.399   0.015  -0.021  0.00  0.00    +0.070 A 
ATOM      5  C   UNL     1       1.207  -0.685  -0.013  0.00  0.00    +0.060 A 
ATOM      6  C   UNL     1       0.002  -0.004   0.002  0.00  0.00    +0.021 A 
ATOM      7 CL   UNL     1       1.222  -2.421  -0.023  0.00  0.00    -0.082 Cl
ATOM      8 CL   UNL     1       3.910  -0.839  -0.040  0.00  0.00    -0.081 Cl
ENDROOT
BRANCH   3   9
ATOM      9  C   UNL     1       3.659   2.168  -0.022  0.00  0.00    +0.172 A 
ATOM     10  N   UNL     1       4.824   1.543  -0.041  0.00  0.00    -0.204 NA
ATOM     11  C   UNL     1       5.918   2.285  -0.048  0.00  0.00    +0.176 A 
ATOM     12  S   UNL     1       5.303   3.849  -0.026  0.00  0.00    +0.049 S 
ATOM     13  N   UNL     1       3.667   3.485  -0.016  0.00  0.00    -0.187 NA
ATOM     14  N   UNL     1       7.239   1.876  -0.067  0.00  0.00    -0.336 N 
ATOM     15  H   UNL     1       7.453   0.930  -0.077  0.00  0.00    +0.144 HD
ATOM     16  H   UNL     1       7.950   2.535  -0.069  0.00  0.00    +0.144 HD
ENDBRANCH   3   9
TORSDOF 1
