REMARK  Name = ZINC39266120
REMARK  9 active torsions:
REMARK  status: ('A' for Active; 'I' for Inactive)
REMARK    1  A    between atoms: C_4  and  C_7
REMARK    2  A    between atoms: C_7  and  O_8
REMARK    3  A    between atoms: O_8  and  C_9
REMARK    4  A    between atoms: C_16  and  C_34
REMARK    5  A    between atoms: N_18  and  C_21
REMARK    6  A    between atoms: C_21  and  C_22
REMARK    7  A    between atoms: N_24  and  C_25
REMARK    8  A    between atoms: C_25  and  C_26
REMARK    9  A    between atoms: C_26  and  N_27
REMARK                            x       y       z     vdW  Elec       q    Type
REMARK                         _______ _______ _______ _____ _____    ______ ____
ROOT
ATOM      1  C   UNL     1       5.201  -2.700   1.075  0.00  0.00    +0.404 C 
ATOM      2  O   UNL     1       5.846  -2.985   0.086  0.00  0.00    -0.226 OA
ATOM      3  N   UNL     1       5.718  -2.910   2.302  0.00  0.00    -0.251 N 
ATOM      4  C   UNL     1       5.072  -2.557   3.581  0.00  0.00    +0.112 C 
ATOM      5  C   UNL     1       5.710  -3.510   4.623  0.00  0.00    +0.022 C 
ATOM      6  C   UNL     1       7.176  -3.589   4.120  0.00  0.00    +0.039 C 
ATOM      7  C   UNL     1       7.013  -3.534   2.590  0.00  0.00    +0.139 C 
ATOM      8  C   UNL     1       8.203  -2.928   1.848  0.00  0.00    +0.139 C 
ATOM      9  N   UNL     1       8.306  -4.265   1.251  0.00  0.00    -0.281 N 
ATOM     10  C   UNL     1       7.261  -4.841   1.885  0.00  0.00    +0.243 C 
ATOM     11  O   UNL     1       6.745  -5.939   1.887  0.00  0.00    -0.273 OA
ENDROOT
BRANCH   8  12
ATOM     12  C   UNL     1       7.833  -1.840   0.873  0.00  0.00    -0.024 A 
ATOM     13  C   UNL     1       7.316  -0.644   1.336  0.00  0.00    +0.005 A 
ATOM     14  C   UNL     1       6.976   0.354   0.441  0.00  0.00    +0.000 A 
ATOM     15  C   UNL     1       7.155   0.157  -0.915  0.00  0.00    +0.000 A 
ATOM     16  C   UNL     1       7.673  -1.039  -1.377  0.00  0.00    +0.000 A 
ATOM     17  C   UNL     1       8.016  -2.035  -0.483  0.00  0.00    +0.005 A 
ENDBRANCH   8  12
BRANCH   1  18
ATOM     18  O   UNL     1       3.969  -2.172   0.945  0.00  0.00    -0.445 OA
BRANCH  18  19
ATOM     19  C   UNL     1       3.484  -1.976  -0.385  0.00  0.00    +0.269 C 
BRANCH  19  23
ATOM     20  C   UNL     1      -0.440  -0.293  -0.239  0.00  0.00    +0.000 A 
ATOM     21  C   UNL     1       0.667   0.535  -0.271  0.00  0.00    +0.000 A 
ATOM     22  C   UNL     1       1.937  -0.010  -0.319  0.00  0.00    +0.007 A 
ATOM     23  C   UNL     1       2.099  -1.383  -0.333  0.00  0.00    -0.010 A 
ATOM     24  C   UNL     1       0.993  -2.211  -0.299  0.00  0.00    +0.007 A 
ATOM     25  C   UNL     1      -0.277  -1.666  -0.253  0.00  0.00    +0.000 A 
ENDBRANCH  19  23
ENDBRANCH  18  19
ENDBRANCH   1  18
BRANCH   9  26
ATOM     26  C   UNL     1       9.250  -4.807   0.271  0.00  0.00    +0.204 C 
BRANCH  26  27
ATOM     27  C   UNL     1      10.366  -5.521   0.989  0.00  0.00    +0.230 C 
ATOM     28  O   UNL     1      10.372  -5.572   2.201  0.00  0.00    -0.274 OA
ATOM     29  N   UNL     1      11.357  -6.103   0.285  0.00  0.00    -0.316 N 
ATOM     30  H   UNL     1      11.352  -6.063  -0.684  0.00  0.00    +0.149 HD
BRANCH  29  31
ATOM     31  C   UNL     1      12.442  -6.798   0.983  0.00  0.00    +0.086 C 
BRANCH  31  32
ATOM     32  C   UNL     1      13.428  -7.364  -0.041  0.00  0.00    -0.060 C 
BRANCH  32  33
ATOM     33  N   UNL     1      14.579  -7.949   0.659  0.00  0.00    +0.381 N 
ATOM     34  C   UNL     1      15.620  -8.277  -0.334  0.00  0.00    -0.079 C 
ATOM     35  C   UNL     1      16.955  -8.291   0.367  0.00  0.00    -0.019 C 
ATOM     36  C   UNL     1      17.357  -9.717   0.787  0.00  0.00    -0.002 C 
ATOM     37  C   UNL     1      16.155 -10.511   1.339  0.00  0.00    -0.002 C 
ATOM     38  C   UNL     1      15.277  -9.675   2.234  0.00  0.00    -0.019 C 
ATOM     39  C   UNL     1      14.143  -9.056   1.390  0.00  0.00    -0.079 C 
ATOM     40  H   UNL     1      14.950  -7.264   1.300  0.00  0.00    -0.082 HD
ENDBRANCH  32  33
ENDBRANCH  31  32
ENDBRANCH  29  31
ENDBRANCH  26  27
ENDBRANCH   9  26
TORSDOF 9
