REMARK  Name = ZINC59302683
REMARK  6 active torsions:
REMARK  status: ('A' for Active; 'I' for Inactive)
REMARK    1  A    between atoms: C_1  and  C_2
REMARK    2  A    between atoms: C_2  and  N_3
REMARK    3  A    between atoms: N_3  and  C_4
REMARK    4  A    between atoms: C_4  and  C_5
REMARK    5  A    between atoms: N_18  and  C_19
REMARK    6  A    between atoms: C_19  and  C_20
REMARK                            x       y       z     vdW  Elec       q    Type
REMARK                         _______ _______ _______ _____ _____    ______ ____
ROOT
ATOM      1  N   UNL     1      -1.171  -1.053   0.039  0.00  0.00    -0.282 N 
ATOM      2  C   UNL     1      -1.871  -1.052   1.190  0.00  0.00    +0.303 C 
ATOM      3  O   UNL     1      -3.061  -1.297   1.178  0.00  0.00    -0.253 OA
ATOM      4  N   UNL     1      -1.250  -0.781   2.356  0.00  0.00    -0.295 N 
ATOM      5  H   UNL     1      -0.300  -0.586   2.365  0.00  0.00    +0.151 HD
ENDROOT
BRANCH   1   7
ATOM      6  C   UNL     1       0.478   0.747  -0.116  0.00  0.00    +0.024 C 
ATOM      7  C   UNL     1       0.264  -0.759   0.053  0.00  0.00    +0.106 C 
ENDBRANCH   1   7
BRANCH   1   8
ATOM      8  C   UNL     1      -1.845  -1.348  -1.228  0.00  0.00    +0.157 C 
BRANCH   8   9
ATOM      9  C   UNL     1      -1.794  -2.854  -1.494  0.00  0.00    +0.228 C 
ATOM     10  C   UNL     1      -2.400  -3.157  -2.871  0.00  0.00    +0.275 C 
ATOM     11  O   UNL     1      -2.349  -4.572  -3.082  0.00  0.00    -0.485 OA
ATOM     12  C   UNL     1      -2.761  -5.359  -2.050  0.00  0.00    +0.162 A 
ATOM     13  C   UNL     1      -3.082  -6.687  -2.293  0.00  0.00    +0.049 A 
ATOM     14  C   UNL     1      -3.498  -7.499  -1.256  0.00  0.00    +0.004 A 
ATOM     15  C   UNL     1      -3.595  -6.992   0.027  0.00  0.00    +0.004 A 
ATOM     16  C   UNL     1      -3.279  -5.670   0.275  0.00  0.00    +0.049 A 
ATOM     17  C   UNL     1      -2.862  -4.848  -0.762  0.00  0.00    +0.163 A 
ATOM     18  O   UNL     1      -2.561  -3.546  -0.503  0.00  0.00    -0.480 OA
ENDBRANCH   8   9
ENDBRANCH   1   8
BRANCH   4  19
ATOM     19  C   UNL     1      -2.011  -0.780   3.608  0.00  0.00    +0.142 C 
BRANCH  19  20
ATOM     20  C   UNL     1      -1.091  -0.450   4.755  0.00  0.00    -0.014 A 
ATOM     21  C   UNL     1      -0.420  -1.462   5.430  0.00  0.00    +0.010 A 
ATOM     22  C   UNL     1       0.415  -1.115   6.476  0.00  0.00    +0.042 A 
ATOM     23  C   UNL     1       0.554   0.227   6.816  0.00  0.00    +0.099 A 
ATOM     24  N   UNL     1      -0.102   1.162   6.147  0.00  0.00    -0.349 N 
ATOM     25  C   UNL     1      -0.901   0.862   5.141  0.00  0.00    +0.089 A 
ATOM     26  N   UNL     1       1.390   0.589   7.866  0.00  0.00    -0.317 N 
ATOM     27  C   UNL     1       2.208  -0.431   8.484  0.00  0.00    +0.106 C 
ATOM     28  C   UNL     1       1.423  -1.093   9.644  0.00  0.00    +0.019 C 
ATOM     29  C   UNL     1       1.298  -0.159  10.774  0.00  0.00    +0.002 C 
ATOM     30  C   UNL     1       0.508   1.108  10.458  0.00  0.00    +0.002 C 
ATOM     31  C   UNL     1       1.429   2.129   9.837  0.00  0.00    +0.019 C 
ATOM     32  C   UNL     1       1.411   1.999   8.300  0.00  0.00    +0.106 C 
ATOM     33  H   UNL     1       0.010   2.092   6.401  0.00  0.00    +0.167 HD
ENDBRANCH  19  20
ENDBRANCH   4  19
TORSDOF 5
