REMARK  Name = ZINC40015384
REMARK  10 active torsions:
REMARK  status: ('A' for Active; 'I' for Inactive)
REMARK    1  A    between atoms: C_1  and  C_2
REMARK    2  A    between atoms: C_2  and  C_3
REMARK    3  A    between atoms: C_3  and  C_4
REMARK    4  A    between atoms: C_4  and  N_5
REMARK    5  A    between atoms: C_6  and  N_7
REMARK    6  A    between atoms: C_8  and  C_21
REMARK    7  A    between atoms: C_26  and  C_29
REMARK    8  A    between atoms: C_29  and  O_31
REMARK    9  A    between atoms: O_31  and  C_32
REMARK   10  A    between atoms: C_32  and  C_33
REMARK                            x       y       z     vdW  Elec       q    Type
REMARK                         _______ _______ _______ _____ _____    ______ ____
ROOT
ATOM      1  N   UNL     1      -2.806  -2.592  -0.011  0.00  0.00    -0.313 N 
ATOM      2  C   UNL     1      -3.392  -2.804   1.152  0.00  0.00    +0.110 A 
ATOM      3  C   UNL     1      -4.714  -3.296   1.229  0.00  0.00    +0.075 A 
ATOM      4  C   UNL     1      -5.412  -3.562   0.049  0.00  0.00    +0.033 A 
ATOM      5  C   UNL     1      -4.764  -3.327  -1.161  0.00  0.00    +0.083 A 
ATOM      6  C   UNL     1      -3.434  -2.826  -1.164  0.00  0.00    +0.150 A 
ATOM      7  N   UNL     1      -2.832  -2.603  -2.337  0.00  0.00    -0.211 NA
ATOM      8  C   UNL     1      -3.436  -2.828  -3.498  0.00  0.00    +0.143 A 
ATOM      9  C   UNL     1      -2.726  -2.565  -4.689  0.00  0.00    +0.047 A 
ATOM     10  C   UNL     1      -3.323  -2.788  -5.891  0.00  0.00    +0.005 A 
ATOM     11  C   UNL     1      -4.637  -3.277  -5.934  0.00  0.00    +0.018 A 
ATOM     12  C   UNL     1      -5.305  -3.525  -4.787  0.00  0.00    +0.096 A 
ATOM     13  N   UNL     1      -4.717  -3.306  -3.574  0.00  0.00    -0.268 N 
ATOM     14  C   UNL     1      -5.417  -3.577  -2.447  0.00  0.00    +0.268 A 
ATOM     15  O   UNL     1      -6.556  -4.002  -2.502  0.00  0.00    -0.267 OA
ENDROOT
BRANCH   3  16
ATOM     16  C   UNL     1      -5.348  -3.526   2.537  0.00  0.00    +0.250 C 
ATOM     17  O   UNL     1      -4.806  -4.241   3.358  0.00  0.00    -0.270 OA
ATOM     18  N   UNL     1      -6.529  -2.943   2.825  0.00  0.00    -0.297 N 
ATOM     19  C   UNL     1      -7.244  -2.158   1.810  0.00  0.00    +0.109 C 
ATOM     20  C   UNL     1      -7.553  -0.772   2.386  0.00  0.00    +0.033 C 
ATOM     21  C   UNL     1      -8.310  -0.930   3.706  0.00  0.00    +0.101 C 
ATOM     22  C   UNL     1      -7.437  -1.687   4.710  0.00  0.00    +0.033 C 
ATOM     23  C   UNL     1      -7.129  -3.087   4.158  0.00  0.00    +0.109 C 
BRANCH  21  24
ATOM     24  C   UNL     1      -8.645   0.431   4.259  0.00  0.00    +0.310 C 
ATOM     25  O   UNL     1      -8.313   1.425   3.658  0.00  0.00    -0.251 OA
BRANCH  24  26
ATOM     26  O   UNL     1      -9.313   0.539   5.418  0.00  0.00    -0.465 OA
BRANCH  26  27
ATOM     27  C   UNL     1      -9.597   1.860   5.883  0.00  0.00    +0.229 C 
ATOM     28  C   UNL     1     -10.358   1.782   7.207  0.00  0.00    +0.048 C 
ENDBRANCH  26  27
ENDBRANCH  24  26
ENDBRANCH  21  24
ENDBRANCH   3  16
BRANCH   2  29
ATOM     29  N   UNL     1      -2.701  -2.540   2.316  0.00  0.00    -0.344 N 
ATOM     30  H   UNL     1      -1.770  -2.272   2.276  0.00  0.00    +0.144 HD
ATOM     31  H   UNL     1      -3.146  -2.623   3.174  0.00  0.00    +0.144 HD
ENDBRANCH   2  29
BRANCH   1  32
ATOM     32  C   UNL     1      -1.433  -2.081  -0.036  0.00  0.00    +0.125 C 
BRANCH  32  33
ATOM     33  C   UNL     1      -1.458  -0.551  -0.045  0.00  0.00    +0.021 C 
BRANCH  33  35
ATOM     34  C   UNL     1      -0.050   1.512  -0.080  0.00  0.00    +0.004 C 
ATOM     35  C   UNL     1      -0.024  -0.018  -0.071  0.00  0.00    -0.002 C 
ENDBRANCH  33  35
ENDBRANCH  32  33
ENDBRANCH   1  32
TORSDOF 8
