REMARK  Name = ZINC16888754
REMARK  10 active torsions:
REMARK  status: ('A' for Active; 'I' for Inactive)
REMARK    1  A    between atoms: C_1  and  C_2
REMARK    2  A    between atoms: C_2  and  C_4
REMARK    3  A    between atoms: C_2  and  N_19
REMARK    4  A    between atoms: C_4  and  C_5
REMARK    5  A    between atoms: N_7  and  C_15
REMARK    6  A    between atoms: C_15  and  C_16
REMARK    7  A    between atoms: C_16  and  C_18
REMARK    8  A    between atoms: C_20  and  C_22
REMARK    9  A    between atoms: C_22  and  C_23
REMARK   10  A    between atoms: C_22  and  C_29
REMARK                            x       y       z     vdW  Elec       q    Type
REMARK                         _______ _______ _______ _____ _____    ______ ____
ROOT
ATOM      1  C   UNL     1      -4.771  -2.616   5.758  0.00  0.00    +0.028 C 
ATOM      2  C   UNL     1      -4.739  -1.772   4.482  0.00  0.00    +0.074 C 
ENDROOT
BRANCH   2   3
ATOM      3  N   UNL     1      -4.641  -2.654   3.316  0.00  0.00    -0.312 N 
ATOM      4  C   UNL     1      -5.756  -3.189   2.780  0.00  0.00    +0.225 C 
ATOM      5  O   UNL     1      -6.840  -2.941   3.263  0.00  0.00    -0.275 OA
ATOM      6  H   UNL     1      -3.773  -2.852   2.930  0.00  0.00    +0.149 HD
BRANCH   4   7
ATOM      7  C   UNL     1      -5.654  -4.096   1.580  0.00  0.00    +0.135 C 
BRANCH   7   8
ATOM      8  C   UNL     1      -7.033  -4.556   1.181  0.00  0.00    -0.031 A 
ATOM      9  C   UNL     1      -8.030  -3.628   0.948  0.00  0.00    +0.005 A 
ATOM     10  C   UNL     1      -9.293  -4.050   0.576  0.00  0.00    +0.000 A 
ATOM     11  C   UNL     1      -9.561  -5.400   0.448  0.00  0.00    +0.000 A 
ATOM     12  C   UNL     1      -8.565  -6.328   0.686  0.00  0.00    +0.000 A 
ATOM     13  C   UNL     1      -7.301  -5.906   1.053  0.00  0.00    +0.005 A 
ENDBRANCH   7   8
BRANCH   7  14
ATOM     14  C   UNL     1      -5.023  -3.345   0.436  0.00  0.00    -0.031 A 
ATOM     15  C   UNL     1      -5.531  -2.119   0.049  0.00  0.00    +0.005 A 
ATOM     16  C   UNL     1      -4.949  -1.429  -0.997  0.00  0.00    +0.000 A 
ATOM     17  C   UNL     1      -3.866  -1.970  -1.665  0.00  0.00    +0.000 A 
ATOM     18  C   UNL     1      -3.362  -3.199  -1.282  0.00  0.00    +0.000 A 
ATOM     19  C   UNL     1      -3.941  -3.886  -0.232  0.00  0.00    +0.005 A 
ENDBRANCH   7  14
ENDBRANCH   4   7
ENDBRANCH   2   3
BRANCH   2  20
ATOM     20  C   UNL     1      -3.528  -0.838   4.519  0.00  0.00    +0.059 C 
BRANCH  20  21
ATOM     21  C   UNL     1      -3.564   0.078   3.323  0.00  0.00    -0.020 A 
ATOM     22  C   UNL     1      -2.933  -0.112   2.153  0.00  0.00    +0.090 A 
ATOM     23  N   UNL     1      -3.199   0.929   1.306  0.00  0.00    -0.342 N 
ATOM     24  C   UNL     1      -4.024   1.841   1.927  0.00  0.00    +0.050 A 
ATOM     25  C   UNL     1      -4.293   1.344   3.216  0.00  0.00    +0.004 A 
ATOM     26  C   UNL     1      -5.116   2.065   4.083  0.00  0.00    +0.025 A 
ATOM     27  C   UNL     1      -5.652   3.266   3.673  0.00  0.00    +0.019 A 
ATOM     28  C   UNL     1      -5.388   3.753   2.399  0.00  0.00    +0.017 A 
ATOM     29  C   UNL     1      -4.582   3.051   1.531  0.00  0.00    +0.027 A 
ATOM     30 BR   UNL     1      -6.762   4.250   4.846  0.00  0.00    -0.050 Br
BRANCH  23  31
ATOM     31  C   UNL     1      -2.679   1.058  -0.058  0.00  0.00    +0.151 C 
BRANCH  31  32
ATOM     32  C   UNL     1      -1.431   1.903  -0.041  0.00  0.00    -0.060 C 
ATOM     33  C   UNL     1      -0.254   1.330   0.019  0.00  0.00    +0.009 C 
ATOM     34  C   UNL     1      -1.536   3.405  -0.094  0.00  0.00    +0.040 C 
ENDBRANCH  31  32
ENDBRANCH  23  31
ENDBRANCH  20  21
ENDBRANCH   2  20
TORSDOF 8
