REMARK  Name = ZINC09339135
REMARK  8 active torsions:
REMARK  status: ('A' for Active; 'I' for Inactive)
REMARK    1  A    between atoms: C_1  and  C_2
REMARK    2  A    between atoms: C_3  and  C_8
REMARK    3  A    between atoms: C_4  and  C_7
REMARK    4  A    between atoms: C_8  and  O_9
REMARK    5  A    between atoms: O_9  and  C_10
REMARK    6  A    between atoms: C_13  and  C_16
REMARK    7  A    between atoms: N_27  and  C_28
REMARK    8  A    between atoms: C_28  and  C_29
REMARK                            x       y       z     vdW  Elec       q    Type
REMARK                         _______ _______ _______ _____ _____    ______ ____
ROOT
ATOM      1  C   UNL     1       2.738   1.460  -0.049  0.00  0.00    +0.193 C 
ATOM      2  N   UNL     1       2.718   0.179  -0.765  0.00  0.00    -0.321 N 
ATOM      3  C   UNL     1       1.700  -0.725  -0.480  0.00  0.00    +0.041 A 
ATOM      4  C   UNL     1       1.883  -2.092  -0.588  0.00  0.00    +0.024 A 
ATOM      5  C   UNL     1       0.842  -2.947  -0.282  0.00  0.00    +0.002 A 
ATOM      6  C   UNL     1      -0.383  -2.447   0.130  0.00  0.00    +0.001 A 
ATOM      7  C   UNL     1      -0.583  -1.086   0.241  0.00  0.00    +0.015 A 
ATOM      8  C   UNL     1       0.458  -0.213  -0.065  0.00  0.00    +0.058 A 
ATOM      9  C   UNL     1       0.298   1.249   0.032  0.00  0.00    +0.250 C 
ATOM     10  O   UNL     1      -0.809   1.741   0.134  0.00  0.00    -0.270 OA
ATOM     11  N   UNL     1       1.394   2.036  -0.001  0.00  0.00    -0.272 N 
ATOM     12  H   UNL     1       3.399  -0.033  -1.422  0.00  0.00    +0.148 HD
ENDROOT
BRANCH   1  16
ATOM     13  C   UNL     1       4.154   0.834   3.934  0.00  0.00    +0.121 A 
ATOM     14  C   UNL     1       2.944   0.287   3.533  0.00  0.00    +0.046 A 
ATOM     15  C   UNL     1       2.488   0.492   2.245  0.00  0.00    +0.010 A 
ATOM     16  C   UNL     1       3.237   1.240   1.355  0.00  0.00    -0.009 A 
ATOM     17  C   UNL     1       4.447   1.781   1.751  0.00  0.00    +0.010 A 
ATOM     18  C   UNL     1       4.904   1.585   3.040  0.00  0.00    +0.046 A 
BRANCH  13  19
ATOM     19  O   UNL     1       4.605   0.635   5.200  0.00  0.00    -0.487 OA
BRANCH  19  20
ATOM     20  C   UNL     1       5.859   1.228   5.543  0.00  0.00    +0.269 C 
BRANCH  20  23
ATOM     21  C   UNL     1       5.095   2.933   8.196  0.00  0.00    +0.069 C 
ATOM     22  C   UNL     1       5.864   1.639   8.137  0.00  0.00    +0.087 A 
ATOM     23  C   UNL     1       6.194   0.901   6.976  0.00  0.00    +0.054 A 
ATOM     24  C   UNL     1       6.884  -0.164   7.450  0.00  0.00    +0.141 A 
ATOM     25  O   UNL     1       6.928  -0.025   8.782  0.00  0.00    -0.359 OA
ATOM     26  N   UNL     1       6.356   0.977   9.144  0.00  0.00    -0.083 NA
ATOM     27  C   UNL     1       7.484  -1.283   6.639  0.00  0.00    +0.089 C 
ENDBRANCH  20  23
ENDBRANCH  19  20
ENDBRANCH  13  19
ENDBRANCH   1  16
BRANCH  11  28
ATOM     28  C   UNL     1       1.235   3.492   0.013  0.00  0.00    +0.141 C 
BRANCH  28  29
ATOM     29  C   UNL     1       1.354   4.005   1.449  0.00  0.00    +0.136 C 
ATOM     30  C   UNL     1       1.170   5.543   1.488  0.00  0.00    +0.035 C 
ATOM     31  C   UNL     1       0.683   5.743   2.950  0.00  0.00    +0.031 C 
ATOM     32  C   UNL     1      -0.144   4.464   3.200  0.00  0.00    +0.160 C 
ATOM     33  O   UNL     1       0.290   3.477   2.257  0.00  0.00    -0.375 OA
ENDBRANCH  28  29
ENDBRANCH  11  28
TORSDOF 6
