REMARK  Name = ZINC38904538
REMARK  9 active torsions:
REMARK  status: ('A' for Active; 'I' for Inactive)
REMARK    1  A    between atoms: C_1  and  C_2
REMARK    2  A    between atoms: C_2  and  C_3
REMARK    3  A    between atoms: C_3  and  C_4
REMARK    4  A    between atoms: C_4  and  C_5
REMARK    5  A    between atoms: C_5  and  N_6
REMARK    6  A    between atoms: C_7  and  C_9
REMARK    7  A    between atoms: N_14  and  C_16
REMARK    8  A    between atoms: C_16  and  C_17
REMARK    9  A    between atoms: C_19  and  C_22
REMARK                            x       y       z     vdW  Elec       q    Type
REMARK                         _______ _______ _______ _____ _____    ______ ____
ROOT
ATOM      1  C   UNL     1      -3.966  -6.254   0.006  0.00  0.00    +0.058 C 
ATOM      2  C   UNL     1      -3.227  -6.763   1.248  0.00  0.00    +0.009 C 
ATOM      3  C   UNL     1      -3.280  -8.293   1.270  0.00  0.00    -0.018 C 
ATOM      4  C   UNL     1      -4.740  -8.748   1.238  0.00  0.00    -0.078 C 
ATOM      5  N   UNL     1      -5.384  -8.253   0.015  0.00  0.00    +0.386 N 
ATOM      6  C   UNL     1      -5.401  -6.785   0.019  0.00  0.00    -0.065 C 
ATOM      7  H   UNL     1      -4.870  -8.579  -0.790  0.00  0.00    -0.081 HD
ENDROOT
BRANCH   1   9
ATOM      8  N   UNL     1      -2.828  -4.058   0.007  0.00  0.00    -0.315 N 
ATOM      9  C   UNL     1      -3.986  -4.748   0.015  0.00  0.00    +0.214 C 
ATOM     10  O   UNL     1      -5.044  -4.156   0.028  0.00  0.00    -0.276 OA
ATOM     11  H   UNL     1      -1.982  -4.531  -0.003  0.00  0.00    +0.149 HD
BRANCH   8  12
ATOM     12  C   UNL     1      -2.848  -2.593   0.015  0.00  0.00    +0.104 C 
BRANCH  12  13
ATOM     13  C   UNL     1      -1.413  -2.063   0.004  0.00  0.00    +0.019 C 
BRANCH  13  14
ATOM     14  C   UNL     1      -1.433  -0.534   0.013  0.00  0.00    +0.001 C 
BRANCH  14  16
ATOM     15  C   UNL     1      -0.019   1.526   0.010  0.00  0.00    +0.004 C 
ATOM     16  C   UNL     1       0.002  -0.004   0.002  0.00  0.00    -0.003 C 
ENDBRANCH  14  16
ENDBRANCH  13  14
ENDBRANCH  12  13
ENDBRANCH   8  12
ENDBRANCH   1   9
BRANCH   5  17
ATOM     17  C   UNL     1      -6.762  -8.757  -0.050  0.00  0.00    +0.022 C 
BRANCH  17  18
ATOM     18  C   UNL     1      -6.742 -10.257  -0.189  0.00  0.00    +0.211 A 
ATOM     19  N   UNL     1      -6.752 -11.113   0.793  0.00  0.00    -0.193 NA
ATOM     20  C   UNL     1      -6.729 -12.368   0.311  0.00  0.00    +0.202 A 
ATOM     21  N   UNL     1      -6.705 -12.313  -0.998  0.00  0.00    -0.056 NA
ATOM     22  O   UNL     1      -6.718 -10.936  -1.343  0.00  0.00    -0.340 OA
BRANCH  20  23
ATOM     23  C   UNL     1      -6.730 -13.609   1.126  0.00  0.00    +0.023 A 
ATOM     24  C   UNL     1      -6.762 -13.531   2.517  0.00  0.00    +0.012 A 
ATOM     25  C   UNL     1      -6.763 -14.688   3.270  0.00  0.00    +0.002 A 
ATOM     26  C   UNL     1      -6.733 -15.922   2.647  0.00  0.00    +0.015 A 
ATOM     27  C   UNL     1      -6.700 -16.005   1.266  0.00  0.00    +0.019 A 
ATOM     28  C   UNL     1      -6.705 -14.854   0.502  0.00  0.00    +0.027 A 
ATOM     29 BR   UNL     1      -6.656 -17.697   0.422  0.00  0.00    -0.050 Br
ENDBRANCH  20  23
ENDBRANCH  17  18
ENDBRANCH   5  17
TORSDOF 8
