REMARK  Name = ZINC67460855
REMARK  7 active torsions:
REMARK  status: ('A' for Active; 'I' for Inactive)
REMARK    1  A    between atoms: C_1  and  C_2
REMARK    2  A    between atoms: C_2  and  C_4
REMARK    3  A    between atoms: C_2  and  N_14
REMARK    4  A    between atoms: N_17  and  C_18
REMARK    5  A    between atoms: C_18  and  C_19
REMARK    6  A    between atoms: N_24  and  C_25
REMARK    7  A    between atoms: C_25  and  C_26
REMARK                            x       y       z     vdW  Elec       q    Type
REMARK                         _______ _______ _______ _____ _____    ______ ____
ROOT
ATOM      1  N   UNL     1       0.358  -0.838   1.133  0.00  0.00    -0.293 N 
ATOM      2  C   UNL     1      -0.172  -0.780   2.371  0.00  0.00    +0.300 C 
ATOM      3  O   UNL     1      -1.276  -0.298   2.538  0.00  0.00    -0.253 OA
ATOM      4  N   UNL     1       0.523  -1.256   3.423  0.00  0.00    -0.301 N 
ATOM      5  H   UNL     1       1.238  -1.222   0.999  0.00  0.00    +0.151 HD
ATOM      6  H   UNL     1       1.403  -1.640   3.290  0.00  0.00    +0.150 HD
ENDROOT
BRANCH   1   8
ATOM      7  C   UNL     1      -0.160   1.185  -0.140  0.00  0.00    +0.033 C 
ATOM      8  C   UNL     1      -0.397  -0.321  -0.012  0.00  0.00    +0.102 C 
BRANCH   8   9
ATOM      9  C   UNL     1       0.063  -1.011  -1.270  0.00  0.00    -0.027 A 
ATOM     10  C   UNL     1       1.406  -1.279  -1.462  0.00  0.00    +0.007 A 
ATOM     11  C   UNL     1       1.833  -1.911  -2.612  0.00  0.00    +0.024 A 
ATOM     12  C   UNL     1       0.912  -2.283  -3.589  0.00  0.00    +0.037 A 
ATOM     13  C   UNL     1      -0.434  -2.008  -3.385  0.00  0.00    -0.017 A 
ATOM     14  C   UNL     1      -0.858  -1.382  -2.234  0.00  0.00    +0.011 A 
ATOM     15  C   UNL     1      -1.164  -2.525  -4.603  0.00  0.00    +0.133 C 
ATOM     16  C   UNL     1      -0.067  -3.101  -5.472  0.00  0.00    +0.222 C 
ATOM     17  O   UNL     1      -0.207  -3.627  -6.556  0.00  0.00    -0.275 OA
ATOM     18  N   UNL     1       1.093  -2.921  -4.817  0.00  0.00    -0.285 N 
ATOM     19  H   UNL     1       1.956  -3.203  -5.158  0.00  0.00    +0.155 HD
ENDBRANCH   8   9
ENDBRANCH   1   8
BRANCH   4  20
ATOM     20  C   UNL     1      -0.053  -1.193   4.769  0.00  0.00    +0.090 C 
BRANCH  20  21
ATOM     21  C   UNL     1       0.901  -1.859   5.763  0.00  0.00    -0.051 C 
ATOM     22  C   UNL     1       0.215  -1.994   7.139  0.00  0.00    -0.016 C 
ATOM     23  C   UNL     1       1.367  -1.694   8.134  0.00  0.00    -0.020 C 
ATOM     24  C   UNL     1       2.166  -0.608   7.371  0.00  0.00    -0.078 C 
ATOM     25  N   UNL     1       2.099  -1.019   5.949  0.00  0.00    +0.383 N 
ATOM     26  H   UNL     1       2.924  -1.546   5.706  0.00  0.00    -0.081 HD
BRANCH  25  27
ATOM     27  C   UNL     1       2.005   0.172   5.093  0.00  0.00    -0.075 C 
BRANCH  27  28
ATOM     28  C   UNL     1       3.330   0.935   5.134  0.00  0.00    -0.028 C 
ATOM     29  C   UNL     1       3.495   1.597   6.504  0.00  0.00    +0.002 C 
ATOM     30  C   UNL     1       4.821   2.360   6.545  0.00  0.00    +0.000 C 
ATOM     31  C   UNL     1       4.825   3.434   5.455  0.00  0.00    +0.000 C 
ATOM     32  C   UNL     1       4.659   2.773   4.086  0.00  0.00    +0.000 C 
ATOM     33  C   UNL     1       3.334   2.009   4.045  0.00  0.00    +0.002 C 
ENDBRANCH  27  28
ENDBRANCH  25  27
ENDBRANCH  20  21
ENDBRANCH   4  20
TORSDOF 6
