REMARK  Name = ZINC40811836
REMARK  7 active torsions:
REMARK  status: ('A' for Active; 'I' for Inactive)
REMARK    1  A    between atoms: C_1  and  C_2
REMARK    2  A    between atoms: C_6  and  C_7
REMARK    3  A    between atoms: N_9  and  C_10
REMARK    4  A    between atoms: C_10  and  C_11
REMARK    5  A    between atoms: C_11  and  C_12
REMARK    6  A    between atoms: N_21  and  N_22
REMARK    7  A    between atoms: C_23  and  C_25
REMARK                            x       y       z     vdW  Elec       q    Type
REMARK                         _______ _______ _______ _____ _____    ______ ____
ROOT
ATOM      1  C   UNL     1      -0.018   1.503   0.010  0.00  0.00    +0.048 C 
ATOM      2  C   UNL     1       0.002  -0.004   0.002  0.00  0.00    +0.009 A 
ATOM      3  C   UNL     1       0.008  -0.838  -1.123  0.00  0.00    +0.042 A 
ATOM      4  C   UNL     1       0.026  -2.138  -0.672  0.00  0.00    +0.115 A 
ATOM      5  O   UNL     1       0.034  -2.112   0.658  0.00  0.00    -0.454 OA
ATOM      6  C   UNL     1       0.024  -0.830   1.091  0.00  0.00    +0.193 A 
ATOM      7  C   UNL     1       0.032  -3.327  -1.599  0.00  0.00    +0.075 C 
ATOM      8  C   UNL     1      -0.492  -2.903  -2.974  0.00  0.00    +0.014 C 
ATOM      9  C   UNL     1       0.279  -1.685  -3.494  0.00  0.00    +0.058 C 
ATOM     10  C   UNL     1       0.001  -0.512  -2.566  0.00  0.00    +0.070 C 
ATOM     11  N   UNL     1      -0.228   0.686  -3.008  0.00  0.00    -0.184 NA
ENDROOT
BRANCH   6  12
ATOM     12  C   UNL     1       0.032  -0.399   2.493  0.00  0.00    +0.280 C 
ATOM     13  O   UNL     1       0.018   0.786   2.766  0.00  0.00    -0.267 OA
ATOM     14  N   UNL     1       0.054  -1.317   3.480  0.00  0.00    -0.308 N 
ATOM     15  H   UNL     1       0.065  -2.263   3.263  0.00  0.00    +0.149 HD
BRANCH  14  16
ATOM     16  C   UNL     1       0.062  -0.887   4.881  0.00  0.00    +0.110 C 
BRANCH  16  17
ATOM     17  C   UNL     1       0.088  -2.116   5.792  0.00  0.00    +0.061 C 
BRANCH  17  18
ATOM     18  C   UNL     1       0.096  -1.673   7.232  0.00  0.00    -0.009 A 
ATOM     19  C   UNL     1      -0.952  -1.443   8.060  0.00  0.00    +0.011 A 
ATOM     20  C   UNL     1      -0.704  -1.039   9.359  0.00  0.00    +0.008 A 
ATOM     21  C   UNL     1       0.580  -0.886   9.766  0.00  0.00    +0.045 A 
ATOM     22  S   UNL     1       1.489  -1.325   8.293  0.00  0.00    -0.102 S 
ENDBRANCH  17  18
ENDBRANCH  16  17
ENDBRANCH  14  16
ENDBRANCH   6  12
BRANCH  11  23
ATOM     23  N   UNL     1      -0.223   0.938  -4.386  0.00  0.00    -0.203 N 
ATOM     24  C   UNL     1      -0.460   2.183  -4.845  0.00  0.00    +0.263 C 
ATOM     25  O   UNL     1      -0.678   3.088  -4.062  0.00  0.00    -0.268 OA
ATOM     26  H   UNL     1      -0.049   0.216  -5.010  0.00  0.00    +0.178 HD
BRANCH  24  27
ATOM     27  C   UNL     1      -0.454   2.448  -6.298  0.00  0.00    +0.038 A 
ATOM     28  C   UNL     1      -0.210   1.409  -7.199  0.00  0.00    +0.014 A 
ATOM     29  C   UNL     1      -0.206   1.663  -8.555  0.00  0.00    +0.016 A 
ATOM     30  C   UNL     1      -0.444   2.945  -9.023  0.00  0.00    +0.018 A 
ATOM     31  C   UNL     1      -0.687   3.979  -8.134  0.00  0.00    +0.016 A 
ATOM     32  C   UNL     1      -0.700   3.736  -6.777  0.00  0.00    +0.014 A 
ATOM     33 BR   UNL     1      -0.436   3.284 -10.883  0.00  0.00    -0.050 Br
ENDBRANCH  24  27
ENDBRANCH  11  23
TORSDOF 6
