REMARK  Name = ZINC35450566
REMARK  10 active torsions:
REMARK  status: ('A' for Active; 'I' for Inactive)
REMARK    1  A    between atoms: C_1  and  C_2
REMARK    2  A    between atoms: C_2  and  C_3
REMARK    3  A    between atoms: C_6  and  C_9
REMARK    4  A    between atoms: C_14  and  S_18
REMARK    5  A    between atoms: S_18  and  C_19
REMARK    6  A    between atoms: C_19  and  C_21
REMARK    7  A    between atoms: C_19  and  C_22
REMARK    8  A    between atoms: C_22  and  C_23
REMARK    9  A    between atoms: C_30  and  C_32
REMARK   10  A    between atoms: C_30  and  C_33
REMARK                            x       y       z     vdW  Elec       q    Type
REMARK                         _______ _______ _______ _____ _____    ______ ____
ROOT
ATOM      1  C   UNL     1      -5.419  -2.005   0.043  0.00  0.00    +0.092 C 
ATOM      2  C   UNL     1      -6.314  -1.013  -0.637  0.00  0.00    +0.069 A 
ATOM      3  C   UNL     1      -6.758  -1.229  -1.930  0.00  0.00    +0.135 A 
ATOM      4  N   UNL     1      -7.551  -0.328  -2.521  0.00  0.00    -0.208 NA
ATOM      5  C   UNL     1      -7.924   0.767  -1.891  0.00  0.00    +0.171 A 
ATOM      6  N   UNL     1      -7.518   1.025  -0.616  0.00  0.00    -0.302 N 
ATOM      7  C   UNL     1      -6.714   0.152   0.028  0.00  0.00    +0.258 A 
ATOM      8  O   UNL     1      -6.343   0.374   1.170  0.00  0.00    -0.267 OA
ATOM      9  N   UNL     1      -6.382  -2.376  -2.600  0.00  0.00    -0.302 N 
ATOM     10  C   UNL     1      -5.918  -3.465  -1.913  0.00  0.00    +0.017 C 
ATOM     11  C   UNL     1      -5.456  -3.342  -0.652  0.00  0.00    +0.024 C 
ATOM     12  C   UNL     1      -4.992  -4.464   0.059  0.00  0.00    +0.162 C 
ATOM     13  O   UNL     1      -4.575  -4.320   1.191  0.00  0.00    -0.292 OA
ATOM     14  C   UNL     1      -5.003  -5.837  -0.554  0.00  0.00    +0.086 C 
ATOM     15  C   UNL     1      -6.136  -5.916  -1.583  0.00  0.00    -0.023 C 
ATOM     16  C   UNL     1      -5.932  -4.804  -2.609  0.00  0.00    +0.058 C 
ATOM     17  C   UNL     1      -6.103  -7.276  -2.283  0.00  0.00    +0.011 C 
ATOM     18  C   UNL     1      -7.482  -5.729  -0.880  0.00  0.00    +0.011 C 
ATOM     19  H   UNL     1      -6.448  -2.411  -3.567  0.00  0.00    +0.153 HD
ATOM     20  H   UNL     1      -7.806   1.837  -0.171  0.00  0.00    +0.171 HD
ENDROOT
BRANCH   1  24
ATOM     21  C   UNL     1      -1.412  -0.526   0.013  0.00  0.00    -0.048 A 
ATOM     22  C   UNL     1      -2.051  -0.766   1.215  0.00  0.00    +0.004 A 
ATOM     23  C   UNL     1      -3.348  -1.244   1.225  0.00  0.00    +0.005 A 
ATOM     24  C   UNL     1      -4.006  -1.482   0.032  0.00  0.00    -0.035 A 
ATOM     25  C   UNL     1      -3.367  -1.241  -1.170  0.00  0.00    +0.005 A 
ATOM     26  C   UNL     1      -2.072  -0.758  -1.179  0.00  0.00    +0.004 A 
BRANCH  21  28
ATOM     27  C   UNL     1      -0.019   1.526   0.010  0.00  0.00    +0.009 C 
ATOM     28  C   UNL     1       0.002  -0.004   0.002  0.00  0.00    +0.032 C 
ENDBRANCH  21  28
ENDBRANCH   1  24
BRANCH   5  29
ATOM     29  S   UNL     1      -8.969   1.923  -2.713  0.00  0.00    -0.085 S 
BRANCH  29  30
ATOM     30  C   UNL     1      -9.244   1.181  -4.346  0.00  0.00    +0.051 C 
ATOM     31  C   UNL     1      -7.920   1.122  -5.109  0.00  0.00    +0.019 C 
BRANCH  30  32
ATOM     32  C   UNL     1     -10.246   2.031  -5.129  0.00  0.00    +0.011 C 
ATOM     33  C   UNL     1     -11.607   1.989  -4.431  0.00  0.00    +0.005 C 
ENDBRANCH  30  32
ENDBRANCH  29  30
ENDBRANCH   5  29
TORSDOF 5
