REMARK  Name = ZINC06394914
REMARK  7 active torsions:
REMARK  status: ('A' for Active; 'I' for Inactive)
REMARK    1  A    between atoms: C_1  and  C_2
REMARK    2  A    between atoms: C_2  and  C_3
REMARK    3  A    between atoms: C_3  and  C_5
REMARK    4  A    between atoms: C_3  and  C_6
REMARK    5  A    between atoms: C_9  and  O_22
REMARK    6  A    between atoms: C_10  and  N_12
REMARK    7  A    between atoms: N_13  and  C_14
REMARK                            x       y       z     vdW  Elec       q    Type
REMARK                         _______ _______ _______ _____ _____    ______ ____
ROOT
ATOM      1  C   UNL     1       0.847  -1.998  -1.206  0.00  0.00    -0.042 A 
ATOM      2  C   UNL     1      -0.290  -2.786  -1.141  0.00  0.00    +0.007 A 
ATOM      3  C   UNL     1      -0.185  -4.163  -1.093  0.00  0.00    +0.048 A 
ATOM      4  C   UNL     1       1.062  -4.766  -1.111  0.00  0.00    +0.144 A 
ATOM      5  C   UNL     1       2.217  -3.972  -1.177  0.00  0.00    +0.128 A 
ATOM      6  C   UNL     1       2.096  -2.580  -1.230  0.00  0.00    +0.037 A 
ENDROOT
BRANCH   1   7
ATOM      7  C   UNL     1       0.718  -0.497  -1.257  0.00  0.00    +0.016 C 
ATOM      8  C   UNL     1      -0.089  -0.097  -2.493  0.00  0.00    +0.012 C 
BRANCH   7  10
ATOM      9  C   UNL     1      -0.019   1.526   0.010  0.00  0.00    +0.004 C 
ATOM     10  C   UNL     1       0.002  -0.004   0.002  0.00  0.00    +0.004 C 
ENDBRANCH   7  10
ENDBRANCH   1   7
BRANCH   5  11
ATOM     11  N   UNL     1       3.451  -4.555  -1.194  0.00  0.00    -0.146 NA
ATOM     12  N   UNL     1       4.510  -3.822  -1.255  0.00  0.00    -0.149 NA
BRANCH  12  13
ATOM     13  C   UNL     1       5.746  -4.406  -1.272  0.00  0.00    +0.088 A 
ATOM     14  C   UNL     1       5.865  -5.798  -1.230  0.00  0.00    +0.031 A 
ATOM     15  C   UNL     1       7.114  -6.381  -1.249  0.00  0.00    +0.019 A 
ATOM     16  C   UNL     1       8.250  -5.591  -1.309  0.00  0.00    +0.036 A 
ATOM     17  C   UNL     1       8.140  -4.210  -1.350  0.00  0.00    +0.057 A 
ATOM     18  C   UNL     1       6.895  -3.614  -1.338  0.00  0.00    +0.050 A 
ATOM     19 CL   UNL     1       9.570  -3.229  -1.424  0.00  0.00    -0.082 Cl
ATOM     20 BR   UNL     1       9.959  -6.400  -1.333  0.00  0.00    -0.049 Br
ENDBRANCH  12  13
ENDBRANCH   5  11
BRANCH   4  21
ATOM     21  O   UNL     1       1.166  -6.119  -1.064  0.00  0.00    -0.505 OA
ATOM     22  H   UNL     1       1.168  -6.543  -1.933  0.00  0.00    +0.292 HD
ENDBRANCH   4  21
TORSDOF 5
