REMARK  Name = ZINC67417253
REMARK  6 active torsions:
REMARK  status: ('A' for Active; 'I' for Inactive)
REMARK    1  A    between atoms: C_1  and  C_2
REMARK    2  A    between atoms: N_4  and  C_5
REMARK    3  A    between atoms: C_5  and  C_6
REMARK    4  A    between atoms: N_11  and  C_13
REMARK    5  A    between atoms: C_13  and  C_14
REMARK    6  A    between atoms: N_16  and  N_17
REMARK                            x       y       z     vdW  Elec       q    Type
REMARK                         _______ _______ _______ _____ _____    ______ ____
ROOT
ATOM      1  C   UNL     1      -5.327  -6.686  -0.429  0.00  0.00    +0.213 C 
ATOM      2  O   UNL     1      -6.258  -5.912  -0.352  0.00  0.00    -0.276 OA
ATOM      3  N   UNL     1      -5.557  -8.000  -0.621  0.00  0.00    -0.225 N 
ATOM      4  H   UNL     1      -4.813  -8.619  -0.683  0.00  0.00    +0.173 HD
ENDROOT
BRANCH   3   5
ATOM      5  N   UNL     1      -6.872  -8.472  -0.732  0.00  0.00    -0.137 N 
ATOM      6  C   UNL     1      -7.521  -9.142   0.242  0.00  0.00    +0.263 C 
ATOM      7  O   UNL     1      -7.096  -9.438   1.338  0.00  0.00    -0.271 OA
ATOM      8  C   UNL     1      -8.892  -9.443  -0.320  0.00  0.00    +0.114 C 
ATOM      9  C   UNL     1      -9.116 -10.950  -0.395  0.00  0.00    +0.035 C 
ATOM     10  C   UNL     1     -10.495 -11.234  -0.995  0.00  0.00    +0.003 C 
ATOM     11  C   UNL     1     -11.572 -10.583  -0.124  0.00  0.00    +0.000 C 
ATOM     12  C   UNL     1     -11.348  -9.071  -0.078  0.00  0.00    +0.003 C 
ATOM     13  C   UNL     1      -9.972  -8.778   0.526  0.00  0.00    +0.035 C 
ATOM     14  N   UNL     1      -8.861  -8.860  -1.667  0.00  0.00    -0.284 N 
ATOM     15  C   UNL     1      -7.640  -8.309  -1.816  0.00  0.00    +0.326 C 
ATOM     16  O   UNL     1      -7.277  -7.733  -2.822  0.00  0.00    -0.251 OA
ATOM     17  H   UNL     1      -9.578  -8.867  -2.320  0.00  0.00    +0.151 HD
ENDBRANCH   3   5
BRANCH   1  18
ATOM     18  C   UNL     1      -3.913  -6.178  -0.310  0.00  0.00    +0.020 C 
BRANCH  18  23
ATOM     19  C   UNL     1      -2.571  -2.688   0.012  0.00  0.00    -0.011 C 
ATOM     20  C   UNL     1      -3.249  -2.302   1.330  0.00  0.00    +0.001 C 
ATOM     21  C   UNL     1      -4.657  -2.903   1.364  0.00  0.00    -0.018 C 
ATOM     22  C   UNL     1      -4.563  -4.419   1.183  0.00  0.00    -0.078 C 
ATOM     23  N   UNL     1      -3.930  -4.724  -0.106  0.00  0.00    +0.386 N 
ATOM     24  C   UNL     1      -2.555  -4.213  -0.120  0.00  0.00    -0.073 C 
ATOM     25  H   UNL     1      -4.457  -4.288  -0.849  0.00  0.00    -0.081 HD
BRANCH  19  26
ATOM     26  C   UNL     1      -1.136  -2.159   0.001  0.00  0.00    +0.105 C 
BRANCH  26  30
ATOM     27  C   UNL     1      -0.018   1.503   0.010  0.00  0.00    +0.109 C 
ATOM     28  C   UNL     1       0.002  -0.004   0.002  0.00  0.00    +0.210 C 
ATOM     29  O   UNL     1       1.060  -0.596  -0.011  0.00  0.00    -0.276 OA
ATOM     30  N   UNL     1      -1.156  -0.694   0.009  0.00  0.00    -0.315 N 
ATOM     31  H   UNL     1      -2.002  -0.220   0.020  0.00  0.00    +0.149 HD
ENDBRANCH  26  30
ENDBRANCH  19  26
ENDBRANCH  18  23
ENDBRANCH   1  18
TORSDOF 5
