REMARK  Name = ZINC39560791
REMARK  9 active torsions:
REMARK  status: ('A' for Active; 'I' for Inactive)
REMARK    1  A    between atoms: C_1  and  O_2
REMARK    2  A    between atoms: O_2  and  C_3
REMARK    3  A    between atoms: C_3  and  C_4
REMARK    4  A    between atoms: C_4  and  N_5
REMARK    5  A    between atoms: N_5  and  C_6
REMARK    6  A    between atoms: C_9  and  C_31
REMARK    7  A    between atoms: C_25  and  C_27
REMARK    8  A    between atoms: C_27  and  O_29
REMARK    9  A    between atoms: O_29  and  C_30
REMARK                            x       y       z     vdW  Elec       q    Type
REMARK                         _______ _______ _______ _____ _____    ______ ____
ROOT
ATOM      1  C   UNL     1      -1.885  -4.282  -0.550  0.00  0.00    -0.068 C 
ATOM      2  C   UNL     1      -0.870  -4.779  -1.582  0.00  0.00    +0.008 C 
ATOM      3  C   UNL     1      -1.283  -4.298  -2.976  0.00  0.00    +0.087 C 
ATOM      4  N   UNL     1      -2.623  -4.809  -3.289  0.00  0.00    -0.274 NA
ATOM      5  C   UNL     1      -3.619  -4.287  -2.342  0.00  0.00    +0.106 C 
ATOM      6  C   UNL     1      -3.283  -4.779  -0.932  0.00  0.00    +0.009 C 
ATOM      7  C   UNL     1      -4.977  -4.801  -2.752  0.00  0.00    +0.063 C 
ATOM      8  N   UNL     1      -6.081  -4.835  -2.050  0.00  0.00    -0.250 NA
ATOM      9  C   UNL     1      -7.061  -5.372  -2.791  0.00  0.00    +0.068 C 
ATOM     10  C   UNL     1      -8.399  -5.614  -2.486  0.00  0.00    +0.028 C 
ATOM     11  C   UNL     1      -9.200  -6.201  -3.489  0.00  0.00    -0.002 C 
ATOM     12  C   UNL     1      -8.746  -6.531  -4.693  0.00  0.00    -0.022 C 
ATOM     13  C   UNL     1      -7.333  -6.332  -5.163  0.00  0.00    +0.064 C 
ATOM     14  C   UNL     1      -6.518  -5.704  -4.069  0.00  0.00    -0.013 C 
ATOM     15  C   UNL     1      -5.226  -5.344  -4.032  0.00  0.00    -0.017 C 
ATOM     16  C   UNL     1      -4.160  -5.450  -5.095  0.00  0.00    +0.067 C 
ATOM     17  C   UNL     1      -2.993  -4.543  -4.682  0.00  0.00    +0.172 C 
ENDROOT
BRANCH   3  18
ATOM     18  C   UNL     1      -0.298  -4.808  -3.996  0.00  0.00    -0.027 A 
ATOM     19  C   UNL     1      -0.394  -6.107  -4.459  0.00  0.00    +0.007 A 
ATOM     20  C   UNL     1       0.508  -6.577  -5.395  0.00  0.00    +0.023 A 
ATOM     21  C   UNL     1       1.509  -5.747  -5.869  0.00  0.00    +0.076 A 
ATOM     22  C   UNL     1       1.605  -4.445  -5.405  0.00  0.00    +0.142 A 
ATOM     23  C   UNL     1       0.697  -3.975  -4.472  0.00  0.00    +0.045 A 
ATOM     24  F   UNL     1       2.581  -3.633  -5.867  0.00  0.00    -0.204 F 
ATOM     25 CL   UNL     1       2.643  -6.337  -7.043  0.00  0.00    -0.081 Cl
ENDBRANCH   3  18
BRANCH   1  26
ATOM     26  N   UNL     1      -1.878  -2.813  -0.523  0.00  0.00    +0.382 N 
ATOM     27  H   UNL     1      -2.604  -2.485   0.096  0.00  0.00    -0.085 HD
ATOM     28  H   UNL     1      -2.043  -2.459  -1.453  0.00  0.00    -0.085 HD
BRANCH  26  29
ATOM     29  C   UNL     1      -0.574  -2.339  -0.042  0.00  0.00    -0.054 C 
BRANCH  29  30
ATOM     30  C   UNL     1      -0.566  -0.809  -0.014  0.00  0.00    +0.140 C 
BRANCH  30  32
ATOM     31  C   UNL     1      -1.588   1.078   1.055  0.00  0.00    +0.193 C 
ATOM     32  O   UNL     1      -1.515  -0.346   0.949  0.00  0.00    -0.385 OA
ENDBRANCH  30  32
ENDBRANCH  29  30
ENDBRANCH  26  29
ENDBRANCH   1  26
BRANCH  17  33
ATOM     33  C   UNL     1      -3.405  -3.100  -4.823  0.00  0.00    +0.325 C 
ATOM     34  O   UNL     1      -4.198  -2.620  -4.048  0.00  0.00    -0.249 OA
BRANCH  33  35
ATOM     35  O   UNL     1      -2.892  -2.348  -5.809  0.00  0.00    -0.467 OA
ATOM     36  C   UNL     1      -3.327  -0.989  -5.883  0.00  0.00    +0.280 C 
ENDBRANCH  33  35
ENDBRANCH  17  33
TORSDOF 7
