REMARK  Name = ZINC65306055
REMARK  11 active torsions:
REMARK  status: ('A' for Active; 'I' for Inactive)
REMARK    1  A    between atoms: C_1  and  C_2
REMARK    2  A    between atoms: C_2  and  C_3
REMARK    3  A    between atoms: C_3  and  C_4
REMARK    4  A    between atoms: C_4  and  C_6
REMARK    5  A    between atoms: C_4  and  N_18
REMARK    6  A    between atoms: N_8  and  C_9
REMARK    7  A    between atoms: C_19  and  C_21
REMARK    8  A    between atoms: C_21  and  C_22
REMARK    9  A    between atoms: C_22  and  C_23
REMARK   10  A    between atoms: C_26  and  O_29
REMARK   11  A    between atoms: O_29  and  C_30
REMARK                            x       y       z     vdW  Elec       q    Type
REMARK                         _______ _______ _______ _____ _____    ______ ____
ROOT
ATOM      1  C   UNL     1       0.739  -2.027  -1.265  0.00  0.00    +0.159 C 
ENDROOT
BRANCH   1   2
ATOM      2  C   UNL     1       1.334  -2.514  -2.561  0.00  0.00    +0.236 C 
ATOM      3  O   UNL     1       2.335  -3.198  -2.550  0.00  0.00    -0.274 OA
ATOM      4  N   UNL     1       0.753  -2.190  -3.733  0.00  0.00    -0.277 N 
ATOM      5  H   UNL     1      -0.048  -1.643  -3.743  0.00  0.00    +0.152 HD
BRANCH   4   6
ATOM      6  C   UNL     1       1.331  -2.664  -4.993  0.00  0.00    +0.269 C 
ATOM      7  N   UNL     1       2.498  -1.847  -5.351  0.00  0.00    -0.348 N 
ATOM      8  C   UNL     1       2.244  -1.284  -6.497  0.00  0.00    +0.061 A 
ATOM      9  C   UNL     1       3.013  -0.371  -7.353  0.00  0.00    +0.027 A 
ATOM     10  C   UNL     1       2.480   0.058  -8.515  0.00  0.00    +0.002 A 
ATOM     11  C   UNL     1       1.203  -0.334  -8.954  0.00  0.00    +0.002 A 
ATOM     12  C   UNL     1       0.415  -1.167  -8.245  0.00  0.00    +0.027 A 
ATOM     13  C   UNL     1       0.892  -1.699  -6.962  0.00  0.00    +0.061 A 
ATOM     14  N   UNL     1       0.362  -2.502  -6.085  0.00  0.00    -0.348 N 
ATOM     15  H   UNL     1       3.309  -1.745  -4.829  0.00  0.00    +0.163 HD
ATOM     16  H   UNL     1      -0.512  -2.918  -6.142  0.00  0.00    +0.163 HD
ENDBRANCH   4   6
ENDBRANCH   1   2
BRANCH   1  17
ATOM     17  N   UNL     1       1.548  -2.511  -0.144  0.00  0.00    -0.304 N 
ATOM     18  C   UNL     1       0.993  -2.654   1.076  0.00  0.00    +0.214 C 
ATOM     19  O   UNL     1      -0.176  -2.382   1.245  0.00  0.00    -0.276 OA
ATOM     20  H   UNL     1       2.484  -2.728  -0.280  0.00  0.00    +0.149 HD
BRANCH  18  21
ATOM     21  C   UNL     1       1.826  -3.151   2.229  0.00  0.00    +0.100 C 
BRANCH  21  22
ATOM     22  C   UNL     1       0.962  -3.221   3.489  0.00  0.00    +0.044 C 
BRANCH  22  23
ATOM     23  C   UNL     1       1.794  -3.719   4.643  0.00  0.00    -0.047 A 
ATOM     24  C   UNL     1       1.879  -5.075   4.898  0.00  0.00    +0.007 A 
ATOM     25  C   UNL     1       2.642  -5.534   5.955  0.00  0.00    +0.046 A 
ATOM     26  C   UNL     1       3.323  -4.632   6.760  0.00  0.00    +0.120 A 
ATOM     27  C   UNL     1       3.236  -3.272   6.501  0.00  0.00    +0.046 A 
ATOM     28  C   UNL     1       2.477  -2.819   5.440  0.00  0.00    +0.007 A 
BRANCH  26  29
ATOM     29  O   UNL     1       4.073  -5.080   7.801  0.00  0.00    -0.495 OA
ATOM     30  C   UNL     1       4.747  -4.096   8.587  0.00  0.00    +0.277 C 
ENDBRANCH  26  29
ENDBRANCH  22  23
ENDBRANCH  21  22
ENDBRANCH  18  21
ENDBRANCH   1  17
BRANCH   1  31
ATOM     31  C   UNL     1       0.718  -0.497  -1.257  0.00  0.00    +0.031 C 
BRANCH  31  33
ATOM     32  C   UNL     1      -0.019   1.526   0.010  0.00  0.00    +0.004 C 
ATOM     33  C   UNL     1       0.002  -0.004   0.002  0.00  0.00    -0.001 C 
ENDBRANCH  31  33
ENDBRANCH   1  31
TORSDOF 9
