REMARK  Name = ZINC58949996
REMARK  8 active torsions:
REMARK  status: ('A' for Active; 'I' for Inactive)
REMARK    1  A    between atoms: C_1  and  C_2
REMARK    2  A    between atoms: C_2  and  O_3
REMARK    3  A    between atoms: O_3  and  C_4
REMARK    4  A    between atoms: C_7  and  C_10
REMARK    5  A    between atoms: C_15  and  C_19
REMARK    6  A    between atoms: C_15  and  C_20
REMARK    7  A    between atoms: C_22  and  N_27
REMARK    8  A    between atoms: C_23  and  C_24
REMARK                            x       y       z     vdW  Elec       q    Type
REMARK                         _______ _______ _______ _____ _____    ______ ____
ROOT
ATOM      1  C   UNL     1      -1.973  -6.242   0.015  0.00  0.00    +0.096 C 
ATOM      2  C   UNL     1      -2.780  -6.637   1.228  0.00  0.00    +0.045 C 
ATOM      3  C   UNL     1      -4.114  -6.796   1.141  0.00  0.00    +0.115 C 
ATOM      4  C   UNL     1      -4.926  -7.183   2.354  0.00  0.00    +0.081 C 
ATOM      5  C   UNL     1      -4.077  -8.047   3.288  0.00  0.00    -0.021 C 
ATOM      6  C   UNL     1      -2.832  -7.250   3.690  0.00  0.00    +0.086 C 
ATOM      7  C   UNL     1      -2.098  -6.833   2.444  0.00  0.00    +0.164 C 
ATOM      8  O   UNL     1      -0.896  -6.663   2.489  0.00  0.00    -0.292 OA
ATOM      9  C   UNL     1      -3.655  -9.327   2.563  0.00  0.00    +0.012 C 
ATOM     10  C   UNL     1      -4.886  -8.402   4.538  0.00  0.00    +0.012 C 
ATOM     11  O   UNL     1      -4.763  -6.614  -0.025  0.00  0.00    -0.446 OA
ATOM     12  C   UNL     1      -4.100  -6.681  -1.190  0.00  0.00    +0.193 C 
ATOM     13  C   UNL     1      -2.757  -6.510  -1.238  0.00  0.00    +0.083 C 
ENDROOT
BRANCH   1  17
ATOM     14  C   UNL     1      -1.030  -2.080   0.235  0.00  0.00    +0.121 A 
ATOM     15  C   UNL     1      -0.012  -3.022   0.195  0.00  0.00    +0.046 A 
ATOM     16  C   UNL     1      -0.320  -4.367   0.124  0.00  0.00    +0.008 A 
ATOM     17  C   UNL     1      -1.640  -4.775   0.093  0.00  0.00    -0.035 A 
ATOM     18  C   UNL     1      -2.657  -3.838   0.132  0.00  0.00    +0.008 A 
ATOM     19  C   UNL     1      -2.355  -2.492   0.209  0.00  0.00    +0.046 A 
BRANCH  14  20
ATOM     20  O   UNL     1      -0.731  -0.756   0.305  0.00  0.00    -0.492 OA
BRANCH  20  22
ATOM     21  C   UNL     1       0.793   1.117   0.407  0.00  0.00    +0.048 C 
ATOM     22  C   UNL     1       0.654  -0.405   0.328  0.00  0.00    +0.225 C 
ENDBRANCH  20  22
ENDBRANCH  14  20
ENDBRANCH   1  17
BRANCH  13  23
ATOM     23  C   UNL     1      -2.093  -6.582  -2.475  0.00  0.00    +0.243 C 
ATOM     24  O   UNL     1      -1.491  -7.595  -2.785  0.00  0.00    -0.271 OA
ATOM     25  N   UNL     1      -2.123  -5.531  -3.319  0.00  0.00    -0.325 N 
ATOM     26  H   UNL     1      -2.602  -4.725  -3.072  0.00  0.00    +0.145 HD
ATOM     27  H   UNL     1      -1.665  -5.582  -4.173  0.00  0.00    +0.145 HD
ENDBRANCH  13  23
BRANCH  12  28
ATOM     28  N   UNL     1      -4.792  -6.926  -2.346  0.00  0.00    -0.329 N 
ATOM     29  H   UNL     1      -5.739  -7.130  -2.311  0.00  0.00    +0.145 HD
ATOM     30  H   UNL     1      -4.334  -6.897  -3.201  0.00  0.00    +0.145 HD
ENDBRANCH  12  28
TORSDOF 5
