REMARK  Name = ZINC41519195
REMARK  5 active torsions:
REMARK  status: ('A' for Active; 'I' for Inactive)
REMARK    1  A    between atoms: C_1  and  C_2
REMARK    2  A    between atoms: C_7  and  N_8
REMARK    3  A    between atoms: C_9  and  C_11
REMARK    4  A    between atoms: N_13  and  C_14
REMARK    5  A    between atoms: C_14  and  C_15
REMARK                            x       y       z     vdW  Elec       q    Type
REMARK                         _______ _______ _______ _____ _____    ______ ____
ROOT
ATOM      1  C   UNL     1      -0.189   0.043   4.867  0.00  0.00    +0.300 C 
ATOM      2  O   UNL     1      -0.194   1.256   4.872  0.00  0.00    -0.265 OA
ATOM      3  N   UNL     1      -0.267  -0.636   6.029  0.00  0.00    -0.303 N 
ATOM      4  H   UNL     1      -0.264  -1.606   6.025  0.00  0.00    +0.149 HD
ENDROOT
BRANCH   1   6
ATOM      5  N   UNL     1      -0.018  -0.019   2.412  0.00  0.00    -0.278 N 
ATOM      6  C   UNL     1      -0.097  -0.698   3.574  0.00  0.00    +0.303 C 
ATOM      7  O   UNL     1      -0.092  -1.912   3.569  0.00  0.00    -0.265 OA
ATOM      8  H   UNL     1       0.040   0.949   2.419  0.00  0.00    +0.155 HD
BRANCH   5  15
ATOM      9  C   UNL     1      -1.312   1.188   0.184  0.00  0.00    +0.046 C 
ATOM     10  C   UNL     1      -0.642  -0.158   0.084  0.00  0.00    -0.028 A 
ATOM     11  C   UNL     1      -0.639  -0.841  -1.117  0.00  0.00    +0.025 A 
ATOM     12  C   UNL     1      -0.024  -2.077  -1.210  0.00  0.00    +0.041 A 
ATOM     13  C   UNL     1       0.590  -2.632  -0.100  0.00  0.00    +0.022 A 
ATOM     14  C   UNL     1       0.590  -1.954   1.102  0.00  0.00    +0.025 A 
ATOM     15  C   UNL     1      -0.022  -0.711   1.197  0.00  0.00    +0.037 A 
ATOM     16 CL   UNL     1      -0.023  -2.932  -2.720  0.00  0.00    -0.084 Cl
ENDBRANCH   5  15
ENDBRANCH   1   6
BRANCH   3  17
ATOM     17  C   UNL     1      -0.358   0.091   7.297  0.00  0.00    +0.141 C 
BRANCH  17  18
ATOM     18  C   UNL     1      -0.434  -0.893   8.436  0.00  0.00    -0.014 A 
ATOM     19  C   UNL     1      -1.664  -1.360   8.879  0.00  0.00    +0.010 A 
ATOM     20  C   UNL     1      -1.690  -2.262   9.927  0.00  0.00    +0.042 A 
ATOM     21  C   UNL     1      -0.488  -2.670  10.498  0.00  0.00    +0.099 A 
ATOM     22  N   UNL     1       0.665  -2.202  10.047  0.00  0.00    -0.349 N 
ATOM     23  C   UNL     1       0.720  -1.344   9.045  0.00  0.00    +0.089 A 
ATOM     24  N   UNL     1      -0.499  -3.576  11.552  0.00  0.00    -0.317 N 
ATOM     25  C   UNL     1       0.744  -3.920  12.257  0.00  0.00    +0.106 C 
ATOM     26  C   UNL     1       0.539  -3.692  13.758  0.00  0.00    +0.019 C 
ATOM     27  C   UNL     1      -0.688  -4.479  14.226  0.00  0.00    +0.003 C 
ATOM     28  C   UNL     1      -1.930  -3.978  13.487  0.00  0.00    +0.019 C 
ATOM     29  C   UNL     1      -1.754  -4.204  11.987  0.00  0.00    +0.106 C 
ATOM     30  H   UNL     1       1.491  -2.499  10.460  0.00  0.00    +0.167 HD
ENDBRANCH  17  18
ENDBRANCH   3  17
TORSDOF 4
