REMARK  Name = ZINC08896162
REMARK  9 active torsions:
REMARK  status: ('A' for Active; 'I' for Inactive)
REMARK    1  A    between atoms: C_1  and  C_2
REMARK    2  A    between atoms: C_5  and  C_35
REMARK    3  A    between atoms: N_8  and  S_10
REMARK    4  A    between atoms: S_10  and  C_13
REMARK    5  A    between atoms: C_17  and  C_19
REMARK    6  A    between atoms: N_21  and  C_22
REMARK    7  A    between atoms: C_22  and  C_23
REMARK    8  A    between atoms: C_23  and  C_25
REMARK    9  A    between atoms: C_23  and  N_65
REMARK                            x       y       z     vdW  Elec       q    Type
REMARK                         _______ _______ _______ _____ _____    ______ ____
ROOT
ATOM      1  C   UNL     1       1.200   1.728   0.355  0.00  0.00    +0.106 A 
ATOM      2  C   UNL     1       1.204   3.112   0.325  0.00  0.00    +0.030 A 
ATOM      3  C   UNL     1       0.018   3.811   0.198  0.00  0.00    +0.022 A 
ATOM      4  C   UNL     1      -1.181   3.131   0.101  0.00  0.00    +0.053 A 
ATOM      5  C   UNL     1      -1.191   1.734   0.126  0.00  0.00    +0.057 A 
ATOM      6  C   UNL     1       0.011   1.036   0.260  0.00  0.00    +0.043 A 
ATOM      7 CL   UNL     1      -2.670   4.009  -0.059  0.00  0.00    -0.083 Cl
ENDROOT
BRANCH   5   8
ATOM      8  C   UNL     1      -2.468   0.999   0.017  0.00  0.00    +0.246 C 
ATOM      9  O   UNL     1      -3.513   1.609  -0.100  0.00  0.00    -0.270 OA
ATOM     10  N   UNL     1      -2.475  -0.349   0.047  0.00  0.00    -0.312 N 
ATOM     11  H   UNL     1      -1.641  -0.836   0.140  0.00  0.00    +0.149 HD
BRANCH  10  12
ATOM     12  C   UNL     1      -3.741  -1.078  -0.061  0.00  0.00    +0.097 C 
BRANCH  12  13
ATOM     13  C   UNL     1      -3.461  -2.581  -0.119  0.00  0.00    +0.016 C 
BRANCH  13  18
ATOM     14  C   UNL     1      -5.343  -2.877  -1.634  0.00  0.00    -0.078 C 
ATOM     15  C   UNL     1      -6.297  -4.051  -1.971  0.00  0.00    -0.020 C 
ATOM     16  C   UNL     1      -5.492  -5.291  -1.518  0.00  0.00    -0.020 C 
ATOM     17  C   UNL     1      -4.474  -4.757  -0.493  0.00  0.00    -0.078 C 
ATOM     18  N   UNL     1      -4.733  -3.322  -0.371  0.00  0.00    +0.387 N 
ATOM     19  H   UNL     1      -5.382  -3.151   0.406  0.00  0.00    -0.081 HD
ENDBRANCH  13  18
BRANCH  13  20
ATOM     20  C   UNL     1      -2.861  -3.031   1.188  0.00  0.00    +0.093 A 
ATOM     21  C   UNL     1      -1.554  -3.245   1.422  0.00  0.00    +0.043 A 
ATOM     22  C   UNL     1      -1.441  -3.653   2.771  0.00  0.00    +0.041 A 
ATOM     23  C   UNL     1      -2.686  -3.664   3.281  0.00  0.00    +0.195 A 
ATOM     24  O   UNL     1      -3.541  -3.281   2.319  0.00  0.00    -0.469 OA
ENDBRANCH  13  20
ENDBRANCH  12  13
ENDBRANCH  10  12
ENDBRANCH   5   8
BRANCH   1  25
ATOM     25  S   UNL     1       2.718   0.848   0.518  0.00  0.00    +0.061 S 
ATOM     26  O   UNL     1       3.638   1.737   1.138  0.00  0.00    -0.153 OA
ATOM     27  O   UNL     1       2.395  -0.421   1.070  0.00  0.00    -0.153 OA
BRANCH  25  33
ATOM     28  C   UNL     1       1.026   0.505  -2.895  0.00  0.00    +0.009 C 
ATOM     29  C   UNL     1       2.334  -0.261  -3.099  0.00  0.00    +0.002 C 
ATOM     30  C   UNL     1       3.337   0.628  -3.839  0.00  0.00    +0.009 C 
ATOM     31  C   UNL     1       3.582   1.905  -3.031  0.00  0.00    +0.002 C 
ATOM     32  C   UNL     1       4.176   1.536  -1.668  0.00  0.00    +0.112 C 
ATOM     33  N   UNL     1       3.288   0.568  -1.011  0.00  0.00    -0.176 NA
ATOM     34  C   UNL     1       2.919  -0.656  -1.735  0.00  0.00    +0.112 C 
ATOM     35  C   UNL     1       4.559   2.808  -3.787  0.00  0.00    +0.009 C 
ENDBRANCH  25  33
ENDBRANCH   1  25
TORSDOF 7
