REMARK  Name = ZINC20420534
REMARK  8 active torsions:
REMARK  status: ('A' for Active; 'I' for Inactive)
REMARK    1  A    between atoms: C_1  and  C_2
REMARK    2  A    between atoms: C_2  and  N_3
REMARK    3  A    between atoms: C_7  and  C_9
REMARK    4  A    between atoms: C_9  and  C_11
REMARK    5  A    between atoms: C_9  and  N_12
REMARK    6  A    between atoms: C_13  and  C_19
REMARK    7  A    between atoms: C_14  and  N_18
REMARK    8  A    between atoms: C_15  and  C_17
REMARK                            x       y       z     vdW  Elec       q    Type
REMARK                         _______ _______ _______ _____ _____    ______ ____
ROOT
ATOM      1  C   UNL     1      -1.170  -0.883   0.008  0.00  0.00    +0.190 C 
ATOM      2  C   UNL     1      -2.023  -0.604  -1.232  0.00  0.00    +0.042 C 
ENDROOT
BRANCH   1   7
ATOM      3  N   UNL     1      -4.981  -1.784   2.796  0.00  0.00    -0.299 N 
ATOM      4  C   UNL     1      -3.849  -1.087   2.576  0.00  0.00    +0.306 C 
ATOM      5  O   UNL     1      -3.486  -0.248   3.378  0.00  0.00    -0.252 OA
ATOM      6  N   UNL     1      -3.119  -1.320   1.468  0.00  0.00    -0.238 N 
ATOM      7  C   UNL     1      -1.987  -0.623   1.248  0.00  0.00    +0.245 C 
ATOM      8  O   UNL     1      -1.625   0.214   2.047  0.00  0.00    -0.273 OA
ATOM      9  H   UNL     1      -5.309  -2.543   2.071  0.00  0.00    +0.150 HD
ATOM     10  H   UNL     1      -3.447  -2.079   0.743  0.00  0.00    +0.159 HD
BRANCH   3  12
ATOM     11  C   UNL     1      -6.999  -2.449   4.008  0.00  0.00    +0.024 C 
ATOM     12  C   UNL     1      -5.775  -1.532   4.002  0.00  0.00    +0.102 C 
ENDBRANCH   3  12
ENDBRANCH   1   7
BRANCH   1  13
ATOM     13  N   UNL     1       0.002  -0.004   0.002  0.00  0.00    -0.255 N 
ATOM     14  C   UNL     1       1.302  -0.403  -0.013  0.00  0.00    +0.058 A 
ATOM     15  C   UNL     1       2.073   0.713  -0.014  0.00  0.00    +0.068 A 
ATOM     16  C   UNL     1       1.219   1.826   0.000  0.00  0.00    +0.081 A 
ATOM     17  N   UNL     1      -0.017   1.397   0.010  0.00  0.00    -0.174 NA
ATOM     18  C   UNL     1       1.652   3.269   0.004  0.00  0.00    +0.069 C 
ATOM     19  C   UNL     1       1.796  -1.827  -0.025  0.00  0.00    +0.067 C 
BRANCH  15  20
ATOM     20  N   UNL     1       3.480   0.749  -0.027  0.00  0.00    -0.355 N 
ATOM     21  H   UNL     1       4.006   1.715  -0.027  0.00  0.00    +0.142 HD
ATOM     22  H   UNL     1       4.054  -0.190  -0.038  0.00  0.00    +0.142 HD
ENDBRANCH  15  20
ENDBRANCH   1  13
TORSDOF 4
