REMARK  Name = ZINC36552878
REMARK  14 active torsions:
REMARK  status: ('A' for Active; 'I' for Inactive)
REMARK    1  A    between atoms: C_1  and  C_2
REMARK    2  A    between atoms: C_2  and  C_3
REMARK    3  A    between atoms: C_2  and  C_4
REMARK    4  A    between atoms: C_2  and  C_5
REMARK    5  A    between atoms: C_5  and  C_6
REMARK    6  A    between atoms: C_6  and  C_7
REMARK    7  A    between atoms: C_6  and  C_8
REMARK    8  A    between atoms: C_6  and  N_9
REMARK    9  A    between atoms: C_10  and  C_12
REMARK   10  A    between atoms: C_12  and  C_14
REMARK   11  A    between atoms: C_12  and  N_21
REMARK   12  A    between atoms: C_19  and  O_20
REMARK   13  A    between atoms: N_21  and  C_22
REMARK   14  A    between atoms: C_29  and  C_31
REMARK                            x       y       z     vdW  Elec       q    Type
REMARK                         _______ _______ _______ _____ _____    ______ ____
ROOT
ATOM      1  C   UNL     1       5.328  -0.680  -4.155  0.00  0.00    +0.201 C 
ENDROOT
BRANCH   1   2
ATOM      2  C   UNL     1       4.676   0.188  -5.201  0.00  0.00    +0.024 A 
ATOM      3  C   UNL     1       3.933   1.288  -4.820  0.00  0.00    +0.009 A 
ATOM      4  C   UNL     1       3.334   2.084  -5.779  0.00  0.00    +0.001 A 
ATOM      5  C   UNL     1       3.477   1.781  -7.120  0.00  0.00    +0.004 A 
ATOM      6  C   UNL     1       4.219   0.682  -7.506  0.00  0.00    +0.046 A 
ATOM      7  C   UNL     1       4.825  -0.115  -6.546  0.00  0.00    +0.122 A 
BRANCH   7   8
ATOM      8  O   UNL     1       5.561  -1.194  -6.923  0.00  0.00    -0.506 OA
ATOM      9  H   UNL     1       5.067  -2.025  -6.926  0.00  0.00    +0.292 HD
ENDBRANCH   7   8
ENDBRANCH   1   2
BRANCH   1  11
ATOM     10  N   UNL     1       3.371  -1.138  -2.713  0.00  0.00    -0.308 N 
ATOM     11  C   UNL     1       4.576  -0.552  -2.856  0.00  0.00    +0.239 C 
ATOM     12  O   UNL     1       5.056   0.079  -1.938  0.00  0.00    -0.273 OA
ATOM     13  H   UNL     1       3.006  -1.676  -3.433  0.00  0.00    +0.149 HD
BRANCH  10  14
ATOM     14  C   UNL     1       2.613  -0.964  -1.472  0.00  0.00    +0.030 C 
ATOM     15  C   UNL     1       2.479   0.528  -1.162  0.00  0.00    +0.031 C 
ATOM     16  C   UNL     1       3.348  -1.659  -0.324  0.00  0.00    +0.031 C 
BRANCH  14  17
ATOM     17  C   UNL     1       1.222  -1.578  -1.633  0.00  0.00    +0.031 C 
BRANCH  17  19
ATOM     18  C   UNL     1       1.240  -2.115  -4.073  0.00  0.00    +0.010 C 
ATOM     19  C   UNL     1       0.651  -1.197  -3.000  0.00  0.00    -0.036 C 
ATOM     20  C   UNL     1       1.014   0.256  -3.317  0.00  0.00    +0.010 C 
ATOM     21  C   UNL     1      -0.872  -1.349  -2.978  0.00  0.00    +0.010 C 
ENDBRANCH  17  19
ENDBRANCH  14  17
ENDBRANCH  10  14
ENDBRANCH   1  11
BRANCH   1  22
ATOM     22  N   UNL     1       6.715  -0.251  -3.961  0.00  0.00    -0.254 N 
ATOM     23  C   UNL     1       7.728  -1.082  -4.280  0.00  0.00    +0.241 C 
ATOM     24  O   UNL     1       7.492  -2.214  -4.644  0.00  0.00    -0.273 OA
BRANCH  22  25
ATOM     25  C   UNL     1       6.989   1.020  -3.445  0.00  0.00    +0.039 A 
ATOM     26  C   UNL     1       7.677   1.151  -2.245  0.00  0.00    +0.023 A 
ATOM     27  C   UNL     1       7.946   2.407  -1.738  0.00  0.00    +0.003 A 
ATOM     28  C   UNL     1       7.531   3.534  -2.422  0.00  0.00    +0.020 A 
ATOM     29  C   UNL     1       6.845   3.408  -3.618  0.00  0.00    +0.043 A 
ATOM     30  C   UNL     1       6.579   2.154  -4.134  0.00  0.00    +0.043 A 
ATOM     31 CL   UNL     1       6.325   4.826  -4.473  0.00  0.00    -0.083 Cl
ENDBRANCH  22  25
BRANCH  23  32
ATOM     32  C   UNL     1       9.154  -0.603  -4.184  0.00  0.00    +0.160 C 
ATOM     33  C   UNL     1       9.566   0.113  -5.489  0.00  0.00    +0.041 C 
ATOM     34  C   UNL     1      10.217  -1.039  -6.289  0.00  0.00    +0.098 C 
ATOM     35  C   UNL     1      10.672  -2.016  -5.228  0.00  0.00    +0.214 C 
ATOM     36  O   UNL     1      11.469  -2.913  -5.405  0.00  0.00    -0.276 OA
ATOM     37  N   UNL     1      10.066  -1.745  -4.057  0.00  0.00    -0.304 N 
ATOM     38  H   UNL     1      10.212  -2.240  -3.235  0.00  0.00    +0.149 HD
ENDBRANCH  23  32
ENDBRANCH   1  22
TORSDOF 9
