REMARK  Name = ZINC65481944
REMARK  9 active torsions:
REMARK  status: ('A' for Active; 'I' for Inactive)
REMARK    1  A    between atoms: C_1  and  C_2
REMARK    2  A    between atoms: C_2  and  N_3
REMARK    3  A    between atoms: N_3  and  C_4
REMARK    4  A    between atoms: N_3  and  C_6
REMARK    5  A    between atoms: C_4  and  C_5
REMARK    6  A    between atoms: C_6  and  C_7
REMARK    7  A    between atoms: C_6  and  C_25
REMARK    8  A    between atoms: C_7  and  N_8
REMARK    9  A    between atoms: C_17  and  C_19
REMARK                            x       y       z     vdW  Elec       q    Type
REMARK                         _______ _______ _______ _____ _____    ______ ____
ROOT
ATOM      1  N   UNL     1      -4.021  -0.594  -0.249  0.00  0.00    -0.300 N 
ATOM      2  C   UNL     1      -5.360  -0.719  -0.332  0.00  0.00    +0.302 C 
ATOM      3  O   UNL     1      -5.984  -1.204   0.593  0.00  0.00    -0.253 OA
ATOM      4  N   UNL     1      -6.008  -0.307  -1.439  0.00  0.00    -0.283 N 
ATOM      5  C   UNL     1      -5.259   0.180  -2.606  0.00  0.00    +0.128 C 
ATOM      6  C   UNL     1      -5.682  -0.636  -3.834  0.00  0.00    +0.127 C 
ATOM      7  N   UNL     1      -7.150  -0.665  -3.897  0.00  0.00    -0.294 N 
ATOM      8  C   UNL     1      -7.899  -1.151  -2.729  0.00  0.00    +0.127 C 
ATOM      9  C   UNL     1      -7.476  -0.341  -1.503  0.00  0.00    +0.128 C 
ATOM     10  C   UNL     1      -7.798  -0.253  -5.004  0.00  0.00    +0.248 C 
ATOM     11  O   UNL     1      -9.012  -0.189  -5.010  0.00  0.00    -0.270 OA
ATOM     12  H   UNL     1      -3.531  -0.143  -0.954  0.00  0.00    +0.150 HD
ENDROOT
BRANCH  10  13
ATOM     13  C   UNL     1      -7.032   0.122  -6.212  0.00  0.00    +0.055 A 
ATOM     14  C   UNL     1      -5.839  -0.537  -6.531  0.00  0.00    +0.016 A 
ATOM     15  C   UNL     1      -5.160  -0.149  -7.673  0.00  0.00    +0.020 A 
ATOM     16  C   UNL     1      -5.678   0.868  -8.455  0.00  0.00    +0.111 A 
ATOM     17  N   UNL     1      -6.805   1.472  -8.130  0.00  0.00    -0.263 NA
ATOM     18  C   UNL     1      -7.490   1.134  -7.056  0.00  0.00    +0.123 A 
ENDBRANCH  10  13
BRANCH   1  19
ATOM     19  C   UNL     1      -3.304  -1.139   0.907  0.00  0.00    +0.098 C 
BRANCH  19  20
ATOM     20  C   UNL     1      -1.826  -0.755   0.819  0.00  0.00    +0.016 C 
BRANCH  20  21
ATOM     21  C   UNL     1      -1.108  -1.233   2.055  0.00  0.00    +0.093 A 
ATOM     22  C   UNL     1      -0.235  -2.254   2.111  0.00  0.00    +0.043 A 
ATOM     23  C   UNL     1       0.193  -2.353   3.455  0.00  0.00    +0.041 A 
ATOM     24  C   UNL     1      -0.445  -1.386   4.139  0.00  0.00    +0.195 A 
ATOM     25  O   UNL     1      -1.227  -0.707   3.285  0.00  0.00    -0.469 OA
ENDBRANCH  20  21
BRANCH  20  26
ATOM     26  N   UNL     1      -1.705   0.706   0.716  0.00  0.00    +0.387 N 
ATOM     27  H   UNL     1      -2.148   1.021  -0.134  0.00  0.00    -0.081 HD
BRANCH  26  29
ATOM     28  C   UNL     1      -2.385   2.852   1.681  0.00  0.00    -0.017 C 
ATOM     29  C   UNL     1      -2.361   1.334   1.871  0.00  0.00    -0.081 C 
ENDBRANCH  26  29
BRANCH  26  30
ATOM     30  C   UNL     1      -0.285   1.079   0.696  0.00  0.00    -0.081 C 
ATOM     31  C   UNL     1       0.366   0.540  -0.579  0.00  0.00    -0.017 C 
ENDBRANCH  26  30
ENDBRANCH  20  26
ENDBRANCH  19  20
ENDBRANCH   1  19
TORSDOF 7
