REMARK  Name = ZINC40838289
REMARK  4 active torsions:
REMARK  status: ('A' for Active; 'I' for Inactive)
REMARK    1  A    between atoms: C_1  and  C_2
REMARK    2  A    between atoms: N_12  and  C_20
REMARK    3  A    between atoms: C_20  and  C_21
REMARK    4  A    between atoms: C_21  and  C_22
REMARK                            x       y       z     vdW  Elec       q    Type
REMARK                         _______ _______ _______ _____ _____    ______ ____
ROOT
ATOM      1  C   UNL     1      -0.123   1.549   0.149  0.00  0.00    +0.009 C 
ATOM      2  C   UNL     1      -0.055   0.020   0.124  0.00  0.00    +0.003 C 
ATOM      3  C   UNL     1       0.716  -0.437  -1.116  0.00  0.00    +0.006 C 
ATOM      4  C   UNL     1       0.756  -1.966  -1.159  0.00  0.00    +0.019 C 
ATOM      5  C   UNL     1       1.485  -2.489   0.083  0.00  0.00    +0.106 C 
ATOM      6  N   UNL     1       0.837  -1.935   1.280  0.00  0.00    -0.311 N 
ATOM      7  C   UNL     1       0.664  -0.480   1.381  0.00  0.00    +0.110 C 
ATOM      8  C   UNL     1       0.397  -2.769   2.292  0.00  0.00    +0.188 A 
ATOM      9  C   UNL     1       0.448  -4.233   2.115  0.00  0.00    +0.292 A 
ATOM     10  O   UNL     1       0.876  -4.715   1.083  0.00  0.00    -0.264 OA
ATOM     11  N   UNL     1       0.014  -5.031   3.115  0.00  0.00    -0.303 N 
ATOM     12  C   UNL     1      -0.467  -4.452   4.276  0.00  0.00    +0.070 A 
ATOM     13  C   UNL     1      -0.920  -5.251   5.321  0.00  0.00    +0.028 A 
ATOM     14  C   UNL     1      -1.397  -4.667   6.475  0.00  0.00    +0.002 A 
ATOM     15  C   UNL     1      -1.429  -3.285   6.603  0.00  0.00    +0.002 A 
ATOM     16  C   UNL     1      -0.990  -2.483   5.589  0.00  0.00    +0.030 A 
ATOM     17  C   UNL     1      -0.499  -3.053   4.406  0.00  0.00    +0.090 A 
ATOM     18  N   UNL     1      -0.060  -2.259   3.407  0.00  0.00    -0.225 NA
ENDROOT
BRANCH  11  19
ATOM     19  C   UNL     1       0.050  -6.488   2.972  0.00  0.00    +0.135 C 
BRANCH  19  20
ATOM     20  C   UNL     1       1.392  -7.017   3.482  0.00  0.00    +0.118 C 
BRANCH  20  21
ATOM     21  C   UNL     1       1.430  -8.516   3.335  0.00  0.00    +0.221 C 
ATOM     22  O   UNL     1       0.517  -9.095   2.785  0.00  0.00    -0.275 OA
ATOM     23  N   UNL     1       2.479  -9.214   3.814  0.00  0.00    -0.271 N 
ATOM     24  C   UNL     1       3.552  -8.536   4.553  0.00  0.00    +0.114 C 
ATOM     25  C   UNL     1       4.892  -9.071   4.031  0.00  0.00    +0.024 C 
ATOM     26  C   UNL     1       4.982 -10.565   4.339  0.00  0.00    +0.038 C 
ATOM     27  C   UNL     1       3.748 -11.279   3.853  0.00  0.00    -0.026 A 
ATOM     28  C   UNL     1       2.562 -10.600   3.619  0.00  0.00    +0.039 A 
ATOM     29  C   UNL     1       1.438 -11.290   3.180  0.00  0.00    +0.024 A 
ATOM     30  C   UNL     1       1.499 -12.655   2.980  0.00  0.00    +0.002 A 
ATOM     31  C   UNL     1       2.680 -13.334   3.216  0.00  0.00    +0.000 A 
ATOM     32  C   UNL     1       3.805 -12.647   3.643  0.00  0.00    +0.005 A 
ENDBRANCH  20  21
ENDBRANCH  19  20
ENDBRANCH  11  19
TORSDOF 3
