REMARK  Name = ZINC20348473
REMARK  14 active torsions:
REMARK  status: ('A' for Active; 'I' for Inactive)
REMARK    1  A    between atoms: C_1  and  C_2
REMARK    2  A    between atoms: C_4  and  C_37
REMARK    3  A    between atoms: C_5  and  N_9
REMARK    4  A    between atoms: C_6  and  C_8
REMARK    5  A    between atoms: C_10  and  C_12
REMARK    6  A    between atoms: C_12  and  S_13
REMARK    7  A    between atoms: S_13  and  C_14
REMARK    8  A    between atoms: C_15  and  C_35
REMARK    9  A    between atoms: C_16  and  C_28
REMARK   10  A    between atoms: C_18  and  C_22
REMARK   11  A    between atoms: C_19  and  C_21
REMARK   12  A    between atoms: C_22  and  O_24
REMARK   13  A    between atoms: O_24  and  C_25
REMARK   14  A    between atoms: C_25  and  C_26
REMARK                            x       y       z     vdW  Elec       q    Type
REMARK                         _______ _______ _______ _____ _____    ______ ____
ROOT
ATOM      1  C   UNL     1      -7.471   0.972  -0.790  0.00  0.00    +0.080 C 
ATOM      2  C   UNL     1      -8.772   1.369  -0.797  0.00  0.00    +0.069 C 
ATOM      3  C   UNL     1      -9.880   0.404  -1.108  0.00  0.00    +0.102 C 
ATOM      4  C   UNL     1      -9.399  -1.014  -0.994  0.00  0.00    +0.066 C 
ATOM      5  C   UNL     1      -8.090  -1.317  -0.976  0.00  0.00    +0.016 C 
ATOM      6  N   UNL     1      -7.139  -0.338  -1.054  0.00  0.00    -0.312 N 
ATOM      7  C   UNL     1      -7.663  -2.759  -0.868  0.00  0.00    +0.061 C 
ATOM      8  H   UNL     1      -6.106  -0.599  -1.328  0.00  0.00    +0.152 HD
ENDROOT
BRANCH   3   9
ATOM      9  C   UNL     1     -10.376   0.647  -2.510  0.00  0.00    -0.016 A 
ATOM     10  C   UNL     1      -9.517   0.499  -3.583  0.00  0.00    +0.006 A 
ATOM     11  C   UNL     1      -9.973   0.717  -4.870  0.00  0.00    +0.000 A 
ATOM     12  C   UNL     1     -11.286   1.095  -5.083  0.00  0.00    +0.001 A 
ATOM     13  C   UNL     1     -12.144   1.248  -4.011  0.00  0.00    +0.020 A 
ATOM     14  C   UNL     1     -11.689   1.024  -2.724  0.00  0.00    +0.045 A 
ATOM     15 CL   UNL     1     -12.767   1.218  -1.376  0.00  0.00    -0.083 Cl
ENDBRANCH   3   9
BRANCH   4  16
ATOM     16  C   UNL     1     -10.348  -2.058  -0.901  0.00  0.00    +0.338 C 
ATOM     17  O   UNL     1      -9.976  -3.213  -0.808  0.00  0.00    -0.245 OA
BRANCH  16  18
ATOM     18  O   UNL     1     -11.667  -1.773  -0.917  0.00  0.00    -0.457 OA
BRANCH  18  19
ATOM     19  C   UNL     1     -12.570  -2.877  -0.821  0.00  0.00    +0.259 C 
BRANCH  19  20
ATOM     20  C   UNL     1     -13.989  -2.369  -0.855  0.00  0.00    +0.006 C 
ATOM     21  C   UNL     1     -14.880  -2.968  -1.605  0.00  0.00    +0.007 C 
ENDBRANCH  19  20
ENDBRANCH  18  19
ENDBRANCH  16  18
ENDBRANCH   4  16
BRANCH   2  22
ATOM     22  C   UNL     1      -9.091   2.734  -0.505  0.00  0.00    +0.098 C 
ATOM     23  N   UNL     1      -9.344   3.817  -0.274  0.00  0.00    -0.191 NA
ENDBRANCH   2  22
BRANCH   1  24
ATOM     24  S   UNL     1      -6.202   2.142  -0.435  0.00  0.00    -0.100 S 
BRANCH  24  25
ATOM     25  C   UNL     1      -4.746   1.073  -0.559  0.00  0.00    +0.171 C 
BRANCH  25  27
ATOM     26  N   UNL     1      -2.294   1.291  -0.322  0.00  0.00    -0.284 N 
ATOM     27  C   UNL     1      -3.504   1.882  -0.285  0.00  0.00    +0.227 C 
ATOM     28  O   UNL     1      -3.595   3.064  -0.031  0.00  0.00    -0.275 OA
ATOM     29  H   UNL     1      -2.217   0.203  -0.461  0.00  0.00    +0.155 HD
BRANCH  26  34
ATOM     30  C   UNL     1       2.413   4.408   0.244  0.00  0.00    +0.044 C 
ATOM     31  C   UNL     1       1.161   3.583   0.092  0.00  0.00    -0.050 A 
ATOM     32  C   UNL     1       0.190   3.615   1.076  0.00  0.00    +0.008 A 
ATOM     33  C   UNL     1      -0.958   2.859   0.940  0.00  0.00    -0.029 A 
ATOM     34  C   UNL     1      -1.134   2.062  -0.184  0.00  0.00    +0.039 A 
ATOM     35  C   UNL     1      -0.160   2.038  -1.173  0.00  0.00    -0.029 A 
ATOM     36  C   UNL     1       0.986   2.795  -1.031  0.00  0.00    +0.008 A 
ATOM     37  C   UNL     1      -0.350   1.180  -2.398  0.00  0.00    +0.045 C 
ATOM     38  C   UNL     1      -2.016   2.893   2.013  0.00  0.00    +0.045 C 
ENDBRANCH  26  34
ENDBRANCH  25  27
ENDBRANCH  24  25
ENDBRANCH   1  24
TORSDOF 10
