REMARK  Name = ZINC13476660
REMARK  5 active torsions:
REMARK  status: ('A' for Active; 'I' for Inactive)
REMARK    1  A    between atoms: C_1  and  C_2
REMARK    2  A    between atoms: C_5  and  C_8
REMARK    3  A    between atoms: C_12  and  N_17
REMARK    4  A    between atoms: C_18  and  C_19
REMARK    5  A    between atoms: C_24  and  O_25
REMARK                            x       y       z     vdW  Elec       q    Type
REMARK                         _______ _______ _______ _____ _____    ______ ____
ROOT
ATOM      1  C   UNL     1       0.059  -4.251  -0.021  0.00  0.00    +0.228 A 
ATOM      2  N   UNL     1       0.069  -5.007   1.047  0.00  0.00    -0.209 NA
ATOM      3  C   UNL     1       0.086  -6.309   0.661  0.00  0.00    +0.112 A 
ATOM      4  C   UNL     1       0.102  -7.517   1.357  0.00  0.00    +0.059 A 
ATOM      5  C   UNL     1       0.118  -8.717   0.652  0.00  0.00    +0.066 A 
ATOM      6  C   UNL     1       0.118  -8.708  -0.749  0.00  0.00    +0.031 A 
ATOM      7  C   UNL     1       0.102  -7.516  -1.437  0.00  0.00    +0.050 A 
ATOM      8  C   UNL     1       0.086  -6.313  -0.745  0.00  0.00    +0.156 A 
ATOM      9  O   UNL     1       0.063  -5.016  -1.129  0.00  0.00    -0.435 OA
ENDROOT
BRANCH   1  14
ATOM     10  C   UNL     1      -0.018   1.503   0.010  0.00  0.00    +0.044 C 
ATOM     11  C   UNL     1       0.002  -0.004   0.002  0.00  0.00    -0.050 A 
ATOM     12  C   UNL     1       0.006  -0.686  -1.202  0.00  0.00    +0.004 A 
ATOM     13  C   UNL     1       0.024  -2.066  -1.216  0.00  0.00    +0.013 A 
ATOM     14  C   UNL     1       0.040  -2.773  -0.013  0.00  0.00    +0.037 A 
ATOM     15  C   UNL     1       0.036  -2.079   1.198  0.00  0.00    +0.013 A 
ATOM     16  C   UNL     1       0.023  -0.699   1.198  0.00  0.00    +0.004 A 
ENDBRANCH   1  14
BRANCH   5  17
ATOM     17  N   UNL     1       0.135  -9.907   1.328  0.00  0.00    -0.255 NA
ATOM     18  C   UNL     1      -0.651 -10.879   0.956  0.00  0.00    +0.123 C 
BRANCH  18  19
ATOM     19  C   UNL     1      -0.633 -12.157   1.682  0.00  0.00    +0.036 A 
ATOM     20  C   UNL     1      -1.470 -13.204   1.282  0.00  0.00    +0.028 A 
ATOM     21  C   UNL     1      -1.448 -14.400   1.968  0.00  0.00    +0.019 A 
ATOM     22  C   UNL     1      -0.600 -14.570   3.051  0.00  0.00    +0.019 A 
ATOM     23  C   UNL     1       0.232 -13.544   3.455  0.00  0.00    +0.047 A 
ATOM     24  C   UNL     1       0.227 -12.336   2.776  0.00  0.00    +0.125 A 
ATOM     25 BR   UNL     1      -2.580 -15.816   1.428  0.00  0.00    -0.050 Br
BRANCH  24  26
ATOM     26  O   UNL     1       1.048 -11.329   3.169  0.00  0.00    -0.506 OA
ATOM     27  H   UNL     1       0.657 -10.738   3.827  0.00  0.00    +0.292 HD
ENDBRANCH  24  26
ENDBRANCH  18  19
ENDBRANCH   5  17
TORSDOF 4
