REMARK  Name = ZINC35172538
REMARK  6 active torsions:
REMARK  status: ('A' for Active; 'I' for Inactive)
REMARK    1  A    between atoms: C_4  and  C_7
REMARK    2  A    between atoms: C_7  and  N_8
REMARK    3  A    between atoms: C_9  and  C_11
REMARK    4  A    between atoms: C_11  and  N_12
REMARK    5  A    between atoms: C_21  and  C_23
REMARK    6  A    between atoms: C_27  and  N_29
REMARK                            x       y       z     vdW  Elec       q    Type
REMARK                         _______ _______ _______ _____ _____    ______ ____
ROOT
ATOM      1  N   UNL     1       6.974  -2.615   2.998  0.00  0.00    +0.394 N 
ATOM      2  C   UNL     1       6.781  -3.995   2.545  0.00  0.00    -0.075 C 
ATOM      3  C   UNL     1       8.117  -4.712   2.390  0.00  0.00    +0.003 C 
ATOM      4  C   UNL     1       9.187  -3.720   1.927  0.00  0.00    +0.119 C 
ATOM      5  N   UNL     1       9.797  -3.093   3.105  0.00  0.00    -0.352 N 
ATOM      6  C   UNL     1      11.129  -2.914   3.326  0.00  0.00    +0.086 A 
ATOM      7  C   UNL     1      11.279  -2.286   4.510  0.00  0.00    +0.019 A 
ATOM      8  C   UNL     1       9.991  -2.075   5.042  0.00  0.00    +0.021 A 
ATOM      9  C   UNL     1       9.104  -2.584   4.165  0.00  0.00    +0.009 A 
ATOM     10  C   UNL     1       7.603  -2.605   4.326  0.00  0.00    +0.011 C 
ATOM     11  H   UNL     1       7.567  -2.129   2.343  0.00  0.00    -0.080 HD
ENDROOT
BRANCH  10  12
ATOM     12  C   UNL     1       7.161  -1.378   5.082  0.00  0.00    -0.053 A 
ATOM     13  C   UNL     1       6.516  -1.511   6.298  0.00  0.00    +0.002 A 
ATOM     14  C   UNL     1       6.110  -0.387   6.991  0.00  0.00    +0.002 A 
ATOM     15  C   UNL     1       6.351   0.871   6.470  0.00  0.00    +0.033 A 
ATOM     16  C   UNL     1       6.997   1.004   5.256  0.00  0.00    +0.126 A 
ATOM     17  C   UNL     1       7.406  -0.121   4.564  0.00  0.00    +0.035 A 
BRANCH  16  18
ATOM     18  N   UNL     1       7.254   2.351   4.697  0.00  0.00    +0.056 N 
ATOM     19  O   UNL     1       6.899   3.334   5.304  0.00  0.00    -0.126 OA
ATOM     20  O   UNL     1       7.819   2.467   3.635  0.00  0.00    -0.126 OA
ENDBRANCH  16  18
ENDBRANCH  10  12
BRANCH   1  21
ATOM     21  C   UNL     1       5.671  -1.940   3.071  0.00  0.00    +0.020 C 
BRANCH  21  23
ATOM     22  N   UNL     1       3.899  -1.215   1.505  0.00  0.00    -0.313 N 
ATOM     23  C   UNL     1       5.096  -1.807   1.684  0.00  0.00    +0.197 C 
ATOM     24  O   UNL     1       5.711  -2.233   0.730  0.00  0.00    -0.278 OA
ATOM     25  H   UNL     1       3.407  -0.875   2.269  0.00  0.00    +0.149 HD
BRANCH  22  26
ATOM     26  C   UNL     1       3.340  -1.086   0.157  0.00  0.00    +0.139 C 
BRANCH  26  30
ATOM     27  C   UNL     1      -0.448   0.877   0.366  0.00  0.00    +0.000 A 
ATOM     28  C   UNL     1       0.707   1.620   0.210  0.00  0.00    +0.000 A 
ATOM     29  C   UNL     1       1.933   0.984   0.143  0.00  0.00    +0.005 A 
ATOM     30  C   UNL     1       2.003  -0.393   0.232  0.00  0.00    -0.030 A 
ATOM     31  C   UNL     1       0.848  -1.136   0.389  0.00  0.00    +0.005 A 
ATOM     32  C   UNL     1      -0.378  -0.500   0.455  0.00  0.00    +0.000 A 
ENDBRANCH  26  30
ENDBRANCH  22  26
ENDBRANCH  21  23
ENDBRANCH   1  21
TORSDOF 6
