REMARK  Name = ZINC39337591
REMARK  6 active torsions:
REMARK  status: ('A' for Active; 'I' for Inactive)
REMARK    1  A    between atoms: C_7  and  C_10
REMARK    2  A    between atoms: C_10  and  C_11
REMARK    3  A    between atoms: C_11  and  N_12
REMARK    4  A    between atoms: C_13  and  C_15
REMARK    5  A    between atoms: C_19  and  N_21
REMARK    6  A    between atoms: C_29  and  C_31
REMARK                            x       y       z     vdW  Elec       q    Type
REMARK                         _______ _______ _______ _____ _____    ______ ____
ROOT
ATOM      1  C   UNL     1      -3.942   7.990  -4.896  0.00  0.00    +0.153 C 
ATOM      2  N   UNL     1      -3.839   8.562  -3.757  0.00  0.00    -0.173 NA
ATOM      3  N   UNL     1      -4.508   9.747  -3.447  0.00  0.00    -0.209 N 
ATOM      4  S   UNL     1      -5.372  10.141  -4.832  0.00  0.00    -0.015 S 
ATOM      5  C   UNL     1      -4.850   8.719  -5.875  0.00  0.00    +0.208 C 
ATOM      6  H   UNL     1      -4.480  10.238  -2.611  0.00  0.00    +0.183 HD
ENDROOT
BRANCH   5   7
ATOM      7  N   UNL     1      -5.998   7.890  -6.254  0.00  0.00    -0.280 N 
ATOM      8  C   UNL     1      -7.234   8.425  -6.284  0.00  0.00    +0.304 C 
ATOM      9  O   UNL     1      -7.410   9.572  -5.922  0.00  0.00    -0.253 OA
ATOM     10  N   UNL     1      -8.277   7.688  -6.715  0.00  0.00    -0.278 N 
ATOM     11  C   UNL     1      -8.103   6.267  -7.046  0.00  0.00    +0.110 C 
ATOM     12  C   UNL     1      -9.131   5.447  -6.259  0.00  0.00    +0.019 C 
ATOM     13  C   UNL     1     -10.534   5.991  -6.540  0.00  0.00    +0.004 C 
ATOM     14  C   UNL     1     -10.620   7.447  -6.077  0.00  0.00    +0.027 C 
ATOM     15  C   UNL     1      -9.611   8.288  -6.856  0.00  0.00    +0.109 C 
ATOM     16  H   UNL     1      -5.867   6.957  -6.484  0.00  0.00    +0.152 HD
BRANCH  15  17
ATOM     17  C   UNL     1      -9.594   9.691  -6.306  0.00  0.00    -0.009 A 
ATOM     18  C   UNL     1      -9.809  10.776  -7.143  0.00  0.00    +0.008 A 
ATOM     19  C   UNL     1      -9.784  12.048  -6.594  0.00  0.00    +0.020 A 
ATOM     20  C   UNL     1      -9.548  12.193  -5.240  0.00  0.00    +0.111 A 
ATOM     21  N   UNL     1      -9.348  11.138  -4.474  0.00  0.00    -0.263 NA
ATOM     22  C   UNL     1      -9.370   9.913  -4.961  0.00  0.00    +0.116 A 
ENDBRANCH  15  17
ENDBRANCH   5   7
BRANCH   1  24
ATOM     23  N   UNL     1      -2.454   6.152  -4.316  0.00  0.00    -0.310 N 
ATOM     24  C   UNL     1      -3.244   6.748  -5.230  0.00  0.00    +0.263 C 
ATOM     25  O   UNL     1      -3.378   6.252  -6.334  0.00  0.00    -0.269 OA
ATOM     26  H   UNL     1      -2.347   6.547  -3.436  0.00  0.00    +0.149 HD
BRANCH  23  27
ATOM     27  C   UNL     1      -1.755   4.908  -4.650  0.00  0.00    +0.109 C 
BRANCH  27  28
ATOM     28  C   UNL     1      -0.932   4.447  -3.446  0.00  0.00    +0.056 C 
BRANCH  28  35
ATOM     29  C   UNL     1       3.139   3.529  -5.582  0.00  0.00    +0.001 A 
ATOM     30  C   UNL     1       3.403   2.170  -5.682  0.00  0.00    +0.002 A 
ATOM     31  C   UNL     1       2.514   1.243  -5.183  0.00  0.00    +0.026 A 
ATOM     32  C   UNL     1       1.340   1.671  -4.571  0.00  0.00    +0.047 A 
ATOM     33  N   UNL     1       0.280   1.012  -3.989  0.00  0.00    -0.360 N 
ATOM     34  C   UNL     1      -0.635   1.920  -3.530  0.00  0.00    +0.087 A 
ATOM     35  C   UNL     1      -0.213   3.167  -3.790  0.00  0.00    -0.021 A 
ATOM     36  C   UNL     1       1.078   3.049  -4.472  0.00  0.00    +0.003 A 
ATOM     37  C   UNL     1       1.995   3.971  -4.980  0.00  0.00    +0.010 A 
ATOM     38  H   UNL     1       0.195   0.049  -3.917  0.00  0.00    +0.165 HD
ENDBRANCH  28  35
ENDBRANCH  27  28
ENDBRANCH  23  27
ENDBRANCH   1  24
TORSDOF 6
