REMARK  Name = ZINC50419931
REMARK  5 active torsions:
REMARK  status: ('A' for Active; 'I' for Inactive)
REMARK    1  A    between atoms: C_1  and  C_2
REMARK    2  A    between atoms: C_2  and  C_4
REMARK    3  A    between atoms: C_2  and  N_10
REMARK    4  A    between atoms: N_8  and  C_9
REMARK    5  A    between atoms: C_12  and  C_21
REMARK                            x       y       z     vdW  Elec       q    Type
REMARK                         _______ _______ _______ _____ _____    ______ ____
ROOT
ATOM      1  N   UNL     1      -1.372  -0.511   0.012  0.00  0.00    -0.318 N 
ATOM      2  C   UNL     1      -2.046  -0.659   1.212  0.00  0.00    +0.137 A 
ATOM      3  C   UNL     1      -3.363  -1.151   1.220  0.00  0.00    +0.092 A 
ATOM      4  C   UNL     1      -4.016  -1.284   2.448  0.00  0.00    +0.027 A 
ATOM      5  C   UNL     1      -3.341  -0.928   3.610  0.00  0.00    -0.025 A 
ATOM      6  C   UNL     1      -2.048  -0.459   3.526  0.00  0.00    +0.047 A 
ATOM      7  N   UNL     1      -1.449  -0.343   2.346  0.00  0.00    -0.236 NA
ATOM      8  C   UNL     1      -1.251  -0.073   4.746  0.00  0.00    +0.056 C 
ATOM      9  C   UNL     1      -2.174   0.154   5.941  0.00  0.00    +0.006 C 
ATOM     10  C   UNL     1      -3.088  -1.068   6.086  0.00  0.00    +0.005 C 
ATOM     11  C   UNL     1      -4.072  -1.074   4.918  0.00  0.00    +0.037 C 
ATOM     12  H   UNL     1      -1.810  -0.743  -0.822  0.00  0.00    +0.148 HD
ENDROOT
BRANCH   1  14
ATOM     13  C   UNL     1      -0.019   1.526   0.010  0.00  0.00    +0.036 C 
ATOM     14  C   UNL     1       0.002  -0.004   0.002  0.00  0.00    +0.137 C 
BRANCH  14  15
ATOM     15  C   UNL     1       0.707  -0.490  -1.238  0.00  0.00    +0.153 A 
ATOM     16  N   UNL     1       0.229  -0.486  -2.452  0.00  0.00    -0.133 NA
ATOM     17  N   UNL     1       1.101  -0.972  -3.263  0.00  0.00    -0.138 NA
ATOM     18  C   UNL     1       2.175  -1.307  -2.603  0.00  0.00    +0.224 A 
ATOM     19  N   UNL     1       1.958  -1.007  -1.300  0.00  0.00    -0.319 N 
ATOM     20  C   UNL     1       2.887  -1.203  -0.183  0.00  0.00    +0.151 C 
ENDBRANCH  14  15
ENDBRANCH   1  14
BRANCH   3  21
ATOM     21  C   UNL     1      -4.020  -1.508  -0.001  0.00  0.00    +0.103 C 
ATOM     22  N   UNL     1      -4.541  -1.792  -0.970  0.00  0.00    -0.191 NA
ENDBRANCH   3  21
TORSDOF 3
