REMARK  Name = ZINC38887156
REMARK  9 active torsions:
REMARK  status: ('A' for Active; 'I' for Inactive)
REMARK    1  A    between atoms: C_1  and  C_2
REMARK    2  A    between atoms: C_7  and  C_8
REMARK    3  A    between atoms: C_10  and  C_13
REMARK    4  A    between atoms: C_13  and  N_14
REMARK    5  A    between atoms: C_18  and  C_21
REMARK    6  A    between atoms: C_30  and  S_32
REMARK    7  A    between atoms: S_32  and  N_35
REMARK    8  A    between atoms: N_35  and  C_36
REMARK    9  A    between atoms: N_35  and  C_37
REMARK                            x       y       z     vdW  Elec       q    Type
REMARK                         _______ _______ _______ _____ _____    ______ ____
ROOT
ATOM      1  N   UNL     1       1.374  -0.082   6.633  0.00  0.00    +0.386 N 
ATOM      2  C   UNL     1       1.789   1.319   6.498  0.00  0.00    -0.078 C 
ATOM      3  C   UNL     1       3.260   1.461   6.893  0.00  0.00    -0.018 C 
ATOM      4  C   UNL     1       3.439   1.011   8.346  0.00  0.00    +0.009 C 
ATOM      5  C   UNL     1       2.934  -0.427   8.490  0.00  0.00    +0.059 C 
ATOM      6  C   UNL     1       1.475  -0.498   8.037  0.00  0.00    -0.065 C 
ATOM      7  H   UNL     1       1.974  -0.664   6.067  0.00  0.00    -0.081 HD
ENDROOT
BRANCH   5   8
ATOM      8  C   UNL     1       3.035  -0.853   9.932  0.00  0.00    +0.221 C 
ATOM      9  O   UNL     1       2.079  -0.732  10.669  0.00  0.00    -0.275 OA
ATOM     10  N   UNL     1       4.188  -1.369  10.404  0.00  0.00    -0.271 N 
ATOM     11  C   UNL     1       5.373  -1.656   9.592  0.00  0.00    +0.118 C 
ATOM     12  C   UNL     1       6.408  -2.225  10.577  0.00  0.00    +0.056 C 
ATOM     13  C   UNL     1       5.705  -2.216  11.915  0.00  0.00    -0.023 A 
ATOM     14  C   UNL     1       4.429  -1.704  11.740  0.00  0.00    +0.040 A 
ATOM     15  C   UNL     1       3.585  -1.592  12.846  0.00  0.00    +0.026 A 
ATOM     16  C   UNL     1       4.021  -1.983  14.095  0.00  0.00    +0.030 A 
ATOM     17  C   UNL     1       5.296  -2.489  14.260  0.00  0.00    +0.106 A 
ATOM     18  C   UNL     1       6.135  -2.611  13.167  0.00  0.00    +0.034 A 
BRANCH  17  19
ATOM     19  S   UNL     1       5.849  -2.987  15.857  0.00  0.00    +0.060 S 
ATOM     20  O   UNL     1       7.268  -2.916  15.837  0.00  0.00    -0.153 OA
ATOM     21  O   UNL     1       5.064  -2.270  16.801  0.00  0.00    -0.153 OA
BRANCH  19  22
ATOM     22  N   UNL     1       5.458  -4.586  16.034  0.00  0.00    -0.183 NA
ATOM     23  C   UNL     1       6.407  -5.623  15.621  0.00  0.00    +0.131 C 
ATOM     24  C   UNL     1       4.162  -4.965  16.604  0.00  0.00    +0.131 C 
ENDBRANCH  19  22
ENDBRANCH  17  19
ENDBRANCH   5   8
BRANCH   1  25
ATOM     25  C   UNL     1      -0.015  -0.226   6.179  0.00  0.00    +0.022 C 
BRANCH  25  28
ATOM     26  C   UNL     1      -0.093  -0.162   2.551  0.00  0.00    +0.202 A 
ATOM     27  N   UNL     1       0.040  -0.778   3.739  0.00  0.00    -0.193 NA
ATOM     28  C   UNL     1      -0.098   0.083   4.706  0.00  0.00    +0.211 A 
ATOM     29  O   UNL     1      -0.324   1.290   4.171  0.00  0.00    -0.340 OA
ATOM     30  N   UNL     1      -0.312   1.113   2.763  0.00  0.00    -0.056 NA
BRANCH  26  37
ATOM     31  C   UNL     1       2.079  -1.992   2.001  0.00  0.00    +0.044 C 
ATOM     32  C   UNL     1       1.042  -1.698   0.947  0.00  0.00    -0.040 A 
ATOM     33  C   UNL     1       1.121  -2.307  -0.289  0.00  0.00    +0.004 A 
ATOM     34  C   UNL     1       0.170  -2.037  -1.257  0.00  0.00    +0.000 A 
ATOM     35  C   UNL     1      -0.863  -1.157  -0.992  0.00  0.00    +0.001 A 
ATOM     36  C   UNL     1      -0.951  -0.542   0.240  0.00  0.00    +0.012 A 
ATOM     37  C   UNL     1       0.000  -0.815   1.221  0.00  0.00    +0.025 A 
ENDBRANCH  26  37
ENDBRANCH  25  28
ENDBRANCH   1  25
TORSDOF 6
