REMARK  Name = ZINC14845000
REMARK  7 active torsions:
REMARK  status: ('A' for Active; 'I' for Inactive)
REMARK    1  A    between atoms: C_1  and  C_2
REMARK    2  A    between atoms: C_3  and  C_15
REMARK    3  A    between atoms: C_4  and  C_14
REMARK    4  A    between atoms: N_5  and  C_7
REMARK    5  A    between atoms: N_17  and  N_18
REMARK    6  A    between atoms: C_19  and  C_21
REMARK    7  A    between atoms: C_21  and  C_22
REMARK                            x       y       z     vdW  Elec       q    Type
REMARK                         _______ _______ _______ _____ _____    ______ ____
ROOT
ATOM      1  C   UNL     1      -0.373  -0.396  -2.525  0.00  0.00    +0.264 C 
ATOM      2  O   UNL     1       0.573  -0.061  -3.212  0.00  0.00    -0.269 OA
ATOM      3  N   UNL     1      -1.620  -0.363  -3.034  0.00  0.00    -0.230 N 
ATOM      4  H   UNL     1      -2.375  -0.630  -2.486  0.00  0.00    +0.173 HD
ENDROOT
BRANCH   1   7
ATOM      5  C   UNL     1      -0.366   1.475   0.038  0.00  0.00    +0.068 C 
ATOM      6  C   UNL     1      -0.149  -0.016   0.014  0.00  0.00    +0.073 A 
ATOM      7  C   UNL     1      -0.154  -0.838  -1.136  0.00  0.00    +0.082 A 
ATOM      8  C   UNL     1       0.083  -2.131  -0.715  0.00  0.00    +0.054 A 
ATOM      9  N   UNL     1       0.225  -2.098   0.623  0.00  0.00    -0.236 N 
ATOM     10  N   UNL     1       0.082  -0.774   1.051  0.00  0.00    -0.171 NA
ATOM     11  C   UNL     1       0.167  -3.354  -1.591  0.00  0.00    +0.066 C 
BRANCH   9  12
ATOM     12  C   UNL     1       0.478  -3.204   1.447  0.00  0.00    +0.066 A 
ATOM     13  C   UNL     1       1.401  -4.165   1.057  0.00  0.00    +0.030 A 
ATOM     14  C   UNL     1       1.648  -5.253   1.871  0.00  0.00    +0.040 A 
ATOM     15  C   UNL     1       0.977  -5.386   3.075  0.00  0.00    +0.124 A 
ATOM     16  C   UNL     1       0.056  -4.428   3.465  0.00  0.00    +0.040 A 
ATOM     17  C   UNL     1      -0.190  -3.336   2.657  0.00  0.00    +0.030 A 
ATOM     18  F   UNL     1       1.220  -6.452   3.869  0.00  0.00    -0.205 F 
ENDBRANCH   9  12
ENDBRANCH   1   7
BRANCH   3  19
ATOM     19  N   UNL     1      -1.828   0.056  -4.354  0.00  0.00    -0.234 N 
ATOM     20  C   UNL     1      -3.075   0.089  -4.863  0.00  0.00    +0.230 C 
ATOM     21  O   UNL     1      -4.019  -0.245  -4.178  0.00  0.00    -0.274 OA
ATOM     22  H   UNL     1      -1.073   0.323  -4.903  0.00  0.00    +0.173 HD
BRANCH  20  23
ATOM     23  C   UNL     1      -3.298   0.540  -6.284  0.00  0.00    +0.104 C 
BRANCH  23  24
ATOM     24  C   UNL     1      -4.793   0.484  -6.608  0.00  0.00    -0.020 C 
ATOM     25  C   UNL     1      -5.296  -0.952  -6.444  0.00  0.00    +0.011 C 
ATOM     26  C   UNL     1      -6.790  -1.008  -6.768  0.00  0.00    -0.010 C 
ATOM     27  C   UNL     1      -7.017  -0.550  -8.210  0.00  0.00    +0.007 C 
ATOM     28  C   UNL     1      -6.513   0.886  -8.374  0.00  0.00    -0.010 C 
ATOM     29  C   UNL     1      -5.019   0.942  -8.050  0.00  0.00    +0.011 C 
ATOM     30  C   UNL     1      -7.277   1.806  -7.421  0.00  0.00    +0.007 C 
ATOM     31  C   UNL     1      -7.051   1.348  -5.979  0.00  0.00    -0.010 C 
ATOM     32  C   UNL     1      -7.554  -0.087  -5.815  0.00  0.00    +0.007 C 
ATOM     33  C   UNL     1      -5.556   1.405  -5.654  0.00  0.00    +0.011 C 
ENDBRANCH  23  24
ENDBRANCH  20  23
ENDBRANCH   3  19
TORSDOF 5
