REMARK  Name = ZINC12937262
REMARK  7 active torsions:
REMARK  status: ('A' for Active; 'I' for Inactive)
REMARK    1  A    between atoms: C_1  and  C_2
REMARK    2  A    between atoms: C_5  and  S_11
REMARK    3  A    between atoms: C_7  and  N_8
REMARK    4  A    between atoms: S_11  and  N_14
REMARK    5  A    between atoms: N_14  and  N_15
REMARK    6  A    between atoms: C_16  and  C_18
REMARK    7  A    between atoms: N_22  and  C_23
REMARK                            x       y       z     vdW  Elec       q    Type
REMARK                         _______ _______ _______ _____ _____    ______ ____
ROOT
ATOM      1  S   UNL     1      -2.583   4.204  -0.669  0.00  0.00    +0.074 S 
ATOM      2  O   UNL     1      -3.402   3.534   0.279  0.00  0.00    -0.152 OA
ATOM      3  O   UNL     1      -2.289   5.591  -0.576  0.00  0.00    -0.152 OA
ENDROOT
BRANCH   1   8
ATOM      4  C   UNL     1       2.715   1.318  -0.715  0.00  0.00    +0.046 C 
ATOM      5  C   UNL     1       1.392   2.039  -0.703  0.00  0.00    -0.020 A 
ATOM      6  C   UNL     1       0.250   1.381  -0.287  0.00  0.00    +0.007 A 
ATOM      7  C   UNL     1      -0.965   2.040  -0.281  0.00  0.00    +0.029 A 
ATOM      8  C   UNL     1      -1.036   3.361  -0.682  0.00  0.00    +0.109 A 
ATOM      9  C   UNL     1       0.106   4.020  -1.098  0.00  0.00    +0.061 A 
ATOM     10  C   UNL     1       1.320   3.358  -1.109  0.00  0.00    +0.131 A 
BRANCH  10  11
ATOM     11  N   UNL     1       2.543   4.063  -1.556  0.00  0.00    +0.057 N 
ATOM     12  O   UNL     1       2.508   5.260  -1.781  0.00  0.00    -0.126 OA
ATOM     13  O   UNL     1       3.584   3.447  -1.697  0.00  0.00    -0.126 OA
ENDBRANCH  10  11
ENDBRANCH   1   8
BRANCH   1  14
ATOM     14  N   UNL     1      -3.283   3.967  -2.151  0.00  0.00    -0.108 NA
ATOM     15  H   UNL     1      -3.494   4.727  -2.715  0.00  0.00    +0.172 HD
BRANCH  14  16
ATOM     16  N   UNL     1      -3.570   2.668  -2.590  0.00  0.00    -0.227 N 
ATOM     17  C   UNL     1      -4.822   2.347  -2.972  0.00  0.00    +0.275 C 
ATOM     18  O   UNL     1      -5.679   3.209  -3.033  0.00  0.00    -0.267 OA
ATOM     19  H   UNL     1      -2.868   2.000  -2.619  0.00  0.00    +0.171 HD
BRANCH  17  20
ATOM     20  C   UNL     1      -5.152   0.959  -3.313  0.00  0.00    +0.106 A 
ATOM     21  C   UNL     1      -4.268  -0.098  -3.371  0.00  0.00    +0.047 A 
ATOM     22  C   UNL     1      -5.005  -1.231  -3.730  0.00  0.00    +0.036 A 
ATOM     23  C   UNL     1      -6.297  -0.853  -3.891  0.00  0.00    +0.101 A 
ATOM     24  N   UNL     1      -6.399   0.476  -3.640  0.00  0.00    -0.345 N 
ATOM     25  C   UNL     1      -7.630   1.266  -3.707  0.00  0.00    +0.149 C 
ATOM     26 BR   UNL     1      -4.321  -2.979  -3.958  0.00  0.00    -0.049 Br
ENDBRANCH  17  20
ENDBRANCH  14  16
ENDBRANCH   1  14
TORSDOF 5
