REMARK  Name = ZINC57508968
REMARK  6 active torsions:
REMARK  status: ('A' for Active; 'I' for Inactive)
REMARK    1  A    between atoms: C_1  and  C_2
REMARK    2  A    between atoms: C_2  and  O_3
REMARK    3  A    between atoms: O_3  and  C_4
REMARK    4  A    between atoms: C_4  and  C_6
REMARK    5  A    between atoms: C_7  and  C_22
REMARK    6  A    between atoms: C_12  and  C_14
REMARK                            x       y       z     vdW  Elec       q    Type
REMARK                         _______ _______ _______ _____ _____    ______ ____
ROOT
ATOM      1  C   UNL     1      -2.768  -2.372   0.116  0.00  0.00    +0.079 C 
ATOM      2  C   UNL     1      -2.916  -3.698  -0.098  0.00  0.00    +0.039 C 
ATOM      3  N   UNL     1      -4.155  -4.263  -0.189  0.00  0.00    -0.271 N 
ATOM      4  C   UNL     1      -5.297  -3.572  -0.079  0.00  0.00    +0.304 C 
ATOM      5  O   UNL     1      -6.354  -4.164  -0.175  0.00  0.00    -0.252 OA
ATOM      6  N   UNL     1      -5.311  -2.241   0.135  0.00  0.00    -0.288 N 
ATOM      7  C   UNL     1      -4.024  -1.536   0.256  0.00  0.00    +0.145 C 
ATOM      8  H   UNL     1      -4.212  -5.219  -0.343  0.00  0.00    +0.156 HD
ATOM      9  H   UNL     1      -6.150  -1.760   0.212  0.00  0.00    +0.151 HD
ENDROOT
BRANCH   7  10
ATOM     10  C   UNL     1      -3.984  -0.859   1.601  0.00  0.00    -0.004 A 
ATOM     11  C   UNL     1      -4.569  -1.465   2.698  0.00  0.00    +0.008 A 
ATOM     12  C   UNL     1      -4.533  -0.844   3.932  0.00  0.00    +0.020 A 
ATOM     13  C   UNL     1      -3.910   0.383   4.071  0.00  0.00    +0.042 A 
ATOM     14  C   UNL     1      -3.324   0.990   2.975  0.00  0.00    +0.040 A 
ATOM     15  C   UNL     1      -3.356   0.366   1.741  0.00  0.00    +0.048 A 
ATOM     16 CL   UNL     1      -2.616   1.123   0.365  0.00  0.00    -0.083 Cl
ATOM     17 CL   UNL     1      -3.865   1.163   5.622  0.00  0.00    -0.083 Cl
ENDBRANCH   7  10
BRANCH   1  18
ATOM     18  C   UNL     1      -1.485  -1.785   0.211  0.00  0.00    +0.339 C 
ATOM     19  O   UNL     1      -1.009  -1.204  -0.746  0.00  0.00    -0.245 OA
BRANCH  18  20
ATOM     20  O   UNL     1      -0.788  -1.870   1.364  0.00  0.00    -0.462 OA
BRANCH  20  22
ATOM     21  C   UNL     1       1.134  -1.453   2.769  0.00  0.00    +0.048 C 
ATOM     22  C   UNL     1       0.501  -1.254   1.390  0.00  0.00    +0.229 C 
ENDBRANCH  20  22
ENDBRANCH  18  20
ENDBRANCH   1  18
BRANCH   2  23
ATOM     23  C   UNL     1      -1.692  -4.567  -0.237  0.00  0.00    +0.160 C 
ATOM     24 CL   UNL     1      -1.279  -5.285   1.364  0.00  0.00    -0.119 Cl
ENDBRANCH   2  23
TORSDOF 5
