REMARK  Name = ZINC39915809
REMARK  9 active torsions:
REMARK  status: ('A' for Active; 'I' for Inactive)
REMARK    1  A    between atoms: C_1  and  C_2
REMARK    2  A    between atoms: C_2  and  N_3
REMARK    3  A    between atoms: C_11  and  S_12
REMARK    4  A    between atoms: S_12  and  C_13
REMARK    5  A    between atoms: C_15  and  O_28
REMARK    6  A    between atoms: C_17  and  O_27
REMARK    7  A    between atoms: C_19  and  O_26
REMARK    8  A    between atoms: C_21  and  C_24
REMARK    9  A    between atoms: C_24  and  O_25
REMARK                            x       y       z     vdW  Elec       q    Type
REMARK                         _______ _______ _______ _____ _____    ______ ____
ROOT
ATOM      1  C   UNL     1      -3.063  -1.155  -3.587  0.00  0.00    +0.214 C 
ATOM      2  C   UNL     1      -2.750  -0.843  -5.053  0.00  0.00    +0.185 C 
ATOM      3  C   UNL     1      -3.931  -1.282  -5.924  0.00  0.00    +0.177 C 
ATOM      4  C   UNL     1      -4.197  -2.772  -5.691  0.00  0.00    +0.176 C 
ATOM      5  C   UNL     1      -4.454  -3.010  -4.201  0.00  0.00    +0.176 C 
ATOM      6  O   UNL     1      -3.331  -2.552  -3.446  0.00  0.00    -0.355 OA
ENDROOT
BRANCH   4   7
ATOM      7  O   UNL     1      -5.342  -3.177  -6.445  0.00  0.00    -0.386 OA
ATOM      8  H   UNL     1      -5.250  -3.049  -7.399  0.00  0.00    +0.210 HD
ENDBRANCH   4   7
BRANCH   3   9
ATOM      9  O   UNL     1      -5.092  -0.526  -5.571  0.00  0.00    -0.386 OA
ATOM     10  H   UNL     1      -4.990   0.428  -5.689  0.00  0.00    +0.210 HD
ENDBRANCH   3   9
BRANCH   2  11
ATOM     11  O   UNL     1      -2.537   0.561  -5.207  0.00  0.00    -0.386 OA
ATOM     12  H   UNL     1      -1.805   0.908  -4.679  0.00  0.00    +0.210 HD
ENDBRANCH   2  11
BRANCH   1  13
ATOM     13  S   UNL     1      -1.641  -0.705  -2.556  0.00  0.00    -0.054 S 
BRANCH  13  22
ATOM     14  N   UNL     1      -1.462  -0.773   0.220  0.00  0.00    -0.319 N 
ATOM     15  C   UNL     1      -2.263  -1.099   1.302  0.00  0.00    +0.069 A 
ATOM     16  C   UNL     1      -2.072  -1.090   2.675  0.00  0.00    +0.028 A 
ATOM     17  C   UNL     1      -3.095  -1.484   3.513  0.00  0.00    +0.002 A 
ATOM     18  C   UNL     1      -4.314  -1.890   2.991  0.00  0.00    +0.002 A 
ATOM     19  C   UNL     1      -4.520  -1.907   1.630  0.00  0.00    +0.030 A 
ATOM     20  C   UNL     1      -3.495  -1.510   0.768  0.00  0.00    +0.090 A 
ATOM     21  N   UNL     1      -3.395  -1.419  -0.584  0.00  0.00    -0.222 NA
ATOM     22  C   UNL     1      -2.204  -0.981  -0.909  0.00  0.00    +0.172 A 
BRANCH  14  24
ATOM     23  C   UNL     1      -0.076   1.237   0.358  0.00  0.00    +0.027 C 
ATOM     24  C   UNL     1      -0.080  -0.291   0.275  0.00  0.00    +0.121 C 
ENDBRANCH  14  24
ENDBRANCH  13  22
ENDBRANCH   1  13
BRANCH   5  25
ATOM     25  C   UNL     1      -5.706  -2.242  -3.770  0.00  0.00    +0.190 C 
BRANCH  25  26
ATOM     26  O   UNL     1      -6.034  -2.584  -2.422  0.00  0.00    -0.392 OA
ATOM     27  H   UNL     1      -6.819  -2.133  -2.082  0.00  0.00    +0.210 HD
ENDBRANCH  25  26
ENDBRANCH   5  25
TORSDOF 8
