REMARK  Name = ZINC34755973
REMARK  8 active torsions:
REMARK  status: ('A' for Active; 'I' for Inactive)
REMARK    1  A    between atoms: C_1  and  C_2
REMARK    2  A    between atoms: C_2  and  C_3
REMARK    3  A    between atoms: C_3  and  S_4
REMARK    4  A    between atoms: S_4  and  C_5
REMARK    5  A    between atoms: N_21  and  C_24
REMARK    6  A    between atoms: C_24  and  C_25
REMARK    7  A    between atoms: N_27  and  C_28
REMARK    8  A    between atoms: N_27  and  C_29
REMARK                            x       y       z     vdW  Elec       q    Type
REMARK                         _______ _______ _______ _____ _____    ______ ____
ROOT
ATOM      1  C   UNL     1       1.578  -2.718  -2.764  0.00  0.00    +0.191 A 
ATOM      2  N   UNL     1       1.764  -3.994  -3.081  0.00  0.00    -0.206 NA
ATOM      3  C   UNL     1       2.402  -4.360  -4.179  0.00  0.00    +0.134 A 
ATOM      4  C   UNL     1       2.910  -3.360  -5.055  0.00  0.00    +0.051 A 
ATOM      5  C   UNL     1       3.642  -3.530  -6.312  0.00  0.00    -0.025 A 
ATOM      6  C   UNL     1       4.016  -2.408  -6.958  0.00  0.00    -0.004 A 
ATOM      7  S   UNL     1       3.424  -1.074  -5.951  0.00  0.00    -0.073 S 
ATOM      8  C   UNL     1       2.675  -2.029  -4.657  0.00  0.00    +0.115 A 
ATOM      9  N   UNL     1       2.023  -1.744  -3.546  0.00  0.00    -0.215 NA
ATOM     10  C   UNL     1       4.769  -2.312  -8.250  0.00  0.00    +0.043 C 
ATOM     11  C   UNL     1       5.386  -3.685  -8.554  0.00  0.00    +0.005 C 
ATOM     12  C   UNL     1       4.311  -4.759  -8.366  0.00  0.00    +0.005 C 
ATOM     13  C   UNL     1       3.978  -4.905  -6.880  0.00  0.00    +0.037 C 
ATOM     14  N   UNL     1       2.576  -5.700  -4.473  0.00  0.00    -0.318 N 
ATOM     15  C   UNL     1       3.815  -6.402  -4.101  0.00  0.00    +0.088 C 
ATOM     16  C   UNL     1       3.440  -7.690  -3.361  0.00  0.00    -0.059 C 
ATOM     17  N   UNL     1       2.521  -8.480  -4.190  0.00  0.00    +0.387 N 
ATOM     18  C   UNL     1       1.261  -7.750  -4.375  0.00  0.00    -0.059 C 
ATOM     19  C   UNL     1       1.525  -6.466  -5.161  0.00  0.00    +0.088 C 
ATOM     20  H   UNL     1       2.945  -8.651  -5.090  0.00  0.00    -0.081 HD
ENDROOT
BRANCH   1  21
ATOM     21  S   UNL     1       0.716  -2.311  -1.282  0.00  0.00    -0.086 S 
BRANCH  21  22
ATOM     22  C   UNL     1       0.696  -0.498  -1.270  0.00  0.00    +0.077 C 
BRANCH  22  24
ATOM     23  C   UNL     1      -0.050   1.526  -0.008  0.00  0.00    +0.004 C 
ATOM     24  C   UNL     1      -0.033  -0.004  -0.018  0.00  0.00    +0.008 C 
ENDBRANCH  22  24
ENDBRANCH  21  22
ENDBRANCH   1  21
BRANCH  17  25
ATOM     25  C   UNL     1       2.249  -9.764  -3.529  0.00  0.00    +0.019 C 
BRANCH  25  26
ATOM     26  C   UNL     1       1.406 -10.625  -4.434  0.00  0.00    +0.199 C 
ATOM     27  O   UNL     1       1.065 -10.211  -5.521  0.00  0.00    -0.278 OA
ATOM     28  N   UNL     1       1.030 -11.856  -4.033  0.00  0.00    -0.309 N 
ATOM     29  C   UNL     1       0.210 -12.694  -4.912  0.00  0.00    +0.131 C 
ATOM     30  C   UNL     1       1.441 -12.357  -2.719  0.00  0.00    +0.131 C 
ENDBRANCH  25  26
ENDBRANCH  17  25
TORSDOF 5
