REMARK  Name = ZINC03848832
REMARK  5 active torsions:
REMARK  status: ('A' for Active; 'I' for Inactive)
REMARK    1  A    between atoms: C_1  and  S_2
REMARK    2  A    between atoms: S_2  and  C_3
REMARK    3  A    between atoms: C_4  and  C_23
REMARK    4  A    between atoms: C_11  and  N_12
REMARK    5  A    between atoms: N_13  and  C_14
REMARK                            x       y       z     vdW  Elec       q    Type
REMARK                         _______ _______ _______ _____ _____    ______ ____
ROOT
ATOM      1  C   UNL     1       0.804  -0.557   1.470  0.00  0.00    +0.121 A 
ATOM      2  C   UNL     1       1.228   0.359   2.438  0.00  0.00    +0.123 A 
ATOM      3  C   UNL     1       1.868  -0.131   3.603  0.00  0.00    +0.139 A 
ATOM      4  N   UNL     1       2.051  -1.431   3.755  0.00  0.00    -0.210 NA
ATOM      5  C   UNL     1       1.646  -2.305   2.830  0.00  0.00    +0.188 A 
ATOM      6  N   UNL     1       1.018  -1.891   1.688  0.00  0.00    -0.203 N 
ATOM      7  N   UNL     1       0.708  -3.021   0.922  0.00  0.00    -0.147 NA
ATOM      8  C   UNL     1       1.114  -4.099   1.548  0.00  0.00    +0.168 A 
ATOM      9  C   UNL     1       1.725  -3.710   2.765  0.00  0.00    +0.171 A 
ATOM     10  N   UNL     1       0.976  -5.407   1.088  0.00  0.00    -0.340 N 
ATOM     11  N   UNL     1       2.300   0.747   4.577  0.00  0.00    -0.342 N 
ATOM     12  H   UNL     1       0.548  -5.579   0.235  0.00  0.00    +0.144 HD
ATOM     13  H   UNL     1       1.308  -6.146   1.622  0.00  0.00    +0.144 HD
ATOM     14  H   UNL     1       2.165   1.701   4.464  0.00  0.00    +0.144 HD
ATOM     15  H   UNL     1       2.738   0.410   5.374  0.00  0.00    +0.144 HD
ENDROOT
BRANCH   1  17
ATOM     16  C   UNL     1       1.160  -0.446  -1.323  0.00  0.00    +0.091 C 
ATOM     17  S   UNL     1       0.002  -0.004   0.002  0.00  0.00    -0.108 S 
ENDBRANCH   1  17
BRANCH   9  18
ATOM     18  N   UNL     1       2.268  -4.528   3.689  0.00  0.00    -0.142 NA
ATOM     19  N   UNL     1       2.272  -5.804   3.498  0.00  0.00    -0.149 NA
BRANCH  19  20
ATOM     20  C   UNL     1       2.823  -6.634   4.435  0.00  0.00    +0.086 A 
ATOM     21  C   UNL     1       3.376  -6.103   5.603  0.00  0.00    +0.032 A 
ATOM     22  C   UNL     1       3.929  -6.945   6.545  0.00  0.00    +0.040 A 
ATOM     23  C   UNL     1       3.938  -8.315   6.334  0.00  0.00    +0.124 A 
ATOM     24  C   UNL     1       3.390  -8.847   5.177  0.00  0.00    +0.040 A 
ATOM     25  C   UNL     1       2.829  -8.016   4.231  0.00  0.00    +0.032 A 
ATOM     26  F   UNL     1       4.482  -9.135   7.260  0.00  0.00    -0.205 F 
ENDBRANCH  19  20
ENDBRANCH   9  18
BRANCH   2  27
ATOM     27  C   UNL     1       1.021   1.764   2.254  0.00  0.00    +0.105 C 
ATOM     28  N   UNL     1       0.857   2.879   2.109  0.00  0.00    -0.191 NA
ENDBRANCH   2  27
TORSDOF 4
