REMARK  Name = ZINC05024333
REMARK  6 active torsions:
REMARK  status: ('A' for Active; 'I' for Inactive)
REMARK    1  A    between atoms: C_1  and  C_2
REMARK    2  A    between atoms: C_5  and  C_9
REMARK    3  A    between atoms: C_6  and  C_8
REMARK    4  A    between atoms: C_9  and  N_48
REMARK    5  A    between atoms: N_12  and  N_15
REMARK    6  A    between atoms: C_16  and  C_17
REMARK                            x       y       z     vdW  Elec       q    Type
REMARK                         _______ _______ _______ _____ _____    ______ ____
ROOT
ATOM      1  C   UNL     1       1.023   3.786   0.695  0.00  0.00    -0.058 C 
ATOM      2  C   UNL     1       1.040   3.304  -0.759  0.00  0.00    +0.107 C 
ATOM      3  N   UNL     1      -0.090   2.384  -0.960  0.00  0.00    -0.259 N 
ATOM      4  C   UNL     1      -1.430   2.829  -0.550  0.00  0.00    +0.107 C 
ATOM      5  C   UNL     1      -1.349   3.327   0.902  0.00  0.00    -0.058 C 
ATOM      6  N   UNL     1      -0.304   4.370   0.986  0.00  0.00    +0.384 N 
ATOM      7  H   UNL     1      -0.506   5.100   0.292  0.00  0.00    -0.081 HD
ENDROOT
BRANCH   3   8
ATOM      8  N   UNL     1       0.105   1.120  -1.532  0.00  0.00    -0.192 NA
ATOM      9  C   UNL     1       1.273   0.788  -1.990  0.00  0.00    +0.138 C 
BRANCH   9  10
ATOM     10  C   UNL     1       1.510  -0.582  -2.482  0.00  0.00    -0.005 A 
ATOM     11  C   UNL     1       0.480  -1.526  -2.451  0.00  0.00    +0.010 A 
ATOM     12  C   UNL     1       0.707  -2.804  -2.918  0.00  0.00    +0.016 A 
ATOM     13  C   UNL     1       1.954  -3.155  -3.406  0.00  0.00    +0.018 A 
ATOM     14  C   UNL     1       2.980  -2.226  -3.434  0.00  0.00    +0.016 A 
ATOM     15  C   UNL     1       2.765  -0.943  -2.976  0.00  0.00    +0.010 A 
ATOM     16 BR   UNL     1       2.258  -4.912  -4.037  0.00  0.00    -0.050 Br
ENDBRANCH   9  10
ENDBRANCH   3   8
BRANCH   6  17
ATOM     17  C   UNL     1      -0.304   4.977   2.333  0.00  0.00    -0.043 C 
BRANCH  17  22
ATOM     18  C   UNL     1      -5.639   6.820   3.570  0.00  0.00    +0.044 C 
ATOM     19  C   UNL     1      -4.248   6.339   3.247  0.00  0.00    -0.050 A 
ATOM     20  C   UNL     1      -3.738   5.222   3.882  0.00  0.00    +0.003 A 
ATOM     21  C   UNL     1      -2.462   4.782   3.587  0.00  0.00    +0.002 A 
ATOM     22  C   UNL     1      -1.696   5.457   2.655  0.00  0.00    -0.061 A 
ATOM     23  C   UNL     1      -2.204   6.577   2.024  0.00  0.00    -0.049 A 
ATOM     24  C   UNL     1      -3.482   7.015   2.316  0.00  0.00    +0.007 A 
ATOM     25  C   UNL     1      -1.366   7.317   1.013  0.00  0.00    +0.044 C 
ENDBRANCH  17  22
ENDBRANCH   6  17
TORSDOF 4
