REMARK  Name = ZINC59818968
REMARK  8 active torsions:
REMARK  status: ('A' for Active; 'I' for Inactive)
REMARK    1  A    between atoms: C_1  and  C_2
REMARK    2  A    between atoms: C_2  and  C_4
REMARK    3  A    between atoms: C_2  and  S_10
REMARK    4  A    between atoms: N_6  and  C_7
REMARK    5  A    between atoms: S_10  and  C_11
REMARK    6  A    between atoms: N_16  and  N_17
REMARK    7  A    between atoms: C_18  and  C_19
REMARK    8  A    between atoms: C_22  and  O_26
REMARK                            x       y       z     vdW  Elec       q    Type
REMARK                         _______ _______ _______ _____ _____    ______ ____
ROOT
ATOM      1  C   UNL     1       2.533  -0.042   1.241  0.00  0.00    +0.211 A 
ATOM      2  N   UNL     1       3.551  -0.257   2.081  0.00  0.00    -0.186 NA
ATOM      3  C   UNL     1       4.644   0.301   1.603  0.00  0.00    +0.232 A 
ATOM      4  N   UNL     1       4.333   0.890   0.429  0.00  0.00    -0.245 N 
ATOM      5  N   UNL     1       2.966   0.650   0.214  0.00  0.00    -0.144 NA
ATOM      6  N   UNL     1       5.892   0.285   2.199  0.00  0.00    -0.205 N 
ATOM      7  H   UNL     1       6.641   0.727   1.769  0.00  0.00    +0.177 HD
ATOM      8  H   UNL     1       4.935   1.380  -0.152  0.00  0.00    +0.192 HD
ENDROOT
BRANCH   6   9
ATOM      9  N   UNL     1       6.074  -0.368   3.425  0.00  0.00    -0.188 NA
ATOM     10  C   UNL     1       7.246  -0.383   3.985  0.00  0.00    +0.138 C 
BRANCH  10  11
ATOM     11  C   UNL     1       7.438  -1.070   5.275  0.00  0.00    -0.003 A 
ATOM     12  C   UNL     1       6.362  -1.712   5.894  0.00  0.00    +0.028 A 
ATOM     13  C   UNL     1       6.546  -2.354   7.100  0.00  0.00    +0.061 A 
ATOM     14  C   UNL     1       7.799  -2.363   7.701  0.00  0.00    +0.145 A 
ATOM     15  C   UNL     1       8.871  -1.726   7.089  0.00  0.00    +0.061 A 
ATOM     16  C   UNL     1       8.697  -1.087   5.879  0.00  0.00    +0.028 A 
ATOM     17 BR   UNL     1      10.574  -1.743   7.912  0.00  0.00    -0.046 Br
ATOM     18 BR   UNL     1       5.091  -3.223   7.939  0.00  0.00    -0.046 Br
BRANCH  14  19
ATOM     19  O   UNL     1       7.976  -2.996   8.890  0.00  0.00    -0.505 OA
ATOM     20  H   UNL     1       8.226  -3.926   8.807  0.00  0.00    +0.292 HD
ENDBRANCH  14  19
ENDBRANCH  10  11
ENDBRANCH   6   9
BRANCH   1  21
ATOM     21  S   UNL     1       0.879  -0.605   1.472  0.00  0.00    -0.072 S 
BRANCH  21  23
ATOM     22  C   UNL     1      -0.019   1.526   0.010  0.00  0.00    +0.029 C 
ATOM     23  C   UNL     1       0.002  -0.004   0.002  0.00  0.00    +0.137 C 
BRANCH  23  24
ATOM     24  C   UNL     1      -1.412  -0.526   0.013  0.00  0.00    +0.226 C 
ATOM     25  O   UNL     1      -1.939  -0.827   1.062  0.00  0.00    -0.275 OA
ATOM     26  N   UNL     1      -2.090  -0.657  -1.144  0.00  0.00    -0.312 N 
ATOM     27  H   UNL     1      -1.669  -0.416  -1.984  0.00  0.00    +0.149 HD
BRANCH  26  28
ATOM     28  C   UNL     1      -3.465  -1.164  -1.134  0.00  0.00    +0.073 C 
ATOM     29  C   UNL     1      -3.844  -2.198  -2.196  0.00  0.00    +0.024 C 
ATOM     30  C   UNL     1      -4.373  -0.766  -2.299  0.00  0.00    +0.024 C 
ENDBRANCH  26  28
ENDBRANCH  23  24
ENDBRANCH  21  23
ENDBRANCH   1  21
TORSDOF 7
