REMARK  Name = ZINC00203722
REMARK  3 active torsions:
REMARK  status: ('A' for Active; 'I' for Inactive)
REMARK    1  A    between atoms: C_1  and  C_2
REMARK    2  A    between atoms: C_2  and  C_18
REMARK    3  A    between atoms: N_9  and  C_10
REMARK                            x       y       z     vdW  Elec       q    Type
REMARK                         _______ _______ _______ _____ _____    ______ ____
ROOT
ATOM      1  C   UNL     1      -0.458   1.261   0.229  0.00  0.00    +0.053 C 
ATOM      2  C   UNL     1      -0.211  -0.247   0.160  0.00  0.00    +0.095 C 
ATOM      3  N   UNL     1       0.495  -0.582  -1.091  0.00  0.00    -0.296 N 
ATOM      4  C   UNL     1       1.091  -1.830  -1.166  0.00  0.00    +0.188 C 
ATOM      5  N   UNL     1       1.806  -2.240  -0.044  0.00  0.00    -0.260 N 
ATOM      6  C   UNL     1       1.247  -1.914   1.190  0.00  0.00    +0.181 C 
ATOM      7  N   UNL     1       0.649  -0.665   1.282  0.00  0.00    -0.297 N 
ATOM      8  N   UNL     1       1.282  -2.736   2.200  0.00  0.00    -0.272 NA
ATOM      9  N   UNL     1       0.986  -2.585  -2.234  0.00  0.00    -0.219 NA
ATOM     10  C   UNL     1      -1.544  -0.995   0.221  0.00  0.00    +0.053 C 
ATOM     11  H   UNL     1       0.540   0.046  -1.830  0.00  0.00    +0.151 HD
ATOM     12  H   UNL     1       0.884  -2.482   3.047  0.00  0.00    +0.189 HD
ATOM     13  H   UNL     1       0.792  -0.091   2.052  0.00  0.00    +0.151 HD
ATOM     14  H   UNL     1       2.644  -2.723  -0.118  0.00  0.00    +0.157 HD
ENDROOT
BRANCH   9  15
ATOM     15  C   UNL     1       1.491  -3.859  -2.225  0.00  0.00    +0.070 A 
ATOM     16  C   UNL     1       1.127  -4.750  -1.214  0.00  0.00    +0.031 A 
ATOM     17  C   UNL     1       1.638  -6.032  -1.208  0.00  0.00    +0.043 A 
ATOM     18  C   UNL     1       2.511  -6.436  -2.204  0.00  0.00    +0.159 A 
ATOM     19  C   UNL     1       2.877  -5.556  -3.212  0.00  0.00    +0.160 A 
ATOM     20  C   UNL     1       2.367  -4.272  -3.230  0.00  0.00    +0.069 A 
ATOM     21  F   UNL     1       3.730  -5.957  -4.180  0.00  0.00    -0.202 F 
ATOM     22  F   UNL     1       3.008  -7.692  -2.194  0.00  0.00    -0.202 F 
ENDBRANCH   9  15
TORSDOF 1
