REMARK  Name = ZINC38971585
REMARK  7 active torsions:
REMARK  status: ('A' for Active; 'I' for Inactive)
REMARK    1  A    between atoms: C_7  and  C_10
REMARK    2  A    between atoms: C_10  and  C_11
REMARK    3  A    between atoms: C_11  and  C_13
REMARK    4  A    between atoms: C_11  and  N_30
REMARK    5  A    between atoms: C_17  and  S_20
REMARK    6  A    between atoms: S_20  and  C_21
REMARK    7  A    between atoms: C_21  and  C_22
REMARK                            x       y       z     vdW  Elec       q    Type
REMARK                         _______ _______ _______ _____ _____    ______ ____
ROOT
ATOM      1  C   UNL     1      -5.101   5.058  -1.373  0.00  0.00    +0.188 C 
ATOM      2  N   UNL     1      -5.249   5.570  -2.761  0.00  0.00    -0.228 NA
ATOM      3  N   UNL     1      -5.309   7.026  -2.588  0.00  0.00    -0.218 NA
ATOM      4  C   UNL     1      -4.665   7.305  -1.287  0.00  0.00    +0.263 C 
ATOM      5  O   UNL     1      -4.242   6.038  -0.747  0.00  0.00    -0.334 OA
ATOM      6  H   UNL     1      -6.095   5.222  -3.186  0.00  0.00    +0.143 HD
ATOM      7  H   UNL     1      -6.264   7.353  -2.596  0.00  0.00    +0.144 HD
ENDROOT
BRANCH   1   8
ATOM      8  C   UNL     1      -4.437   3.680  -1.374  0.00  0.00    -0.025 C 
BRANCH   8   9
ATOM      9  N   UNL     1      -3.082   3.789  -1.931  0.00  0.00    +0.383 N 
ATOM     10  H   UNL     1      -2.537   4.425  -1.367  0.00  0.00    -0.089 HD
ATOM     11  H   UNL     1      -2.644   2.880  -1.931  0.00  0.00    -0.089 HD
ATOM     12  H   UNL     1      -3.134   4.138  -2.876  0.00  0.00    -0.089 HD
ENDBRANCH   8   9
BRANCH   8  13
ATOM     13  C   UNL     1      -4.358   3.151   0.060  0.00  0.00    +0.025 C 
BRANCH  13  20
ATOM     14  C   UNL     1      -0.017   1.384   0.010  0.00  0.00    +0.001 A 
ATOM     15  C   UNL     1       0.002  -0.004   0.002  0.00  0.00    +0.002 A 
ATOM     16  C   UNL     1      -1.173  -0.723   0.009  0.00  0.00    +0.026 A 
ATOM     17  C   UNL     1      -2.392  -0.053   0.024  0.00  0.00    +0.047 A 
ATOM     18  N   UNL     1      -3.704  -0.472   0.034  0.00  0.00    -0.360 N 
ATOM     19  C   UNL     1      -4.539   0.612   0.047  0.00  0.00    +0.087 A 
ATOM     20  C   UNL     1      -3.818   1.744   0.047  0.00  0.00    -0.024 A 
ATOM     21  C   UNL     1      -2.406   1.353   0.032  0.00  0.00    +0.003 A 
ATOM     22  C   UNL     1      -1.203   2.062   0.030  0.00  0.00    +0.010 A 
ATOM     23  H   UNL     1      -3.993  -1.398   0.030  0.00  0.00    +0.165 HD
ENDBRANCH  13  20
ENDBRANCH   8  13
ENDBRANCH   1   8
BRANCH   4  24
ATOM     24  S   UNL     1      -3.232   8.391  -1.526  0.00  0.00    -0.108 S 
BRANCH  24  25
ATOM     25  C   UNL     1      -2.166   7.466  -2.666  0.00  0.00    +0.111 C 
BRANCH  25  26
ATOM     26  C   UNL     1      -0.921   8.267  -2.951  0.00  0.00    -0.001 A 
ATOM     27  C   UNL     1      -0.899   9.156  -4.010  0.00  0.00    +0.046 A 
ATOM     28  C   UNL     1       0.244   9.891  -4.272  0.00  0.00    +0.020 A 
ATOM     29  C   UNL     1       1.363   9.736  -3.475  0.00  0.00    +0.003 A 
ATOM     30  C   UNL     1       1.341   8.848  -2.417  0.00  0.00    +0.020 A 
ATOM     31  C   UNL     1       0.197   8.117  -2.151  0.00  0.00    +0.046 A 
ATOM     32 CL   UNL     1       0.167   7.006  -0.816  0.00  0.00    -0.083 Cl
ATOM     33 CL   UNL     1      -2.304   9.350  -5.011  0.00  0.00    -0.083 Cl
ENDBRANCH  25  26
ENDBRANCH  24  25
ENDBRANCH   4  24
TORSDOF 7
