REMARK  Name = ZINC42014796
REMARK  5 active torsions:
REMARK  status: ('A' for Active; 'I' for Inactive)
REMARK    1  A    between atoms: C_3  and  C_9
REMARK    2  A    between atoms: C_4  and  N_8
REMARK    3  A    between atoms: C_6  and  N_7
REMARK    4  A    between atoms: N_13  and  C_14
REMARK    5  A    between atoms: C_14  and  C_15
REMARK                            x       y       z     vdW  Elec       q    Type
REMARK                         _______ _______ _______ _____ _____    ______ ____
ROOT
ATOM      1  C   UNL     1       0.235   0.977  -1.003  0.00  0.00    +0.023 A 
ATOM      2  C   UNL     1       1.427   1.668  -1.013  0.00  0.00    +0.015 A 
ATOM      3  C   UNL     1       2.397   1.400  -0.045  0.00  0.00    +0.041 A 
ATOM      4  C   UNL     1       2.153   0.427   0.935  0.00  0.00    +0.037 A 
ATOM      5  C   UNL     1       0.951  -0.262   0.937  0.00  0.00    +0.046 A 
ATOM      6  C   UNL     1      -0.007   0.011  -0.030  0.00  0.00    +0.026 A 
ENDROOT
BRANCH   3   7
ATOM      7  C   UNL     1       3.676   2.139  -0.054  0.00  0.00    +0.184 A 
ATOM      8  N   UNL     1       4.884   1.618   0.026  0.00  0.00    -0.108 NA
ATOM      9  N   UNL     1       5.775   2.542  -0.010  0.00  0.00    -0.023 NA
ATOM     10  N   UNL     1       5.222   3.701  -0.114  0.00  0.00    -0.044 NA
ATOM     11  N   UNL     1       3.833   3.489  -0.153  0.00  0.00    -0.223 N 
BRANCH  11  12
ATOM     12  C   UNL     1       2.780   4.501  -0.272  0.00  0.00    +0.179 C 
BRANCH  12  13
ATOM     13  C   UNL     1       2.455   5.064   1.114  0.00  0.00    +0.140 C 
ATOM     14  C   UNL     1       1.409   6.201   1.001  0.00  0.00    +0.035 C 
ATOM     15  C   UNL     1       0.774   6.159   2.417  0.00  0.00    +0.031 C 
ATOM     16  C   UNL     1       0.825   4.653   2.755  0.00  0.00    +0.160 C 
ATOM     17  O   UNL     1       1.832   4.057   1.927  0.00  0.00    -0.375 OA
ENDBRANCH  12  13
ENDBRANCH  11  12
ENDBRANCH   3   7
BRANCH   6  18
ATOM     18  N   UNL     1      -1.215  -0.684  -0.027  0.00  0.00    -0.358 N 
ATOM     19  H   UNL     1      -1.886  -0.494  -0.702  0.00  0.00    +0.142 HD
ATOM     20  H   UNL     1      -1.386  -1.357   0.650  0.00  0.00    +0.142 HD
ENDBRANCH   6  18
BRANCH   4  21
ATOM     21  N   UNL     1       3.117   0.154   1.904  0.00  0.00    -0.357 N 
ATOM     22  H   UNL     1       3.918   0.698   1.957  0.00  0.00    +0.142 HD
ATOM     23  H   UNL     1       2.986  -0.579   2.525  0.00  0.00    +0.142 HD
ENDBRANCH   4  21
TORSDOF 5
