REMARK  Name = ZINC21589558
REMARK  7 active torsions:
REMARK  status: ('A' for Active; 'I' for Inactive)
REMARK    1  A    between atoms: C_1  and  C_2
REMARK    2  A    between atoms: C_4  and  O_5
REMARK    3  A    between atoms: C_14  and  C_16
REMARK    4  A    between atoms: N_21  and  S_23
REMARK    5  A    between atoms: S_23  and  C_26
REMARK    6  A    between atoms: C_29  and  O_32
REMARK    7  A    between atoms: O_32  and  C_33
REMARK                            x       y       z     vdW  Elec       q    Type
REMARK                         _______ _______ _______ _____ _____    ______ ____
ROOT
ATOM      1  C   UNL     1       1.737   9.661   8.970  0.00  0.00    +0.045 C 
ATOM      2  C   UNL     1       0.749   9.464   7.850  0.00  0.00    -0.033 A 
ATOM      3  C   UNL     1       0.004  10.502   7.387  0.00  0.00    +0.091 A 
ATOM      4  C   UNL     1      -0.914  10.292   6.337  0.00  0.00    +0.285 A 
ATOM      5  O   UNL     1      -1.078   9.085   5.773  0.00  0.00    -0.425 OA
ATOM      6  C   UNL     1      -0.369   8.012   6.186  0.00  0.00    +0.141 A 
ATOM      7  C   UNL     1       0.565   8.150   7.231  0.00  0.00    +0.021 A 
ATOM      8  C   UNL     1       1.303   7.041   7.662  0.00  0.00    +0.013 A 
ATOM      9  C   UNL     1       1.113   5.828   7.068  0.00  0.00    +0.024 A 
ATOM     10  C   UNL     1       0.189   5.685   6.033  0.00  0.00    +0.037 A 
ATOM     11  C   UNL     1      -0.546   6.774   5.590  0.00  0.00    +0.070 A 
ATOM     12  N   UNL     1       0.007   4.437   5.435  0.00  0.00    -0.285 N 
ATOM     13  C   UNL     1      -0.257   4.354   4.116  0.00  0.00    +0.222 C 
ATOM     14  O   UNL     1      -0.417   5.365   3.465  0.00  0.00    -0.275 OA
ATOM     15  H   UNL     1       0.079   3.521   6.040  0.00  0.00    +0.155 HD
ENDROOT
BRANCH  13  16
ATOM     16  C   UNL     1      -0.352   3.006   3.450  0.00  0.00    +0.091 C 
ATOM     17  C   UNL     1      -1.472   2.192   4.103  0.00  0.00    +0.015 C 
ATOM     18  C   UNL     1      -1.548   0.810   3.449  0.00  0.00    +0.018 C 
ATOM     19  C   UNL     1      -1.872   0.971   1.960  0.00  0.00    +0.109 C 
ATOM     20  N   UNL     1      -0.881   1.871   1.355  0.00  0.00    -0.176 NA
ATOM     21  C   UNL     1      -0.659   3.189   1.965  0.00  0.00    +0.122 C 
BRANCH  20  22
ATOM     22  S   UNL     1      -0.025   1.405   0.016  0.00  0.00    +0.061 S 
ATOM     23  O   UNL     1      -0.020  -0.015   0.011  0.00  0.00    -0.153 OA
ATOM     24  O   UNL     1       1.171   2.172   0.012  0.00  0.00    -0.153 OA
BRANCH  22  25
ATOM     25  C   UNL     1      -0.952   1.910  -1.395  0.00  0.00    +0.106 A 
ATOM     26  C   UNL     1      -1.883   1.054  -1.952  0.00  0.00    +0.032 A 
ATOM     27  C   UNL     1      -2.615   1.449  -3.055  0.00  0.00    +0.047 A 
ATOM     28  C   UNL     1      -2.406   2.703  -3.611  0.00  0.00    +0.120 A 
ATOM     29  C   UNL     1      -1.466   3.558  -3.054  0.00  0.00    +0.047 A 
ATOM     30  C   UNL     1      -0.741   3.160  -1.948  0.00  0.00    +0.032 A 
BRANCH  28  31
ATOM     31  O   UNL     1      -3.120   3.092  -4.699  0.00  0.00    -0.495 OA
ATOM     32  C   UNL     1      -4.070   2.160  -5.220  0.00  0.00    +0.277 C 
ENDBRANCH  28  31
ENDBRANCH  22  25
ENDBRANCH  20  22
ENDBRANCH  13  16
BRANCH   4  33
ATOM     33  O   UNL     1      -1.575  11.231   5.931  0.00  0.00    -0.480 OA
ATOM     34  H   UNL     1      -2.296  11.084   5.113  0.00  0.00    +0.295 HD
ENDBRANCH   4  33
TORSDOF 5
