REMARK  Name = ZINC38597810
REMARK  11 active torsions:
REMARK  status: ('A' for Active; 'I' for Inactive)
REMARK    1  A    between atoms: C_1  and  C_2
REMARK    2  A    between atoms: C_4  and  C_35
REMARK    3  A    between atoms: C_5  and  C_34
REMARK    4  A    between atoms: C_6  and  S_9
REMARK    5  A    between atoms: C_7  and  C_8
REMARK    6  A    between atoms: S_9  and  N_12
REMARK    7  A    between atoms: N_12  and  C_13
REMARK    8  A    between atoms: C_13  and  C_14
REMARK    9  A    between atoms: C_14  and  C_16
REMARK   10  A    between atoms: C_14  and  N_21
REMARK   11  A    between atoms: N_24  and  C_27
REMARK                            x       y       z     vdW  Elec       q    Type
REMARK                         _______ _______ _______ _____ _____    ______ ____
ROOT
ATOM      1  C   UNL     1       3.376  -2.632   4.116  0.00  0.00    +0.015 C 
ENDROOT
BRANCH   1   2
ATOM      2  N   UNL     1       3.744  -3.853   3.387  0.00  0.00    +0.389 N 
ATOM      3  C   UNL     1       4.898  -4.483   4.041  0.00  0.00    -0.059 C 
ATOM      4  C   UNL     1       5.354  -5.692   3.218  0.00  0.00    +0.086 C 
ATOM      5  N   UNL     1       4.202  -6.587   3.027  0.00  0.00    -0.333 N 
ATOM      6  C   UNL     1       2.947  -6.004   2.526  0.00  0.00    +0.086 C 
ATOM      7  C   UNL     1       2.605  -4.780   3.382  0.00  0.00    -0.059 C 
ATOM      8  H   UNL     1       3.987  -3.616   2.437  0.00  0.00    -0.081 HD
BRANCH   5   9
ATOM      9  C   UNL     1       4.296  -7.952   3.312  0.00  0.00    +0.030 A 
ATOM     10  C   UNL     1       3.239  -8.800   3.012  0.00  0.00    +0.026 A 
ATOM     11  C   UNL     1       3.335 -10.149   3.295  0.00  0.00    +0.040 A 
ATOM     12  C   UNL     1       4.485 -10.655   3.877  0.00  0.00    +0.124 A 
ATOM     13  C   UNL     1       5.540  -9.811   4.177  0.00  0.00    +0.040 A 
ATOM     14  C   UNL     1       5.451  -8.463   3.892  0.00  0.00    +0.026 A 
ATOM     15  F   UNL     1       4.576 -11.975   4.153  0.00  0.00    -0.205 F 
ENDBRANCH   5   9
ENDBRANCH   1   2
BRANCH   1  16
ATOM     16  C   UNL     1       4.529  -1.662   4.085  0.00  0.00    +0.093 A 
ATOM     17  C   UNL     1       4.936  -0.892   5.110  0.00  0.00    +0.043 A 
ATOM     18  C   UNL     1       6.042  -0.142   4.645  0.00  0.00    +0.041 A 
ATOM     19  C   UNL     1       6.244  -0.500   3.364  0.00  0.00    +0.195 A 
ATOM     20  O   UNL     1       5.328  -1.425   3.032  0.00  0.00    -0.469 OA
ENDBRANCH   1  16
BRANCH   1  21
ATOM     21  C   UNL     1       2.154  -1.992   3.454  0.00  0.00    +0.098 C 
BRANCH  21  22
ATOM     22  N   UNL     1       2.419  -1.793   2.027  0.00  0.00    -0.191 NA
ATOM     23  H   UNL     1       3.323  -1.879   1.685  0.00  0.00    +0.148 HD
BRANCH  22  24
ATOM     24  S   UNL     1       1.176  -1.420   0.998  0.00  0.00    +0.059 S 
ATOM     25  O   UNL     1       0.136  -2.352   1.263  0.00  0.00    -0.153 OA
ATOM     26  O   UNL     1       1.750  -1.266  -0.292  0.00  0.00    -0.153 OA
BRANCH  24  32
ATOM     27  C   UNL     1       1.248   3.798   0.710  0.00  0.00    +0.044 C 
ATOM     28  C   UNL     1       0.642   2.550   1.301  0.00  0.00    -0.045 A 
ATOM     29  C   UNL     1      -0.391   2.649   2.213  0.00  0.00    +0.007 A 
ATOM     30  C   UNL     1      -0.946   1.504   2.755  0.00  0.00    -0.045 A 
ATOM     31  C   UNL     1      -0.468   0.262   2.384  0.00  0.00    -0.021 A 
ATOM     32  C   UNL     1       0.566   0.164   1.471  0.00  0.00    +0.112 A 
ATOM     33  C   UNL     1       1.118   1.308   0.926  0.00  0.00    -0.021 A 
ATOM     34  C   UNL     1       2.241   1.200  -0.073  0.00  0.00    +0.046 C 
ATOM     35  C   UNL     1      -1.072  -0.986   2.975  0.00  0.00    +0.046 C 
ATOM     36  C   UNL     1      -2.073   1.612   3.750  0.00  0.00    +0.044 C 
ENDBRANCH  24  32
ENDBRANCH  22  24
ENDBRANCH  21  22
ENDBRANCH   1  21
TORSDOF 7
