REMARK  Name = ZINC49159378
REMARK  8 active torsions:
REMARK  status: ('A' for Active; 'I' for Inactive)
REMARK    1  A    between atoms: C_1  and  C_2
REMARK    2  A    between atoms: C_5  and  C_7
REMARK    3  A    between atoms: C_7  and  C_9
REMARK    4  A    between atoms: C_7  and  N_10
REMARK    5  A    between atoms: N_10  and  C_11
REMARK    6  A    between atoms: C_11  and  C_13
REMARK    7  A    between atoms: C_11  and  C_14
REMARK    8  A    between atoms: C_19  and  N_20
REMARK                            x       y       z     vdW  Elec       q    Type
REMARK                         _______ _______ _______ _____ _____    ______ ____
ROOT
ATOM      1  C   UNL     1       2.405  -5.520   1.345  0.00  0.00    +0.084 C 
ATOM      2  C   UNL     1       1.534  -5.754   2.581  0.00  0.00    +0.029 C 
ENDROOT
BRANCH   1   3
ATOM      3  C   UNL     1       3.853  -5.727   1.704  0.00  0.00    -0.001 A 
ATOM      4  C   UNL     1       4.668  -4.638   1.950  0.00  0.00    +0.007 A 
ATOM      5  C   UNL     1       5.996  -4.828   2.280  0.00  0.00    +0.000 A 
ATOM      6  C   UNL     1       6.511  -6.108   2.364  0.00  0.00    +0.002 A 
ATOM      7  C   UNL     1       5.697  -7.198   2.119  0.00  0.00    +0.033 A 
ATOM      8  C   UNL     1       4.367  -7.008   1.794  0.00  0.00    +0.131 A 
BRANCH   8   9
ATOM      9  N   UNL     1       3.493  -8.175   1.537  0.00  0.00    +0.057 N 
ATOM     10  O   UNL     1       3.917  -9.295   1.703  0.00  0.00    -0.126 OA
ATOM     11  O   UNL     1       2.357  -8.008   1.161  0.00  0.00    -0.126 OA
ENDBRANCH   8   9
ENDBRANCH   1   3
BRANCH   1  12
ATOM     12  N   UNL     1       2.212  -4.145   0.864  0.00  0.00    -0.303 NA
ATOM     13  H   UNL     1       3.041  -3.804   0.402  0.00  0.00    +0.123 HD
BRANCH  12  14
ATOM     14  C   UNL     1       1.042  -4.057  -0.021  0.00  0.00    +0.088 C 
ATOM     15  C   UNL     1       1.452  -4.429  -1.447  0.00  0.00    +0.029 C 
BRANCH  14  20
ATOM     16  C   UNL     1      -0.026   1.506   0.042  0.00  0.00    +0.051 C 
ATOM     17  C   UNL     1      -0.004  -0.001   0.027  0.00  0.00    -0.013 A 
ATOM     18  C   UNL     1      -1.044  -0.870   0.021  0.00  0.00    +0.011 A 
ATOM     19  C   UNL     1      -0.783  -2.227   0.006  0.00  0.00    +0.013 A 
ATOM     20  C   UNL     1       0.505  -2.649  -0.004  0.00  0.00    +0.007 A 
ATOM     21  S   UNL     1       1.400  -1.104   0.002  0.00  0.00    -0.097 S 
ENDBRANCH  14  20
ENDBRANCH  12  14
ENDBRANCH   1  12
TORSDOF 5
