REMARK  Name = ZINC03551783
REMARK  15 active torsions:
REMARK  status: ('A' for Active; 'I' for Inactive)
REMARK    1  A    between atoms: C_1  and  C_2
REMARK    2  A    between atoms: C_2  and  C_3
REMARK    3  A    between atoms: C_3  and  C_5
REMARK    4  A    between atoms: C_3  and  N_62
REMARK    5  A    between atoms: C_8  and  S_17
REMARK    6  A    between atoms: N_9  and  C_10
REMARK    7  A    between atoms: C_10  and  C_11
REMARK    8  A    between atoms: S_17  and  C_18
REMARK    9  A    between atoms: C_18  and  C_19
REMARK   10  A    between atoms: C_19  and  C_21
REMARK   11  A    between atoms: C_22  and  N_31
REMARK   12  A    between atoms: N_23  and  C_30
REMARK   13  A    between atoms: N_26  and  C_29
REMARK   14  A    between atoms: C_32  and  N_62
REMARK   15  A    between atoms: C_33  and  N_62
REMARK                            x       y       z     vdW  Elec       q    Type
REMARK                         _______ _______ _______ _____ _____    ______ ____
ROOT
ATOM      1  C   UNL     1      -3.043   1.802  -0.001  0.00  0.00    +0.121 A 
ATOM      2  N   UNL     1      -3.447   1.622   1.225  0.00  0.00    -0.135 NA
ATOM      3  N   UNL     1      -4.625   2.111   1.378  0.00  0.00    -0.123 NA
ATOM      4  C   UNL     1      -5.039   2.639   0.249  0.00  0.00    +0.192 A 
ATOM      5  N   UNL     1      -4.041   2.461  -0.665  0.00  0.00    -0.303 N 
ENDROOT
BRANCH   1   6
ATOM      6  C   UNL     1      -1.721   1.367  -0.579  0.00  0.00    +0.000 C 
BRANCH   6   9
ATOM      7  C   UNL     1      -2.517  -0.919  -0.549  0.00  0.00    -0.096 C 
ATOM      8  C   UNL     1      -0.143  -0.466  -0.697  0.00  0.00    -0.096 C 
ATOM      9  N   UNL     1      -1.430  -0.010  -0.129  0.00  0.00    +0.383 N 
ATOM     10  H   UNL     1      -1.365  -0.020   0.895  0.00  0.00    -0.082 HD
ENDBRANCH   6   9
BRANCH   6  12
ATOM     11  C   UNL     1      -0.561   2.248   1.451  0.00  0.00    +0.002 C 
ATOM     12  C   UNL     1      -0.615   2.297  -0.077  0.00  0.00    -0.011 C 
ENDBRANCH   6  12
ENDBRANCH   1   6
BRANCH   5  13
ATOM     13  C   UNL     1      -4.041   2.883  -2.068  0.00  0.00    +0.160 C 
BRANCH  13  14
ATOM     14  C   UNL     1      -3.474   4.275  -2.174  0.00  0.00    -0.028 A 
ATOM     15  C   UNL     1      -2.117   4.457  -2.360  0.00  0.00    +0.005 A 
ATOM     16  C   UNL     1      -1.598   5.734  -2.463  0.00  0.00    +0.000 A 
ATOM     17  C   UNL     1      -2.436   6.829  -2.375  0.00  0.00    +0.000 A 
ATOM     18  C   UNL     1      -3.793   6.648  -2.183  0.00  0.00    +0.000 A 
ATOM     19  C   UNL     1      -4.312   5.371  -2.080  0.00  0.00    +0.005 A 
ENDBRANCH  13  14
ENDBRANCH   5  13
BRANCH   4  20
ATOM     20  S   UNL     1      -6.589   3.428  -0.032  0.00  0.00    -0.078 S 
BRANCH  20  21
ATOM     21  C   UNL     1      -7.327   3.267   1.613  0.00  0.00    +0.157 C 
BRANCH  21  22
ATOM     22  C   UNL     1      -8.698   3.891   1.611  0.00  0.00    +0.182 C 
ATOM     23  O   UNL     1      -9.135   4.396   0.597  0.00  0.00    -0.291 OA
BRANCH  22  24
ATOM     24  C   UNL     1      -9.476   3.889   2.789  0.00  0.00    +0.120 A 
ATOM     25  C   UNL     1     -10.804   4.350   2.783  0.00  0.00    +0.116 A 
ATOM     26  N   UNL     1     -11.518   4.324   3.946  0.00  0.00    -0.284 N 
ATOM     27  C   UNL     1     -10.973   3.879   5.090  0.00  0.00    +0.333 A 
ATOM     28  O   UNL     1     -11.649   3.880   6.100  0.00  0.00    -0.246 OA
ATOM     29  N   UNL     1      -9.708   3.432   5.158  0.00  0.00    -0.263 N 
ATOM     30  C   UNL     1      -8.921   3.412   4.062  0.00  0.00    +0.269 A 
ATOM     31  O   UNL     1      -7.775   3.007   4.128  0.00  0.00    -0.267 OA
ATOM     32  C   UNL     1      -9.177   2.960   6.439  0.00  0.00    +0.157 C 
ATOM     33  C   UNL     1     -12.905   4.796   3.949  0.00  0.00    +0.155 C 
BRANCH  25  34
ATOM     34  N   UNL     1     -11.371   4.809   1.634  0.00  0.00    -0.344 N 
ATOM     35  H   UNL     1     -11.035   4.511   0.774  0.00  0.00    +0.144 HD
ATOM     36  H   UNL     1     -12.110   5.436   1.675  0.00  0.00    +0.144 HD
ENDBRANCH  25  34
ENDBRANCH  22  24
ENDBRANCH  21  22
ENDBRANCH  20  21
ENDBRANCH   4  20
TORSDOF 10
