REMARK  Name = ZINC06780082
REMARK  4 active torsions:
REMARK  status: ('A' for Active; 'I' for Inactive)
REMARK    1  A    between atoms: C_1  and  C_2
REMARK    2  A    between atoms: N_5  and  S_8
REMARK    3  A    between atoms: S_8  and  C_11
REMARK    4  A    between atoms: C_17  and  C_19
REMARK                            x       y       z     vdW  Elec       q    Type
REMARK                         _______ _______ _______ _____ _____    ______ ____
ROOT
ATOM      1  C   UNL     1      -8.979   0.143  -1.238  0.00  0.00    +0.256 A 
ATOM      2  N   UNL     1      -8.277  -0.254  -0.195  0.00  0.00    -0.119 NA
ATOM      3  N   UNL     1      -7.072   0.099  -0.058  0.00  0.00    -0.124 NA
ATOM      4  C   UNL     1      -6.467   0.873  -0.942  0.00  0.00    +0.189 A 
ATOM      5  S   UNL     1      -7.752   1.130  -2.086  0.00  0.00    -0.011 S 
ATOM      6  N   UNL     1      -5.162   1.355  -0.952  0.00  0.00    -0.263 N 
ATOM      7  C   UNL     1      -4.318   1.035   0.049  0.00  0.00    +0.225 C 
ATOM      8  O   UNL     1      -4.697   0.327   0.958  0.00  0.00    -0.275 OA
ATOM      9  H   UNL     1      -4.859   1.920  -1.680  0.00  0.00    +0.157 HD
ENDROOT
BRANCH   7  10
ATOM     10  C   UNL     1      -2.904   1.556   0.038  0.00  0.00    +0.048 C 
ATOM     11  C   UNL     1      -2.188   1.063  -1.221  0.00  0.00    +0.019 C 
ATOM     12  C   UNL     1      -0.753   1.593  -1.232  0.00  0.00    -0.009 C 
ATOM     13  C   UNL     1      -0.013   1.086   0.008  0.00  0.00    +0.007 C 
ATOM     14  C   UNL     1      -0.729   1.579   1.267  0.00  0.00    -0.009 C 
ATOM     15  C   UNL     1      -2.164   1.050   1.278  0.00  0.00    +0.019 C 
ATOM     16  C   UNL     1      -0.750   3.109   1.275  0.00  0.00    +0.007 C 
ATOM     17  C   UNL     1      -1.490   3.616   0.036  0.00  0.00    -0.009 C 
ATOM     18  C   UNL     1      -0.773   3.123  -1.223  0.00  0.00    +0.007 C 
ATOM     19  C   UNL     1      -2.925   3.086   0.047  0.00  0.00    +0.019 C 
ENDBRANCH   7  10
BRANCH   1  20
ATOM     20  S   UNL     1     -10.653  -0.196  -1.669  0.00  0.00    +0.086 S 
ATOM     21  O   UNL     1     -11.453   0.742  -0.962  0.00  0.00    -0.151 OA
ATOM     22  O   UNL     1     -10.692  -0.316  -3.084  0.00  0.00    -0.151 OA
BRANCH  20  27
ATOM     23  C   UNL     1     -13.888  -4.793  -0.538  0.00  0.00    +0.007 C 
ATOM     24  C   UNL     1     -12.601  -3.967  -0.488  0.00  0.00    -0.012 C 
ATOM     25  C   UNL     1     -12.876  -2.638   0.218  0.00  0.00    +0.020 C 
ATOM     26  C   UNL     1     -11.577  -1.828   0.296  0.00  0.00    +0.110 C 
ATOM     27  N   UNL     1     -11.024  -1.690  -1.058  0.00  0.00    -0.175 NA
ATOM     28  C   UNL     1     -10.810  -2.901  -1.861  0.00  0.00    +0.110 C 
ATOM     29  C   UNL     1     -12.112  -3.699  -1.913  0.00  0.00    +0.020 C 
ENDBRANCH  20  27
ENDBRANCH   1  20
TORSDOF 3
