REMARK  Name = ZINC63376020
REMARK  5 active torsions:
REMARK  status: ('A' for Active; 'I' for Inactive)
REMARK    1  A    between atoms: C_4  and  C_7
REMARK    2  A    between atoms: C_7  and  C_8
REMARK    3  A    between atoms: C_8  and  N_9
REMARK    4  A    between atoms: C_14  and  C_31
REMARK    5  A    between atoms: C_31  and  C_32
REMARK                            x       y       z     vdW  Elec       q    Type
REMARK                         _______ _______ _______ _____ _____    ______ ____
ROOT
ATOM      1  N   UNL     1       5.450  -1.678   1.382  0.00  0.00    -0.241 N 
ATOM      2  C   UNL     1       5.532  -3.014   1.369  0.00  0.00    +0.227 C 
ATOM      3  O   UNL     1       4.587  -3.774   1.374  0.00  0.00    -0.275 OA
ATOM      4  C   UNL     1       6.985  -3.428   1.347  0.00  0.00    +0.107 C 
ATOM      5  C   UNL     1       7.340  -4.118   2.681  0.00  0.00    +0.072 C 
ATOM      6  N   UNL     1       7.720  -3.009   3.595  0.00  0.00    -0.295 NA
ATOM      7  C   UNL     1       8.468  -2.072   2.737  0.00  0.00    +0.136 C 
ATOM      8  C   UNL     1       7.745  -2.072   1.366  0.00  0.00    +0.122 C 
ATOM      9  C   UNL     1       6.630  -1.049   1.373  0.00  0.00    +0.228 C 
ATOM     10  O   UNL     1       6.783   0.153   1.373  0.00  0.00    -0.275 OA
ATOM     11  C   UNL     1       9.906  -2.481   2.595  0.00  0.00    +0.003 A 
ATOM     12  C   UNL     1      10.527  -3.615   2.120  0.00  0.00    +0.008 A 
ATOM     13  C   UNL     1      11.908  -3.698   2.118  0.00  0.00    +0.000 A 
ATOM     14  C   UNL     1      12.662  -2.641   2.594  0.00  0.00    +0.002 A 
ATOM     15  C   UNL     1      12.045  -1.504   3.070  0.00  0.00    +0.023 A 
ATOM     16  C   UNL     1      10.655  -1.411   3.076  0.00  0.00    +0.039 A 
ATOM     17  N   UNL     1       9.811  -0.383   3.500  0.00  0.00    -0.283 N 
ATOM     18  C   UNL     1       8.510  -0.692   3.335  0.00  0.00    +0.243 C 
ATOM     19  O   UNL     1       7.558   0.006   3.615  0.00  0.00    -0.273 OA
ATOM     20  H   UNL     1       6.902  -2.566   3.987  0.00  0.00    +0.124 HD
ATOM     21  H   UNL     1      10.124   0.457   3.871  0.00  0.00    +0.155 HD
ENDROOT
BRANCH   1  22
ATOM     22  C   UNL     1       4.171  -0.963   1.399  0.00  0.00    +0.121 C 
BRANCH  22  23
ATOM     23  C   UNL     1       3.711  -0.707  -0.038  0.00  0.00    +0.054 C 
BRANCH  23  27
ATOM     24  C   UNL     1      -0.017   1.378   0.010  0.00  0.00    +0.000 A 
ATOM     25  C   UNL     1       1.171   2.086   0.002  0.00  0.00    +0.000 A 
ATOM     26  C   UNL     1       2.377   1.411  -0.013  0.00  0.00    +0.004 A 
ATOM     27  C   UNL     1       2.396   0.029  -0.020  0.00  0.00    -0.046 A 
ATOM     28  C   UNL     1       1.208  -0.679  -0.012  0.00  0.00    +0.004 A 
ATOM     29  C   UNL     1       0.002  -0.004   0.002  0.00  0.00    +0.000 A 
ENDBRANCH  23  27
ENDBRANCH  22  23
ENDBRANCH   1  22
BRANCH   5  30
ATOM     30  C   UNL     1       6.127  -4.872   3.229  0.00  0.00    +0.052 C 
BRANCH  30  31
ATOM     31  C   UNL     1       6.528  -5.637   4.464  0.00  0.00    -0.040 C 
ATOM     32  C   UNL     1       6.397  -5.234   5.749  0.00  0.00    -0.001 A 
ATOM     33  C   UNL     1       5.866  -4.008   6.357  0.00  0.00    +0.010 A 
ATOM     34  C   UNL     1       5.869  -3.890   7.704  0.00  0.00    +0.001 A 
ATOM     35  C   UNL     1       6.366  -4.906   8.532  0.00  0.00    +0.002 A 
ATOM     36  C   UNL     1       6.871  -6.060   8.047  0.00  0.00    +0.026 A 
ATOM     37  C   UNL     1       6.917  -6.292   6.645  0.00  0.00    +0.043 A 
ATOM     38  N   UNL     1       7.351  -7.309   5.942  0.00  0.00    -0.380 N 
ATOM     39  C   UNL     1       7.150  -7.014   4.518  0.00  0.00    +0.144 C 
ATOM     40  H   UNL     1       7.736  -8.123   6.302  0.00  0.00    +0.160 HD
ENDBRANCH  30  31
ENDBRANCH   5  30
TORSDOF 5
