REMARK  Name = ZINC14531554
REMARK  13 active torsions:
REMARK  status: ('A' for Active; 'I' for Inactive)
REMARK    1  A    between atoms: C_1  and  C_2
REMARK    2  A    between atoms: C_2  and  C_3
REMARK    3  A    between atoms: C_3  and  C_5
REMARK    4  A    between atoms: C_3  and  N_6
REMARK    5  A    between atoms: N_6  and  C_7
REMARK    6  A    between atoms: C_10  and  N_32
REMARK    7  A    between atoms: C_11  and  C_28
REMARK    8  A    between atoms: N_12  and  C_16
REMARK    9  A    between atoms: C_16  and  C_17
REMARK   10  A    between atoms: C_17  and  C_18
REMARK   11  A    between atoms: C_28  and  O_30
REMARK   12  A    between atoms: O_30  and  C_31
REMARK   13  A    between atoms: C_33  and  C_35
REMARK                            x       y       z     vdW  Elec       q    Type
REMARK                         _______ _______ _______ _____ _____    ______ ____
ROOT
ATOM      1  C   UNL     1       7.849   0.354  -0.394  0.00  0.00    +0.046 A 
ATOM      2  C   UNL     1       8.420   1.579  -0.708  0.00  0.00    +0.038 A 
ATOM      3  C   UNL     1       7.577   2.602  -1.155  0.00  0.00    +0.043 A 
ATOM      4  C   UNL     1       7.801   3.987  -1.570  0.00  0.00    +0.075 A 
ATOM      5  C   UNL     1       6.566   4.498  -1.914  0.00  0.00    +0.151 A 
ATOM      6  N   UNL     1       5.604   3.515  -1.726  0.00  0.00    -0.318 N 
ATOM      7  C   UNL     1       6.194   2.360  -1.272  0.00  0.00    +0.143 A 
ATOM      8  N   UNL     1       5.703   1.168  -0.957  0.00  0.00    -0.235 NA
ATOM      9  C   UNL     1       6.473   0.189  -0.533  0.00  0.00    +0.136 A 
ENDROOT
BRANCH   4  10
ATOM     10  N   UNL     1       9.019   4.657  -1.614  0.00  0.00    -0.283 N 
ATOM     11  C   UNL     1      10.163   3.963  -1.778  0.00  0.00    +0.223 C 
ATOM     12  O   UNL     1      10.125   2.764  -1.956  0.00  0.00    -0.275 OA
ATOM     13  H   UNL     1       9.046   5.622  -1.527  0.00  0.00    +0.155 HD
BRANCH  11  14
ATOM     14  C   UNL     1      11.490   4.677  -1.741  0.00  0.00    +0.103 C 
ATOM     15  C   UNL     1      12.649   3.678  -1.951  0.00  0.00    +0.043 C 
ATOM     16  C   UNL     1      13.336   4.168  -3.246  0.00  0.00    +0.160 C 
ATOM     17  O   UNL     1      12.998   5.569  -3.336  0.00  0.00    -0.379 OA
ATOM     18  C   UNL     1      11.613   5.652  -2.932  0.00  0.00    +0.172 C 
ENDBRANCH  11  14
ENDBRANCH   4  10
BRANCH   1  19
ATOM     19  N   UNL     1       8.647  -0.704   0.059  0.00  0.00    -0.340 N 
ATOM     20  H   UNL     1       9.604  -0.583   0.154  0.00  0.00    +0.146 HD
BRANCH  19  21
ATOM     21  C   UNL     1       8.035  -1.994   0.389  0.00  0.00    +0.067 C 
ATOM     22  C   UNL     1       7.899  -2.834  -0.883  0.00  0.00    +0.028 C 
BRANCH  21  24
ATOM     23  C   UNL     1       8.951  -1.954   2.713  0.00  0.00    +0.005 C 
ATOM     24  C   UNL     1       8.917  -2.733   1.397  0.00  0.00    +0.018 C 
ENDBRANCH  21  24
ENDBRANCH  19  21
ENDBRANCH   1  19
BRANCH   5  25
ATOM     25  C   UNL     1       6.319   5.814  -2.380  0.00  0.00    +0.358 C 
ATOM     26  O   UNL     1       7.250   6.564  -2.606  0.00  0.00    -0.243 OA
BRANCH  25  27
ATOM     27  O   UNL     1       5.051   6.235  -2.572  0.00  0.00    -0.463 OA
ATOM     28  C   UNL     1       4.876   7.573  -3.043  0.00  0.00    +0.280 C 
ENDBRANCH  25  27
ENDBRANCH   5  25
BRANCH   6  29
ATOM     29  C   UNL     1       4.171   3.683  -1.981  0.00  0.00    +0.129 C 
BRANCH  29  30
ATOM     30  C   UNL     1       3.482   4.179  -0.709  0.00  0.00    +0.059 C 
BRANCH  30  31
ATOM     31  C   UNL     1       2.008   4.351  -0.971  0.00  0.00    -0.021 A 
ATOM     32  C   UNL     1       1.387   5.488  -1.325  0.00  0.00    +0.087 A 
ATOM     33  N   UNL     1       0.046   5.260  -1.476  0.00  0.00    -0.360 N 
ATOM     34  H   UNL     1      -0.608   5.929  -1.728  0.00  0.00    +0.165 HD
ATOM     35  C   UNL     1      -0.236   3.937  -1.216  0.00  0.00    +0.047 A 
ATOM     36  C   UNL     1       0.981   3.310  -0.888  0.00  0.00    +0.003 A 
ATOM     37  C   UNL     1       1.001   1.950  -0.574  0.00  0.00    +0.010 A 
ATOM     38  C   UNL     1      -0.163   1.234  -0.586  0.00  0.00    +0.001 A 
ATOM     39  C   UNL     1      -1.365   1.846  -0.914  0.00  0.00    +0.002 A 
ATOM     40  C   UNL     1      -1.408   3.189  -1.222  0.00  0.00    +0.026 A 
ENDBRANCH  30  31
ENDBRANCH  29  30
ENDBRANCH   6  29
TORSDOF 10
