REMARK  Name = ZINC43212308
REMARK  9 active torsions:
REMARK  status: ('A' for Active; 'I' for Inactive)
REMARK    1  A    between atoms: C_1  and  C_2
REMARK    2  A    between atoms: C_5  and  C_34
REMARK    3  A    between atoms: C_6  and  C_8
REMARK    4  A    between atoms: N_16  and  C_19
REMARK    5  A    between atoms: C_25  and  C_27
REMARK    6  A    between atoms: C_25  and  C_31
REMARK    7  A    between atoms: C_27  and  C_28
REMARK    8  A    between atoms: C_28  and  C_29
REMARK    9  A    between atoms: C_28  and  C_30
REMARK                            x       y       z     vdW  Elec       q    Type
REMARK                         _______ _______ _______ _____ _____    ______ ____
ROOT
ATOM      1  C   UNL     1       0.123  -3.653   2.852  0.00  0.00    -0.026 C 
ATOM      2  C   UNL     1       1.534  -3.633   3.430  0.00  0.00    +0.077 C 
ATOM      3  C   UNL     1       1.124  -3.647   4.951  0.00  0.00    +0.086 C 
ATOM      4  C   UNL     1       2.354  -4.047   5.590  0.00  0.00    +0.225 C 
ATOM      5  O   UNL     1       2.768  -3.703   6.676  0.00  0.00    -0.275 OA
ATOM      6  N   UNL     1       2.954  -4.903   4.699  0.00  0.00    -0.239 N 
ATOM      7  C   UNL     1       2.381  -4.867   3.445  0.00  0.00    +0.225 C 
ATOM      8  O   UNL     1       2.522  -5.664   2.543  0.00  0.00    -0.275 OA
ATOM      9  C   UNL     1       0.099  -2.599   5.038  0.00  0.00    +0.048 C 
ATOM     10  N   UNL     1      -0.612  -2.664   3.707  0.00  0.00    +0.395 N 
ATOM     11  H   UNL     1      -0.590  -1.753   3.272  0.00  0.00    -0.083 HD
ATOM     12  H   UNL     1      -1.568  -2.963   3.831  0.00  0.00    -0.083 HD
ENDROOT
BRANCH   1  18
ATOM     13  C   UNL     1       2.510  -1.599  -1.038  0.00  0.00    +0.044 C 
ATOM     14  C   UNL     1       1.273  -2.227  -0.449  0.00  0.00    -0.050 A 
ATOM     15  C   UNL     1       0.145  -2.396  -1.231  0.00  0.00    +0.003 A 
ATOM     16  C   UNL     1      -0.990  -2.972  -0.691  0.00  0.00    +0.004 A 
ATOM     17  C   UNL     1      -0.997  -3.379   0.631  0.00  0.00    -0.049 A 
ATOM     18  C   UNL     1       0.131  -3.210   1.412  0.00  0.00    -0.057 A 
ATOM     19  C   UNL     1       1.267  -2.638   0.871  0.00  0.00    +0.005 A 
ATOM     20  C   UNL     1      -2.234  -4.005   1.219  0.00  0.00    +0.044 C 
ENDBRANCH   1  18
BRANCH   6  21
ATOM     21  C   UNL     1       4.094  -5.758   5.039  0.00  0.00    +0.084 C 
ATOM     22  C   UNL     1       5.280  -5.406   4.138  0.00  0.00    +0.023 C 
ATOM     23  C   UNL     1       6.471  -6.299   4.493  0.00  0.00    +0.002 C 
ATOM     24  C   UNL     1       6.089  -7.766   4.283  0.00  0.00    +0.000 C 
ATOM     25  C   UNL     1       4.903  -8.117   5.183  0.00  0.00    +0.002 C 
ATOM     26  C   UNL     1       3.712  -7.224   4.829  0.00  0.00    +0.023 C 
ENDBRANCH   6  21
BRANCH   9  27
ATOM     27  C   UNL     1       0.740  -1.253   5.255  0.00  0.00    +0.346 C 
ATOM     28  O   UNL     1       0.669  -0.397   4.390  0.00  0.00    -0.248 OA
ATOM     29  O   UNL     1       1.331  -1.020   6.296  0.00  0.00    -0.248 OA
ENDBRANCH   9  27
BRANCH   9  30
ATOM     30  C   UNL     1      -0.887  -2.910   6.167  0.00  0.00    +0.002 C 
BRANCH  30  31
ATOM     31  C   UNL     1      -2.028  -1.891   6.142  0.00  0.00    -0.018 C 
ATOM     32  C   UNL     1      -3.111  -2.314   7.137  0.00  0.00    +0.007 C 
ATOM     33  C   UNL     1      -1.489  -0.512   6.530  0.00  0.00    +0.007 C 
ENDBRANCH  30  31
ENDBRANCH   9  30
TORSDOF 5
