REMARK  Name = ZINC19342527
REMARK  5 active torsions:
REMARK  status: ('A' for Active; 'I' for Inactive)
REMARK    1  A    between atoms: C_3  and  C_6
REMARK    2  A    between atoms: C_10  and  C_16
REMARK    3  A    between atoms: C_12  and  N_15
REMARK    4  A    between atoms: N_19  and  C_22
REMARK    5  A    between atoms: C_22  and  C_23
REMARK                            x       y       z     vdW  Elec       q    Type
REMARK                         _______ _______ _______ _____ _____    ______ ____
ROOT
ATOM      1  C   UNL     1       5.313   7.748  -8.982  0.00  0.00    +0.130 A 
ATOM      2  C   UNL     1       5.030   8.219  -7.694  0.00  0.00    +0.081 A 
ATOM      3  C   UNL     1       4.551   7.150  -6.954  0.00  0.00    +0.158 A 
ATOM      4  N   UNL     1       4.136   7.045  -5.682  0.00  0.00    -0.232 NA
ATOM      5  C   UNL     1       3.716   5.896  -5.198  0.00  0.00    +0.050 A 
ATOM      6  C   UNL     1       3.699   4.757  -6.002  0.00  0.00    +0.067 A 
ATOM      7  C   UNL     1       4.112   4.847  -7.304  0.00  0.00    +0.122 A 
ATOM      8  N   UNL     1       4.545   6.056  -7.781  0.00  0.00    -0.200 N 
ATOM      9  N   UNL     1       5.023   6.459  -9.033  0.00  0.00    -0.160 NA
ENDROOT
BRANCH   5  10
ATOM     10  C   UNL     1       3.257   5.810  -3.765  0.00  0.00    +0.034 C 
ATOM     11  C   UNL     1       4.418   5.340  -2.884  0.00  0.00    -0.009 C 
ATOM     12  C   UNL     1       3.930   5.197  -1.440  0.00  0.00    -0.078 C 
ATOM     13  N   UNL     1       2.829   4.227  -1.389  0.00  0.00    +0.382 N 
ATOM     14  C   UNL     1       1.685   4.679  -2.190  0.00  0.00    -0.078 C 
ATOM     15  C   UNL     1       2.105   4.807  -3.656  0.00  0.00    -0.009 C 
ATOM     16  H   UNL     1       3.192   3.284  -1.824  0.00  0.00    -0.081 HD
BRANCH  13  17
ATOM     17  C   UNL     1       2.427   3.960  -0.001  0.00  0.00    -0.043 C 
BRANCH  17  18
ATOM     18  C   UNL     1       1.150   3.161   0.008  0.00  0.00    -0.061 A 
ATOM     19  C   UNL     1       1.179   1.775   0.000  0.00  0.00    +0.021 A 
ATOM     20  C   UNL     1      -0.013   1.076   0.008  0.00  0.00    +0.111 A 
ATOM     21  N   UNL     1      -1.168   1.712   0.017  0.00  0.00    -0.263 NA
ATOM     22  C   UNL     1      -1.234   3.029   0.029  0.00  0.00    +0.111 A 
ATOM     23  C   UNL     1      -0.084   3.795   0.022  0.00  0.00    +0.021 A 
ENDBRANCH  17  18
ENDBRANCH  13  17
ENDBRANCH   5  10
BRANCH   1  26
ATOM     24  C   UNL     1       6.606   9.209 -12.083  0.00  0.00    +0.042 A 
ATOM     25  C   UNL     1       6.126   8.105 -11.349  0.00  0.00    +0.051 A 
ATOM     26  C   UNL     1       5.846   8.558 -10.099  0.00  0.00    +0.155 A 
ATOM     27  O   UNL     1       6.142   9.870 -10.052  0.00  0.00    -0.461 OA
ATOM     28  C   UNL     1       6.602  10.268 -11.250  0.00  0.00    +0.196 A 
ENDBRANCH   1  26
BRANCH   7  29
ATOM     29  N   UNL     1       4.099   3.736  -8.121  0.00  0.00    -0.343 N 
ATOM     30  H   UNL     1       4.433   3.818  -9.165  0.00  0.00    +0.144 HD
ATOM     31  H   UNL     1       3.755   2.768  -7.728  0.00  0.00    +0.144 HD
ENDBRANCH   7  29
TORSDOF 5
