REMARK  Name = ZINC49238075
REMARK  6 active torsions:
REMARK  status: ('A' for Active; 'I' for Inactive)
REMARK    1  A    between atoms: C_1  and  C_2
REMARK    2  A    between atoms: C_2  and  C_4
REMARK    3  A    between atoms: C_2  and  N_22
REMARK    4  A    between atoms: C_7  and  S_10
REMARK    5  A    between atoms: S_10  and  N_13
REMARK    6  A    between atoms: C_16  and  C_19
REMARK                            x       y       z     vdW  Elec       q    Type
REMARK                         _______ _______ _______ _____ _____    ______ ____
ROOT
ATOM      1  S   UNL     1       2.921  -2.002   4.890  0.00  0.00    +0.101 S 
ATOM      2  O   UNL     1       4.306  -1.804   4.645  0.00  0.00    -0.146 OA
ATOM      3  O   UNL     1       2.259  -1.441   6.016  0.00  0.00    -0.146 OA
ENDROOT
BRANCH   1   4
ATOM      4  N   UNL     1       2.683  -3.639   4.969  0.00  0.00    -0.103 NA
ATOM      5  C   UNL     1       3.214  -4.332   5.946  0.00  0.00    +0.192 A 
ATOM      6  N   UNL     1       3.146  -5.686   6.193  0.00  0.00    -0.336 N 
ATOM      7  C   UNL     1       3.791  -6.180   7.290  0.00  0.00    +0.028 A 
ATOM      8  C   UNL     1       4.467  -5.361   8.095  0.00  0.00    +0.070 A 
ATOM      9  S   UNL     1       4.226  -3.777   7.309  0.00  0.00    -0.057 S 
ATOM     10  H   UNL     1       2.651  -6.275   5.602  0.00  0.00    +0.168 HD
BRANCH   7  11
ATOM     11  C   UNL     1       3.738  -7.656   7.591  0.00  0.00    +0.036 C 
ATOM     12  C   UNL     1       2.787  -8.514   6.754  0.00  0.00    +0.010 C 
ATOM     13  C   UNL     1       4.298  -8.613   6.536  0.00  0.00    +0.010 C 
ENDBRANCH   7  11
ENDBRANCH   1   4
BRANCH   1  17
ATOM     14  C   UNL     1       0.731  -0.503   1.223  0.00  0.00    -0.062 A 
ATOM     15  C   UNL     1       0.081  -0.558   2.442  0.00  0.00    +0.004 A 
ATOM     16  C   UNL     1       0.749  -1.016   3.562  0.00  0.00    +0.029 A 
ATOM     17  C   UNL     1       2.068  -1.420   3.463  0.00  0.00    +0.113 A 
ATOM     18  C   UNL     1       2.718  -1.365   2.244  0.00  0.00    +0.029 A 
ATOM     19  C   UNL     1       2.048  -0.911   1.123  0.00  0.00    +0.004 A 
BRANCH  14  21
ATOM     20  C   UNL     1      -0.019   1.526   0.010  0.00  0.00    -0.009 C 
ATOM     21  C   UNL     1       0.002  -0.004   0.002  0.00  0.00    -0.047 C 
BRANCH  21  22
ATOM     22  N   UNL     1      -1.376  -0.512   0.012  0.00  0.00    +0.382 N 
ATOM     23  H   UNL     1      -1.864  -0.178  -0.805  0.00  0.00    -0.089 HD
ATOM     24  H   UNL     1      -1.362  -1.521   0.007  0.00  0.00    -0.089 HD
ATOM     25  H   UNL     1      -1.848  -0.187   0.843  0.00  0.00    -0.089 HD
ENDBRANCH  21  22
ENDBRANCH  14  21
ENDBRANCH   1  17
TORSDOF 5
