REMARK  Name = ZINC47663095
REMARK  7 active torsions:
REMARK  status: ('A' for Active; 'I' for Inactive)
REMARK    1  A    between atoms: C_1  and  C_2
REMARK    2  A    between atoms: C_7  and  N_12
REMARK    3  A    between atoms: C_9  and  C_11
REMARK    4  A    between atoms: C_13  and  C_15
REMARK    5  A    between atoms: C_15  and  C_17
REMARK    6  A    between atoms: C_15  and  S_18
REMARK    7  A    between atoms: S_18  and  C_21
REMARK                            x       y       z     vdW  Elec       q    Type
REMARK                         _______ _______ _______ _____ _____    ______ ____
ROOT
ATOM      1  N   UNL     1       1.471  -2.526   2.420  0.00  0.00    -0.311 N 
ATOM      2  C   UNL     1       1.207  -3.754   2.907  0.00  0.00    +0.238 C 
ATOM      3  O   UNL     1       0.382  -4.458   2.364  0.00  0.00    -0.274 OA
ATOM      4  H   UNL     1       2.131  -1.963   2.855  0.00  0.00    +0.149 HD
ENDROOT
BRANCH   1  10
ATOM      5  C   UNL     1      -0.019   1.526   0.010  0.00  0.00    +0.008 C 
ATOM      6  C   UNL     1       0.002  -0.004   0.002  0.00  0.00    -0.009 C 
ATOM      7  C   UNL     1       0.718  -0.497  -1.257  0.00  0.00    +0.003 C 
ATOM      8  C   UNL     1       0.739  -2.027  -1.265  0.00  0.00    +0.002 C 
ATOM      9  C   UNL     1       1.479  -2.534  -0.026  0.00  0.00    +0.022 C 
ATOM     10  C   UNL     1       0.763  -2.041   1.233  0.00  0.00    +0.076 C 
ATOM     11  C   UNL     1       0.742  -0.511   1.242  0.00  0.00    +0.009 C 
ATOM     12  C   UNL     1       0.026  -0.018   2.500  0.00  0.00    +0.009 C 
ENDBRANCH   1  10
BRANCH   2  13
ATOM     13  C   UNL     1       1.936  -4.254   4.128  0.00  0.00    +0.218 C 
ATOM     14  C   UNL     1       1.220  -3.760   5.387  0.00  0.00    +0.042 C 
BRANCH  13  15
ATOM     15  S   UNL     1       1.960  -6.067   4.118  0.00  0.00    +0.011 S 
ATOM     16  O   UNL     1       0.635  -6.575   4.192  0.00  0.00    -0.169 OA
ATOM     17  O   UNL     1       2.863  -6.539   3.127  0.00  0.00    -0.169 OA
BRANCH  15  18
ATOM     18  C   UNL     1       2.701  -6.519   5.652  0.00  0.00    +0.124 A 
ATOM     19  C   UNL     1       1.965  -7.205   6.599  0.00  0.00    +0.030 A 
ATOM     20  C   UNL     1       2.546  -7.560   7.803  0.00  0.00    +0.002 A 
ATOM     21  C   UNL     1       3.863  -7.227   8.060  0.00  0.00    +0.003 A 
ATOM     22  C   UNL     1       4.600  -6.541   7.115  0.00  0.00    +0.040 A 
ATOM     23  C   UNL     1       4.021  -6.191   5.907  0.00  0.00    +0.148 A 
ATOM     24  F   UNL     1       4.743  -5.524   4.979  0.00  0.00    -0.203 F 
ENDBRANCH  15  18
ENDBRANCH  13  15
ENDBRANCH   2  13
TORSDOF 4
