REMARK  Name = ZINC63766889
REMARK  7 active torsions:
REMARK  status: ('A' for Active; 'I' for Inactive)
REMARK    1  A    between atoms: C_1  and  C_2
REMARK    2  A    between atoms: C_4  and  C_27
REMARK    3  A    between atoms: C_9  and  C_14
REMARK    4  A    between atoms: C_11  and  N_13
REMARK    5  A    between atoms: C_20  and  N_24
REMARK    6  A    between atoms: C_27  and  O_28
REMARK    7  A    between atoms: O_28  and  C_29
REMARK                            x       y       z     vdW  Elec       q    Type
REMARK                         _______ _______ _______ _____ _____    ______ ____
ROOT
ATOM      1  C   UNL     1       0.535   1.507  -0.960  0.00  0.00    +0.065 C 
ATOM      2  C   UNL     1       0.382   0.027  -0.722  0.00  0.00    +0.040 A 
ATOM      3  C   UNL     1       0.327  -0.843  -1.792  0.00  0.00    +0.029 A 
ATOM      4  C   UNL     1       0.178  -2.200  -1.571  0.00  0.00    -0.013 A 
ATOM      5  C   UNL     1       0.088  -2.677  -0.260  0.00  0.00    +0.008 A 
ATOM      6  C   UNL     1       0.169  -1.727   0.758  0.00  0.00    +0.103 A 
ATOM      7  N   UNL     1       0.306  -0.439   0.511  0.00  0.00    -0.245 NA
ATOM      8  S   UNL     1       0.077  -2.628   2.292  0.00  0.00    -0.096 S 
ATOM      9  C   UNL     1       0.343  -4.327   1.637  0.00  0.00    +0.116 C 
ATOM     10  C   UNL     1      -0.097  -4.110   0.171  0.00  0.00    +0.101 C 
ENDROOT
BRANCH   9  11
ATOM     11  C   UNL     1      -0.554  -5.344   2.345  0.00  0.00    +0.189 C 
ATOM     12  N   UNL     1      -0.230  -5.391   3.776  0.00  0.00    -0.362 N 
ATOM     13  C   UNL     1       0.159  -6.603   4.049  0.00  0.00    +0.060 A 
ATOM     14  C   UNL     1       0.605  -7.254   5.288  0.00  0.00    +0.029 A 
ATOM     15  C   UNL     1       0.955  -8.556   5.267  0.00  0.00    +0.035 A 
ATOM     16  C   UNL     1       0.913  -9.333   4.096  0.00  0.00    +0.128 A 
ATOM     17  C   UNL     1       0.520  -8.835   2.907  0.00  0.00    +0.060 A 
ATOM     18  C   UNL     1       0.114  -7.426   2.809  0.00  0.00    +0.062 A 
ATOM     19  N   UNL     1      -0.302  -6.691   1.817  0.00  0.00    -0.362 N 
ATOM     20  H   UNL     1      -0.424  -6.980   0.899  0.00  0.00    +0.162 HD
ATOM     21  H   UNL     1      -0.294  -4.654   4.404  0.00  0.00    +0.162 HD
BRANCH  16  22
ATOM     22  N   UNL     1       1.317 -10.755   4.173  0.00  0.00    +0.056 N 
ATOM     23  O   UNL     1       1.674 -11.226   5.227  0.00  0.00    -0.126 OA
ATOM     24  O   UNL     1       1.290 -11.445   3.180  0.00  0.00    -0.126 OA
ENDBRANCH  16  22
ENDBRANCH   9  11
BRANCH  10  25
ATOM     25  N   UNL     1      -1.514  -4.472   0.038  0.00  0.00    -0.323 NA
ATOM     26  H   UNL     1      -1.855  -4.262  -0.889  0.00  0.00    +0.119 HD
ATOM     27  H   UNL     1      -1.662  -5.443   0.266  0.00  0.00    +0.119 HD
ENDBRANCH  10  25
BRANCH   4  28
ATOM     28  C   UNL     1       0.113  -3.157  -2.733  0.00  0.00    +0.195 C 
BRANCH  28  29
ATOM     29  O   UNL     1       0.226  -2.428  -3.957  0.00  0.00    -0.378 OA
ATOM     30  C   UNL     1       0.176  -3.246  -5.128  0.00  0.00    +0.194 C 
ENDBRANCH  28  29
ENDBRANCH   4  28
TORSDOF 5
