REMARK  Name = ZINC01074215
REMARK  4 active torsions:
REMARK  status: ('A' for Active; 'I' for Inactive)
REMARK    1  A    between atoms: C_4  and  C_7
REMARK    2  A    between atoms: C_14  and  N_32
REMARK    3  A    between atoms: C_15  and  C_30
REMARK    4  A    between atoms: C_21  and  C_26
REMARK                            x       y       z     vdW  Elec       q    Type
REMARK                         _______ _______ _______ _____ _____    ______ ____
ROOT
ATOM      1  C   UNL     1       3.438  -0.625  -0.703  0.00  0.00    +0.101 A 
ATOM      2  C   UNL     1       3.864  -1.640   0.159  0.00  0.00    +0.066 A 
ATOM      3  C   UNL     1       5.159  -1.946  -0.157  0.00  0.00    +0.224 A 
ATOM      4  N   UNL     1       5.529  -1.150  -1.181  0.00  0.00    -0.246 N 
ATOM      5  H   UNL     1       6.397  -1.146  -1.614  0.00  0.00    +0.192 HD
ATOM      6  N   UNL     1       4.437  -0.334  -1.514  0.00  0.00    -0.171 NA
ATOM      7  O   UNL     1       5.865  -2.898   0.502  0.00  0.00    -0.423 OA
ATOM      8  C   UNL     1       5.362  -3.370   1.660  0.00  0.00    +0.201 C 
ATOM      9  C   UNL     1       4.093  -3.146   2.075  0.00  0.00    +0.110 C 
ATOM     10  C   UNL     1       3.120  -2.338   1.262  0.00  0.00    +0.145 C 
ATOM     11  C   UNL     1       2.023  -3.196   0.719  0.00  0.00    -0.001 A 
ATOM     12  C   UNL     1       2.044  -4.281  -0.131  0.00  0.00    +0.007 A 
ATOM     13  C   UNL     1       0.820  -4.862  -0.443  0.00  0.00    +0.001 A 
ATOM     14  C   UNL     1      -0.361  -4.372   0.076  0.00  0.00    +0.014 A 
ATOM     15  C   UNL     1      -0.391  -3.282   0.932  0.00  0.00    +0.076 A 
ATOM     16  C   UNL     1       0.831  -2.690   1.254  0.00  0.00    +0.050 A 
ATOM     17  N   UNL     1       1.093  -1.606   2.074  0.00  0.00    -0.283 N 
ATOM     18  C   UNL     1       2.413  -1.329   2.139  0.00  0.00    +0.238 C 
ATOM     19  O   UNL     1       2.932  -0.440   2.780  0.00  0.00    -0.274 OA
ATOM     20  H   UNL     1       0.410  -1.105   2.546  0.00  0.00    +0.155 HD
ENDROOT
BRANCH   1  24
ATOM     21  C   UNL     1      -0.408   1.188  -0.721  0.00  0.00    +0.000 A 
ATOM     22  C   UNL     1       0.726   1.978  -0.668  0.00  0.00    +0.001 A 
ATOM     23  C   UNL     1       1.977   1.395  -0.662  0.00  0.00    +0.010 A 
ATOM     24  C   UNL     1       2.095   0.008  -0.709  0.00  0.00    +0.003 A 
ATOM     25  C   UNL     1       0.950  -0.783  -0.762  0.00  0.00    +0.010 A 
ATOM     26  C   UNL     1      -0.296  -0.189  -0.767  0.00  0.00    +0.001 A 
ENDBRANCH   1  24
BRANCH  15  27
ATOM     27  C   UNL     1      -1.689  -2.758   1.491  0.00  0.00    +0.419 C 
ATOM     28  F   UNL     1      -2.759  -3.451   0.913  0.00  0.00    -0.166 F 
ATOM     29  F   UNL     1      -1.708  -2.943   2.877  0.00  0.00    -0.166 F 
ATOM     30  F   UNL     1      -1.805  -1.395   1.201  0.00  0.00    -0.166 F 
ENDBRANCH  15  27
BRANCH   8  31
ATOM     31  N   UNL     1       6.184  -4.121   2.465  0.00  0.00    -0.328 N 
ATOM     32  H   UNL     1       7.098  -4.298   2.193  0.00  0.00    +0.145 HD
ATOM     33  H   UNL     1       5.850  -4.474   3.304  0.00  0.00    +0.145 HD
ENDBRANCH   8  31
BRANCH   9  34
ATOM     34  C   UNL     1       3.664  -3.696   3.326  0.00  0.00    +0.102 C 
ATOM     35  N   UNL     1       3.324  -4.132   4.318  0.00  0.00    -0.191 NA
ENDBRANCH   9  34
TORSDOF 4
