REMARK  Name = ZINC04089570
REMARK  14 active torsions:
REMARK  status: ('A' for Active; 'I' for Inactive)
REMARK    1  A    between atoms: C_1  and  C_2
REMARK    2  A    between atoms: C_2  and  C_3
REMARK    3  A    between atoms: C_2  and  C_4
REMARK    4  A    between atoms: C_2  and  C_5
REMARK    5  A    between atoms: C_7  and  C_16
REMARK    6  A    between atoms: C_9  and  C_12
REMARK    7  A    between atoms: C_10  and  O_11
REMARK    8  A    between atoms: C_12  and  C_13
REMARK    9  A    between atoms: C_12  and  C_14
REMARK   10  A    between atoms: C_12  and  C_15
REMARK   11  A    between atoms: C_16  and  N_17
REMARK   12  A    between atoms: N_18  and  C_19
REMARK   13  A    between atoms: C_19  and  C_21
REMARK   14  A    between atoms: C_21  and  N_22
REMARK                            x       y       z     vdW  Elec       q    Type
REMARK                         _______ _______ _______ _____ _____    ______ ____
ROOT
ATOM      1  C   UNL     1      -6.914   8.950   6.123  0.00  0.00    +0.000 A 
ATOM      2  C   UNL     1      -5.795   9.290   5.387  0.00  0.00    +0.013 A 
ATOM      3  C   UNL     1      -5.852   9.297   4.005  0.00  0.00    -0.024 A 
ATOM      4  C   UNL     1      -7.028   8.970   3.357  0.00  0.00    +0.013 A 
ATOM      5  C   UNL     1      -8.148   8.624   4.089  0.00  0.00    +0.000 A 
ATOM      6  C   UNL     1      -8.094   8.616   5.475  0.00  0.00    +0.124 A 
ENDROOT
BRANCH   1   8
ATOM      7  C   UNL     1      -5.448   9.346   8.083  0.00  0.00    +0.015 C 
ATOM      8  C   UNL     1      -6.852   8.943   7.629  0.00  0.00    -0.009 C 
ATOM      9  C   UNL     1      -7.874   9.937   8.186  0.00  0.00    +0.015 C 
ATOM     10  C   UNL     1      -7.172   7.539   8.146  0.00  0.00    +0.015 C 
ENDBRANCH   1   8
BRANCH   5  11
ATOM     11  C   UNL     1      -9.429   8.262   3.381  0.00  0.00    -0.009 C 
ATOM     12  C   UNL     1      -9.218   8.350   1.869  0.00  0.00    +0.015 C 
ATOM     13  C   UNL     1      -9.833   6.835   3.759  0.00  0.00    +0.015 C 
ATOM     14  C   UNL     1     -10.534   9.233   3.800  0.00  0.00    +0.015 C 
ENDBRANCH   5  11
BRANCH   6  15
ATOM     15  O   UNL     1      -9.196   8.281   6.197  0.00  0.00    -0.506 OA
ATOM     16  H   UNL     1      -9.763   9.032   6.421  0.00  0.00    +0.292 HD
ENDBRANCH   6  15
BRANCH   3  17
ATOM     17  C   UNL     1      -4.630   9.668   3.205  0.00  0.00    +0.198 C 
BRANCH  17  18
ATOM     18  N   UNL     1      -3.846   8.463   2.923  0.00  0.00    -0.190 NA
ATOM     19  N   UNL     1      -3.633   8.123   1.749  0.00  0.00    -0.083 NA
BRANCH  19  20
ATOM     20  C   UNL     1      -2.912   7.014   1.490  0.00  0.00    +0.271 C 
ATOM     21  O   UNL     1      -2.474   6.351   2.400  0.00  0.00    -0.270 OA
BRANCH  20  22
ATOM     22  C   UNL     1      -2.652   6.601   0.064  0.00  0.00    +0.207 C 
BRANCH  22  23
ATOM     23  N   UNL     1      -1.852   5.373   0.049  0.00  0.00    -0.284 N 
ATOM     24  C   UNL     1      -0.387   5.309   0.035  0.00  0.00    +0.144 C 
ATOM     25  C   UNL     1      -0.029   3.843   0.023  0.00  0.00    -0.018 A 
ATOM     26  C   UNL     1       1.168   3.165   0.008  0.00  0.00    +0.006 A 
ATOM     27  C   UNL     1       1.178   1.781   0.000  0.00  0.00    +0.000 A 
ATOM     28  C   UNL     1      -0.013   1.076   0.008  0.00  0.00    +0.001 A 
ATOM     29  C   UNL     1      -1.218   1.746   0.017  0.00  0.00    +0.013 A 
ATOM     30  C   UNL     1      -1.237   3.142   0.031  0.00  0.00    +0.042 A 
ATOM     31  C   UNL     1      -2.341   4.121   0.047  0.00  0.00    +0.248 C 
ATOM     32  O   UNL     1      -3.522   3.836   0.057  0.00  0.00    -0.270 OA
ENDBRANCH  22  23
ENDBRANCH  20  22
ENDBRANCH  19  20
ENDBRANCH  17  18
ENDBRANCH   3  17
TORSDOF 8
