REMARK  Name = ZINC06382148
REMARK  6 active torsions:
REMARK  status: ('A' for Active; 'I' for Inactive)
REMARK    1  A    between atoms: C_1  and  C_2
REMARK    2  A    between atoms: N_10  and  C_11
REMARK    3  A    between atoms: C_11  and  N_13
REMARK    4  A    between atoms: C_14  and  C_15
REMARK    5  A    between atoms: C_14  and  C_16
REMARK    6  A    between atoms: C_19  and  N_22
REMARK                            x       y       z     vdW  Elec       q    Type
REMARK                         _______ _______ _______ _____ _____    ______ ____
ROOT
ATOM      1  C   UNL     1      -2.309   1.463   0.123  0.00  0.00    +0.161 C 
ATOM      2  S   UNL     1      -2.660   0.586   1.551  0.00  0.00    -0.016 S 
ENDROOT
BRANCH   1  12
ATOM      3  C   UNL     1      -6.022  -1.339   1.734  0.00  0.00    +0.066 C 
ATOM      4  C   UNL     1      -5.759  -0.583   0.457  0.00  0.00    +0.047 A 
ATOM      5  C   UNL     1      -6.681  -0.604  -0.549  0.00  0.00    +0.093 A 
ATOM      6  C   UNL     1      -6.412   0.111  -1.730  0.00  0.00    +0.253 A 
ATOM      7  O   UNL     1      -7.213   0.115  -2.650  0.00  0.00    -0.268 OA
ATOM      8  N   UNL     1      -5.253   0.797  -1.825  0.00  0.00    -0.295 N 
ATOM      9  H   UNL     1      -5.025   1.370  -2.736  0.00  0.00    +0.172 HD
ATOM     10  C   UNL     1      -4.370   0.776  -0.790  0.00  0.00    +0.201 A 
ATOM     11  N   UNL     1      -4.628   0.104   0.313  0.00  0.00    -0.221 NA
ATOM     12  N   UNL     1      -3.190   1.472  -0.896  0.00  0.00    -0.266 N 
ATOM     13  H   UNL     1      -2.965   2.036  -1.813  0.00  0.00    +0.157 HD
ENDBRANCH   1  12
BRANCH   1  14
ATOM     14  N   UNL     1      -1.152   2.146   0.020  0.00  0.00    -0.197 NA
ATOM     15  C   UNL     1      -0.011   1.503   0.017  0.00  0.00    +0.037 C 
ATOM     16  C   UNL     1       0.005  -0.003   0.003  0.00  0.00    +0.063 C 
BRANCH  15  17
ATOM     17  C   UNL     1       1.254   2.252   0.020  0.00  0.00    -0.006 A 
ATOM     18  C   UNL     1       2.476   1.569   0.016  0.00  0.00    +0.012 A 
ATOM     19  C   UNL     1       3.658   2.279   0.013  0.00  0.00    +0.033 A 
ATOM     20  C   UNL     1       3.638   3.663   0.025  0.00  0.00    +0.126 A 
ATOM     21  C   UNL     1       2.434   4.346   0.035  0.00  0.00    +0.033 A 
ATOM     22  C   UNL     1       1.243   3.651   0.032  0.00  0.00    +0.012 A 
BRANCH  20  23
ATOM     23  N   UNL     1       4.912   4.417   0.028  0.00  0.00    +0.056 N 
ATOM     24  O   UNL     1       4.899   5.635   0.039  0.00  0.00    -0.126 OA
ATOM     25  O   UNL     1       5.973   3.819   0.020  0.00  0.00    -0.126 OA
ENDBRANCH  20  23
ENDBRANCH  15  17
ENDBRANCH   1  14
TORSDOF 4
