REMARK  Name = ZINC36729357
REMARK  10 active torsions:
REMARK  status: ('A' for Active; 'I' for Inactive)
REMARK    1  A    between atoms: C_1  and  C_2
REMARK    2  A    between atoms: C_2  and  O_3
REMARK    3  A    between atoms: O_3  and  C_4
REMARK    4  A    between atoms: C_11  and  C_18
REMARK    5  A    between atoms: C_13  and  O_14
REMARK    6  A    between atoms: C_18  and  N_19
REMARK    7  A    between atoms: N_19  and  C_20
REMARK    8  A    between atoms: N_19  and  C_30
REMARK    9  A    between atoms: C_20  and  C_21
REMARK   10  A    between atoms: C_24  and  C_27
REMARK                            x       y       z     vdW  Elec       q    Type
REMARK                         _______ _______ _______ _____ _____    ______ ____
ROOT
ATOM      1  C   UNL     1       3.756  -1.202  -0.904  0.00  0.00    +0.405 C 
ATOM      2  O   UNL     1       3.658  -1.913   0.082  0.00  0.00    -0.226 OA
ATOM      3  N   UNL     1       3.797  -1.747  -2.113  0.00  0.00    -0.251 N 
ATOM      4  C   UNL     1       3.600  -3.083  -2.263  0.00  0.00    +0.040 A 
ATOM      5  C   UNL     1       3.983  -3.717  -3.460  0.00  0.00    +0.024 A 
ATOM      6  C   UNL     1       3.791  -5.052  -3.622  0.00  0.00    +0.013 A 
ATOM      7  C   UNL     1       3.207  -5.808  -2.590  0.00  0.00    +0.019 A 
ATOM      8  C   UNL     1       3.000  -7.194  -2.739  0.00  0.00    -0.047 A 
ATOM      9  C   UNL     1       2.423  -7.891  -1.695  0.00  0.00    +0.090 A 
ATOM     10  C   UNL     1       2.062  -7.224  -0.534  0.00  0.00    +0.285 A 
ATOM     11  O   UNL     1       2.259  -5.909  -0.396  0.00  0.00    -0.425 OA
ATOM     12  C   UNL     1       2.819  -5.180  -1.384  0.00  0.00    +0.141 A 
ATOM     13  C   UNL     1       3.024  -3.822  -1.227  0.00  0.00    +0.070 A 
ATOM     14  H   UNL     1       3.969  -1.191  -2.889  0.00  0.00    +0.158 HD
ENDROOT
BRANCH  10  15
ATOM     15  O   UNL     1       1.500  -7.916   0.476  0.00  0.00    -0.480 OA
ATOM     16  H   UNL     1       1.279  -7.376   1.248  0.00  0.00    +0.295 HD
ENDBRANCH  10  15
BRANCH   1  17
ATOM     17  O   UNL     1       3.822   0.141  -0.766  0.00  0.00    -0.450 OA
BRANCH  17  19
ATOM     18  C   UNL     1       3.859   2.185   0.522  0.00  0.00    +0.048 C 
ATOM     19  C   UNL     1       3.772   0.658   0.565  0.00  0.00    +0.230 C 
ENDBRANCH  17  19
ENDBRANCH   1  17
BRANCH   8  20
ATOM     20  C   UNL     1       3.399  -7.901  -4.009  0.00  0.00    -0.041 C 
BRANCH  20  21
ATOM     21  N   UNL     1       4.740  -8.478  -3.847  0.00  0.00    +0.387 N 
ATOM     22  H   UNL     1       5.386  -7.755  -3.569  0.00  0.00    -0.080 HD
BRANCH  21  23
ATOM     23  C   UNL     1       4.702  -9.524  -2.817  0.00  0.00    -0.068 C 
ATOM     24  C   UNL     1       5.409  -9.235  -1.491  0.00  0.00    -0.017 C 
ATOM     25  C   UNL     1       6.015 -10.232  -2.480  0.00  0.00    -0.017 C 
ENDBRANCH  21  23
BRANCH  21  26
ATOM     26  C   UNL     1       5.178  -9.062  -5.122  0.00  0.00    -0.042 C 
BRANCH  26  27
ATOM     27  C   UNL     1       5.363  -7.966  -6.140  0.00  0.00    -0.064 A 
ATOM     28  C   UNL     1       4.339  -7.665  -7.021  0.00  0.00    +0.002 A 
ATOM     29  C   UNL     1       4.502  -6.662  -7.955  0.00  0.00    +0.013 A 
ATOM     30  C   UNL     1       5.702  -5.952  -8.010  0.00  0.00    +0.037 A 
ATOM     31  C   UNL     1       6.731  -6.262  -7.118  0.00  0.00    +0.013 A 
ATOM     32  C   UNL     1       6.553  -7.262  -6.186  0.00  0.00    +0.002 A 
BRANCH  30  33
ATOM     33  C   UNL     1       5.884  -4.878  -9.009  0.00  0.00    +0.242 C 
ATOM     34  O   UNL     1       4.987  -4.611  -9.784  0.00  0.00    -0.270 OA
ATOM     35  N   UNL     1       7.044  -4.194  -9.059  0.00  0.00    -0.325 N 
ATOM     36  H   UNL     1       7.760  -4.407  -8.441  0.00  0.00    +0.145 HD
ATOM     37  H   UNL     1       7.163  -3.489  -9.715  0.00  0.00    +0.145 HD
ENDBRANCH  30  33
ENDBRANCH  26  27
ENDBRANCH  21  26
ENDBRANCH  20  21
ENDBRANCH   8  20
TORSDOF 9
