REMARK  Name = ZINC13395958
REMARK  8 active torsions:
REMARK  status: ('A' for Active; 'I' for Inactive)
REMARK    1  A    between atoms: C_1  and  O_2
REMARK    2  A    between atoms: O_2  and  C_3
REMARK    3  A    between atoms: C_6  and  N_9
REMARK    4  A    between atoms: C_10  and  C_27
REMARK    5  A    between atoms: C_13  and  S_14
REMARK    6  A    between atoms: S_14  and  C_15
REMARK    7  A    between atoms: C_15  and  C_16
REMARK    8  A    between atoms: C_22  and  C_25
REMARK                            x       y       z     vdW  Elec       q    Type
REMARK                         _______ _______ _______ _____ _____    ______ ____
ROOT
ATOM      1  N   UNL     1       1.233  -2.084  -0.021  0.00  0.00    -0.270 N 
ATOM      2  C   UNL     1       1.699  -2.905  -1.025  0.00  0.00    +0.169 A 
ATOM      3  N   UNL     1       1.529  -4.143  -0.620  0.00  0.00    -0.128 NA
ATOM      4  N   UNL     1       0.997  -4.154   0.549  0.00  0.00    -0.122 NA
ATOM      5  C   UNL     1       0.799  -2.924   0.968  0.00  0.00    +0.197 A 
ENDROOT
BRANCH   2   6
ATOM      6  C   UNL     1       2.281  -2.474  -2.313  0.00  0.00    +0.020 A 
ATOM      7  C   UNL     1       2.117  -1.159  -2.752  0.00  0.00    +0.013 A 
ATOM      8  C   UNL     1       2.666  -0.761  -3.953  0.00  0.00    +0.021 A 
ATOM      9  C   UNL     1       3.370  -1.667  -4.728  0.00  0.00    +0.041 A 
ATOM     10  C   UNL     1       3.533  -2.974  -4.301  0.00  0.00    +0.021 A 
ATOM     11  C   UNL     1       2.993  -3.382  -3.100  0.00  0.00    +0.013 A 
ATOM     12 CL   UNL     1       4.054  -1.161  -6.242  0.00  0.00    -0.084 Cl
ENDBRANCH   2   6
BRANCH   1  16
ATOM     13  C   UNL     1       1.175   2.087   0.002  0.00  0.00    +0.120 A 
ATOM     14  C   UNL     1      -0.017   1.377   0.010  0.00  0.00    +0.047 A 
ATOM     15  C   UNL     1       0.002  -0.004   0.002  0.00  0.00    +0.030 A 
ATOM     16  C   UNL     1       1.214  -0.681  -0.013  0.00  0.00    +0.051 A 
ATOM     17  C   UNL     1       2.406   0.029  -0.021  0.00  0.00    +0.030 A 
ATOM     18  C   UNL     1       2.386   1.410  -0.013  0.00  0.00    +0.047 A 
BRANCH  13  20
ATOM     19  C   UNL     1       2.420   4.113   0.001  0.00  0.00    +0.277 C 
ATOM     20  O   UNL     1       1.156   3.446   0.009  0.00  0.00    -0.495 OA
ENDBRANCH  13  20
ENDBRANCH   1  16
BRANCH   5  21
ATOM     21  S   UNL     1       0.101  -2.445   2.514  0.00  0.00    -0.076 S 
BRANCH  21  22
ATOM     22  C   UNL     1      -0.206  -4.074   3.238  0.00  0.00    +0.173 C 
BRANCH  22  23
ATOM     23  C   UNL     1      -0.820  -3.909   4.605  0.00  0.00    +0.226 C 
ATOM     24  O   UNL     1      -1.029  -2.798   5.045  0.00  0.00    -0.275 OA
ATOM     25  N   UNL     1      -1.136  -4.995   5.337  0.00  0.00    -0.300 N 
ATOM     26  C   UNL     1      -0.889  -6.347   4.817  0.00  0.00    +0.108 C 
ATOM     27  C   UNL     1      -0.060  -7.126   5.844  0.00  0.00    +0.020 C 
ATOM     28  C   UNL     1      -0.773  -7.094   7.198  0.00  0.00    +0.018 C 
ATOM     29  C   UNL     1      -0.897  -5.646   7.677  0.00  0.00    +0.119 C 
ATOM     30  C   UNL     1      -1.730  -4.850   6.673  0.00  0.00    +0.122 C 
BRANCH  29  31
ATOM     31  C   UNL     1      -1.569  -5.618   9.025  0.00  0.00    +0.361 C 
ATOM     32  O   UNL     1      -1.914  -6.650   9.550  0.00  0.00    -0.246 OA
ATOM     33  O   UNL     1      -1.786  -4.446   9.643  0.00  0.00    -0.246 OA
ENDBRANCH  29  31
ENDBRANCH  22  23
ENDBRANCH  21  22
ENDBRANCH   5  21
TORSDOF 7
