REMARK  Name = ZINC30835662
REMARK  8 active torsions:
REMARK  status: ('A' for Active; 'I' for Inactive)
REMARK    1  A    between atoms: C_4  and  C_7
REMARK    2  A    between atoms: C_7  and  C_8
REMARK    3  A    between atoms: C_7  and  N_14
REMARK    4  A    between atoms: C_15  and  C_17
REMARK    5  A    between atoms: C_17  and  S_18
REMARK    6  A    between atoms: S_18  and  C_19
REMARK    7  A    between atoms: C_23  and  C_25
REMARK    8  A    between atoms: C_30  and  N_31
REMARK                            x       y       z     vdW  Elec       q    Type
REMARK                         _______ _______ _______ _____ _____    ______ ____
ROOT
ATOM      1  N   UNL     1       7.050   6.727  -0.593  0.00  0.00    -0.304 N 
ATOM      2  C   UNL     1       5.772   7.141  -0.481  0.00  0.00    +0.224 C 
ATOM      3  O   UNL     1       5.517   8.326  -0.470  0.00  0.00    -0.275 OA
ATOM      4  H   UNL     1       7.281   5.652  -0.604  0.00  0.00    +0.150 HD
ENDROOT
BRANCH   1   5
ATOM      5  C   UNL     1       8.131   7.710  -0.701  0.00  0.00    +0.134 C 
BRANCH   5   9
ATOM      6  C   UNL     1      11.777   5.976   0.695  0.00  0.00    +0.000 A 
ATOM      7  C   UNL     1      11.473   7.288   1.003  0.00  0.00    +0.000 A 
ATOM      8  C   UNL     1      10.294   7.850   0.551  0.00  0.00    +0.006 A 
ATOM      9  C   UNL     1       9.417   7.098  -0.209  0.00  0.00    -0.023 A 
ATOM     10  C   UNL     1       9.718   5.784  -0.513  0.00  0.00    +0.006 A 
ATOM     11  C   UNL     1      10.900   5.224  -0.065  0.00  0.00    +0.000 A 
ENDBRANCH   5   9
BRANCH   5  12
ATOM     12  C   UNL     1       8.291   8.125  -2.141  0.00  0.00    -0.023 A 
ATOM     13  C   UNL     1       8.193   7.182  -3.147  0.00  0.00    +0.006 A 
ATOM     14  C   UNL     1       8.335   7.563  -4.468  0.00  0.00    +0.000 A 
ATOM     15  C   UNL     1       8.585   8.886  -4.783  0.00  0.00    +0.000 A 
ATOM     16  C   UNL     1       8.688   9.828  -3.777  0.00  0.00    +0.000 A 
ATOM     17  C   UNL     1       8.541   9.448  -2.456  0.00  0.00    +0.006 A 
ENDBRANCH   5  12
ENDBRANCH   1   5
BRANCH   2  18
ATOM     18  C   UNL     1       4.660   6.130  -0.370  0.00  0.00    +0.173 C 
BRANCH  18  19
ATOM     19  S   UNL     1       3.074   6.990  -0.235  0.00  0.00    -0.079 S 
BRANCH  19  20
ATOM     20  C   UNL     1       1.985   5.610  -0.122  0.00  0.00    +0.167 A 
ATOM     21  N   UNL     1       0.630   5.675  -0.000  0.00  0.00    -0.339 N 
ATOM     22  H   UNL     1       0.128   6.653   0.040  0.00  0.00    +0.167 HD
ATOM     23  C   UNL     1       0.161   4.385   0.050  0.00  0.00    +0.113 A 
ATOM     24  C   UNL     1       1.240   3.569  -0.035  0.00  0.00    +0.092 A 
ATOM     25  N   UNL     1       2.345   4.349  -0.143  0.00  0.00    -0.222 NA
BRANCH  24  26
ATOM     26  C   UNL     1       1.217   2.086  -0.020  0.00  0.00    +0.032 A 
ATOM     27  C   UNL     1       0.645   1.407   1.054  0.00  0.00    +0.012 A 
ATOM     28  C   UNL     1       0.626   0.027   1.063  0.00  0.00    +0.001 A 
ATOM     29  C   UNL     1       1.172  -0.682   0.009  0.00  0.00    +0.002 A 
ATOM     30  C   UNL     1       1.742  -0.013  -1.060  0.00  0.00    +0.033 A 
ATOM     31  C   UNL     1       1.767   1.367  -1.079  0.00  0.00    +0.135 A 
BRANCH  31  32
ATOM     32  N   UNL     1       2.377   2.082  -2.224  0.00  0.00    +0.057 N 
ATOM     33  O   UNL     1       2.957   1.456  -3.093  0.00  0.00    -0.126 OA
ATOM     34  O   UNL     1       2.299   3.295  -2.295  0.00  0.00    -0.126 OA
ENDBRANCH  31  32
ENDBRANCH  24  26
ENDBRANCH  19  20
ENDBRANCH  18  19
ENDBRANCH   2  18
TORSDOF 8
