REMARK  Name = ZINC11912577
REMARK  11 active torsions:
REMARK  status: ('A' for Active; 'I' for Inactive)
REMARK    1  A    between atoms: C_1  and  C_2
REMARK    2  A    between atoms: C_5  and  N_9
REMARK    3  A    between atoms: C_6  and  C_8
REMARK    4  A    between atoms: C_15  and  C_17
REMARK    5  A    between atoms: C_17  and  C_18
REMARK    6  A    between atoms: C_18  and  C_29
REMARK    7  A    between atoms: N_22  and  C_25
REMARK    8  A    between atoms: C_25  and  C_26
REMARK    9  A    between atoms: C_26  and  N_71
REMARK   10  A    between atoms: C_27  and  N_71
REMARK   11  A    between atoms: C_28  and  N_71
REMARK                            x       y       z     vdW  Elec       q    Type
REMARK                         _______ _______ _______ _____ _____    ______ ____
ROOT
ATOM      1  C   UNL     1       1.476   1.891  -0.002  0.00  0.00    +0.091 C 
ATOM      2  C   UNL     1      -0.018   1.509   0.010  0.00  0.00    +0.117 C 
ATOM      3  C   UNL     1       0.002  -0.004   0.002  0.00  0.00    +0.223 C 
ATOM      4  O   UNL     1      -0.977  -0.720   0.007  0.00  0.00    -0.275 OA
ATOM      5  N   UNL     1       1.272  -0.427  -0.012  0.00  0.00    -0.243 N 
ATOM      6  C   UNL     1       2.183   0.553  -0.016  0.00  0.00    +0.233 C 
ATOM      7  O   UNL     1       3.385   0.395  -0.029  0.00  0.00    -0.274 OA
ENDROOT
BRANCH   1   8
ATOM      8  C   UNL     1       1.835   2.668   1.238  0.00  0.00    +0.004 A 
ATOM      9  C   UNL     1       2.354   3.944   1.129  0.00  0.00    +0.007 A 
ATOM     10  C   UNL     1       2.678   4.659   2.266  0.00  0.00    +0.000 A 
ATOM     11  C   UNL     1       2.494   4.095   3.515  0.00  0.00    +0.003 A 
ATOM     12  C   UNL     1       1.980   2.817   3.627  0.00  0.00    +0.038 A 
ATOM     13  C   UNL     1       1.650   2.102   2.488  0.00  0.00    +0.128 A 
ATOM     14  F   UNL     1       1.147   0.852   2.596  0.00  0.00    -0.205 F 
ENDBRANCH   1   8
BRANCH   1  15
ATOM     15  C   UNL     1       1.816   2.693  -1.259  0.00  0.00    +0.117 C 
BRANCH  15  22
ATOM     16  N   UNL     1       4.620   5.981  -3.740  0.00  0.00    -0.327 N 
ATOM     17  C   UNL     1       5.354   5.632  -2.517  0.00  0.00    +0.124 C 
ATOM     18  C   UNL     1       5.235   4.125  -2.266  0.00  0.00    +0.126 C 
ATOM     19  N   UNL     1       3.809   3.764  -2.260  0.00  0.00    -0.298 N 
ATOM     20  C   UNL     1       2.977   4.195  -3.394  0.00  0.00    +0.126 C 
ATOM     21  C   UNL     1       3.184   5.704  -3.598  0.00  0.00    +0.124 C 
ATOM     22  C   UNL     1       3.280   3.052  -1.245  0.00  0.00    +0.217 C 
ATOM     23  O   UNL     1       3.981   2.701  -0.320  0.00  0.00    -0.276 OA
BRANCH  16  28
ATOM     24  C   UNL     1       5.513  11.396  -5.170  0.00  0.00    +0.044 C 
ATOM     25  C   UNL     1       5.275   9.957  -4.790  0.00  0.00    -0.050 A 
ATOM     26  C   UNL     1       4.706   9.651  -3.567  0.00  0.00    +0.005 A 
ATOM     27  C   UNL     1       4.487   8.334  -3.216  0.00  0.00    +0.023 A 
ATOM     28  C   UNL     1       4.839   7.315  -4.092  0.00  0.00    +0.033 A 
ATOM     29  C   UNL     1       5.416   7.625  -5.317  0.00  0.00    -0.029 A 
ATOM     30  C   UNL     1       5.627   8.946  -5.665  0.00  0.00    +0.008 A 
ATOM     31  C   UNL     1       5.805   6.524  -6.269  0.00  0.00    +0.045 C 
ENDBRANCH  16  28
ENDBRANCH  15  22
ENDBRANCH   1  15
BRANCH   5  32
ATOM     32  C   UNL     1       1.635  -1.847  -0.024  0.00  0.00    +0.098 C 
BRANCH  32  33
ATOM     33  C   UNL     1       1.747  -2.333  -1.470  0.00  0.00    -0.060 C 
BRANCH  33  36
ATOM     34  C   UNL     1       1.996  -4.318  -2.833  0.00  0.00    -0.097 C 
ATOM     35  C   UNL     1       3.460  -3.959  -0.939  0.00  0.00    -0.097 C 
ATOM     36  N   UNL     1       2.092  -3.770  -1.464  0.00  0.00    +0.377 N 
ATOM     37  H   UNL     1       1.430  -4.270  -0.858  0.00  0.00    -0.083 HD
ENDBRANCH  33  36
ENDBRANCH  32  33
ENDBRANCH   5  32
TORSDOF 7
