REMARK  Name = ZINC58894450
REMARK  16 active torsions:
REMARK  status: ('A' for Active; 'I' for Inactive)
REMARK    1  A    between atoms: C_1  and  C_2
REMARK    2  A    between atoms: C_2  and  O_3
REMARK    3  A    between atoms: O_3  and  C_4
REMARK    4  A    between atoms: C_7  and  C_10
REMARK    5  A    between atoms: C_10  and  C_12
REMARK    6  A    between atoms: C_10  and  O_37
REMARK    7  A    between atoms: C_12  and  C_13
REMARK    8  A    between atoms: C_13  and  C_14
REMARK    9  A    between atoms: N_16  and  N_17
REMARK   10  A    between atoms: C_18  and  C_19
REMARK   11  A    between atoms: C_21  and  C_36
REMARK   12  A    between atoms: N_22  and  C_25
REMARK   13  A    between atoms: C_23  and  C_24
REMARK   14  A    between atoms: C_28  and  C_32
REMARK   15  A    between atoms: C_32  and  O_34
REMARK   16  A    between atoms: O_34  and  C_35
REMARK                            x       y       z     vdW  Elec       q    Type
REMARK                         _______ _______ _______ _____ _____    ______ ____
ROOT
ATOM      1  N   UNL     1      -3.313 -10.343   4.331  0.00  0.00    -0.188 NA
ATOM      2  C   UNL     1      -3.219 -11.608   4.608  0.00  0.00    +0.140 C 
ENDROOT
BRANCH   2   3
ATOM      3  C   UNL     1      -3.036 -12.588   3.523  0.00  0.00    +0.016 A 
ATOM      4  C   UNL     1      -2.547 -12.319   2.167  0.00  0.00    +0.032 A 
ATOM      5  C   UNL     1      -2.540 -13.498   1.519  0.00  0.00    +0.022 A 
ATOM      6  N   UNL     1      -2.986 -14.471   2.368  0.00  0.00    -0.317 N 
ATOM      7  C   UNL     1      -3.283 -13.930   3.582  0.00  0.00    +0.030 A 
ATOM      8  C   UNL     1      -3.797 -14.682   4.782  0.00  0.00    +0.064 C 
ATOM      9  C   UNL     1      -2.111 -13.710   0.090  0.00  0.00    +0.064 C 
BRANCH   6  10
ATOM     10  C   UNL     1      -3.115 -15.823   2.041  0.00  0.00    +0.048 A 
ATOM     11  C   UNL     1      -4.375 -16.413   2.008  0.00  0.00    +0.027 A 
ATOM     12  C   UNL     1      -4.506 -17.744   1.685  0.00  0.00    +0.018 A 
ATOM     13  C   UNL     1      -3.371 -18.506   1.390  0.00  0.00    +0.077 A 
ATOM     14  C   UNL     1      -2.106 -17.910   1.424  0.00  0.00    +0.057 A 
ATOM     15  C   UNL     1      -1.984 -16.575   1.743  0.00  0.00    +0.047 A 
ATOM     16 CL   UNL     1      -0.692 -18.850   1.059  0.00  0.00    -0.083 Cl
BRANCH  13  17
ATOM     17  C   UNL     1      -3.508 -19.933   1.044  0.00  0.00    +0.340 C 
ATOM     18  O   UNL     1      -2.520 -20.593   0.788  0.00  0.00    -0.245 OA
BRANCH  17  19
ATOM     19  O   UNL     1      -4.727 -20.505   1.013  0.00  0.00    -0.464 OA
ATOM     20  C   UNL     1      -4.785 -21.891   0.670  0.00  0.00    +0.280 C 
ENDBRANCH  17  19
ENDBRANCH  13  17
ENDBRANCH   6  10
ENDBRANCH   2   3
BRANCH   1  23
ATOM     21  C   UNL     1      -3.424  -8.611   2.701  0.00  0.00    +0.232 C 
ATOM     22  O   UNL     1      -3.294  -7.790   3.585  0.00  0.00    -0.274 OA
ATOM     23  N   UNL     1      -3.443  -9.926   3.000  0.00  0.00    -0.207 N 
ATOM     24  H   UNL     1      -3.547 -10.582   2.294  0.00  0.00    +0.177 HD
BRANCH  21  25
ATOM     25  C   UNL     1      -3.563  -8.162   1.270  0.00  0.00    +0.100 C 
BRANCH  25  26
ATOM     26  C   UNL     1      -3.510  -6.634   1.207  0.00  0.00    +0.045 C 
BRANCH  26  27
ATOM     27  C   UNL     1      -3.652  -6.178  -0.246  0.00  0.00    +0.145 C 
BRANCH  27  31
ATOM     28  C   UNL     1      -3.154  -1.940  -0.465  0.00  0.00    +0.121 A 
ATOM     29  C   UNL     1      -2.102  -2.781  -0.794  0.00  0.00    +0.046 A 
ATOM     30  C   UNL     1      -2.265  -4.151  -0.723  0.00  0.00    +0.010 A 
ATOM     31  C   UNL     1      -3.476  -4.684  -0.323  0.00  0.00    -0.019 A 
ATOM     32  C   UNL     1      -4.527  -3.848   0.006  0.00  0.00    +0.010 A 
ATOM     33  C   UNL     1      -4.367  -2.477  -0.059  0.00  0.00    +0.046 A 
BRANCH  28  34
ATOM     34  O   UNL     1      -2.996  -0.592  -0.534  0.00  0.00    -0.492 OA
BRANCH  34  36
ATOM     35  C   UNL     1      -1.733   1.421  -0.976  0.00  0.00    +0.048 C 
ATOM     36  C   UNL     1      -1.720  -0.109  -0.960  0.00  0.00    +0.225 C 
ENDBRANCH  34  36
ENDBRANCH  28  34
ENDBRANCH  27  31
BRANCH  27  37
ATOM     37  O   UNL     1      -4.949  -6.531  -0.732  0.00  0.00    -0.387 OA
ATOM     38  H   UNL     1      -5.676  -6.133  -0.235  0.00  0.00    +0.210 HD
ENDBRANCH  27  37
ENDBRANCH  26  27
ENDBRANCH  25  26
ENDBRANCH  21  25
ENDBRANCH   1  23
TORSDOF 12
