REMARK  Name = ZINC53049469
REMARK  9 active torsions:
REMARK  status: ('A' for Active; 'I' for Inactive)
REMARK    1  A    between atoms: C_1  and  C_2
REMARK    2  A    between atoms: N_4  and  C_5
REMARK    3  A    between atoms: C_5  and  C_6
REMARK    4  A    between atoms: C_6  and  N_7
REMARK    5  A    between atoms: C_8  and  C_10
REMARK    6  A    between atoms: C_10  and  N_11
REMARK    7  A    between atoms: C_14  and  C_17
REMARK    8  A    between atoms: N_19  and  C_20
REMARK    9  A    between atoms: C_20  and  C_21
REMARK                            x       y       z     vdW  Elec       q    Type
REMARK                         _______ _______ _______ _____ _____    ______ ____
ROOT
ATOM      1  N   UNL     1      -5.067  -6.858   0.014  0.00  0.00    +0.385 N 
ATOM      2  C   UNL     1      -5.742  -6.464  -1.229  0.00  0.00    -0.077 C 
ATOM      3  C   UNL     1      -7.202  -6.921  -1.188  0.00  0.00    -0.006 C 
ATOM      4  C   UNL     1      -7.250  -8.444  -1.041  0.00  0.00    +0.071 C 
ATOM      5  C   UNL     1      -6.479  -8.850   0.219  0.00  0.00    -0.006 C 
ATOM      6  C   UNL     1      -5.046  -8.321   0.126  0.00  0.00    -0.077 C 
ATOM      7  H   UNL     1      -5.562  -6.468   0.801  0.00  0.00    -0.081 HD
ENDROOT
BRANCH   4   8
ATOM      8  C   UNL     1      -8.683  -8.894  -0.921  0.00  0.00    +0.216 C 
ATOM      9  O   UNL     1      -9.579  -8.077  -0.951  0.00  0.00    -0.276 OA
ATOM     10  N   UNL     1      -8.969 -10.204  -0.781  0.00  0.00    -0.311 N 
ATOM     11  H   UNL     1      -8.252 -10.857  -0.758  0.00  0.00    +0.149 HD
BRANCH  10  12
ATOM     12  C   UNL     1     -10.363 -10.641  -0.665  0.00  0.00    +0.139 C 
BRANCH  12  13
ATOM     13  C   UNL     1     -10.408 -12.140  -0.520  0.00  0.00    -0.030 A 
ATOM     14  C   UNL     1     -10.487 -12.941  -1.645  0.00  0.00    +0.008 A 
ATOM     15  C   UNL     1     -10.529 -14.316  -1.513  0.00  0.00    +0.038 A 
ATOM     16  C   UNL     1     -10.491 -14.892  -0.254  0.00  0.00    +0.123 A 
ATOM     17  C   UNL     1     -10.412 -14.089   0.871  0.00  0.00    +0.038 A 
ATOM     18  C   UNL     1     -10.366 -12.714   0.737  0.00  0.00    +0.008 A 
ATOM     19  F   UNL     1     -10.532 -16.236  -0.124  0.00  0.00    -0.205 F 
ENDBRANCH  12  13
ENDBRANCH  10  12
ENDBRANCH   4   8
BRANCH   1  20
ATOM     20  C   UNL     1      -3.689  -6.350   0.003  0.00  0.00    +0.019 C 
BRANCH  20  22
ATOM     21  N   UNL     1      -2.551  -4.153   0.004  0.00  0.00    -0.315 N 
ATOM     22  C   UNL     1      -3.709  -4.843   0.011  0.00  0.00    +0.196 C 
ATOM     23  O   UNL     1      -4.768  -4.251   0.025  0.00  0.00    -0.278 OA
ATOM     24  H   UNL     1      -1.705  -4.627  -0.006  0.00  0.00    +0.149 HD
BRANCH  21  25
ATOM     25  C   UNL     1      -2.571  -2.688   0.012  0.00  0.00    +0.123 C 
BRANCH  25  26
ATOM     26  C   UNL     1      -1.136  -2.159   0.001  0.00  0.00    +0.123 C 
BRANCH  26  30
ATOM     27  C   UNL     1      -0.018   1.503   0.010  0.00  0.00    +0.109 C 
ATOM     28  C   UNL     1       0.002  -0.004   0.002  0.00  0.00    +0.210 C 
ATOM     29  O   UNL     1       1.060  -0.596  -0.011  0.00  0.00    -0.276 OA
ATOM     30  N   UNL     1      -1.156  -0.694   0.009  0.00  0.00    -0.314 N 
ATOM     31  H   UNL     1      -2.002  -0.220   0.020  0.00  0.00    +0.149 HD
ENDBRANCH  26  30
ENDBRANCH  25  26
ENDBRANCH  21  25
ENDBRANCH  20  22
ENDBRANCH   1  20
TORSDOF 8
