REMARK  Name = ZINC34954485
REMARK  6 active torsions:
REMARK  status: ('A' for Active; 'I' for Inactive)
REMARK    1  A    between atoms: C_4  and  C_7
REMARK    2  A    between atoms: C_7  and  C_8
REMARK    3  A    between atoms: C_17  and  C_25
REMARK    4  A    between atoms: C_18  and  N_24
REMARK    5  A    between atoms: C_19  and  C_20
REMARK    6  A    between atoms: C_19  and  C_22
REMARK                            x       y       z     vdW  Elec       q    Type
REMARK                         _______ _______ _______ _____ _____    ______ ____
ROOT
ATOM      1  C   UNL     1       4.233  -0.854   1.393  0.00  0.00    +0.041 C 
ATOM      2  C   UNL     1       5.571  -1.595   1.377  0.00  0.00    +0.026 C 
ATOM      3  C   UNL     1       5.405  -3.048   0.996  0.00  0.00    +0.009 C 
ATOM      4  C   UNL     1       5.731  -3.291  -0.477  0.00  0.00    +0.005 C 
ATOM      5  C   UNL     1       7.179  -2.852  -0.730  0.00  0.00    +0.027 C 
ATOM      6  C   UNL     1       7.274  -1.379  -0.425  0.00  0.00    -0.022 C 
ATOM      7  C   UNL     1       6.517  -0.841   0.491  0.00  0.00    -0.029 C 
ATOM      8  C   UNL     1       6.566   0.635   0.660  0.00  0.00    +0.074 C 
ATOM      9  C   UNL     1       5.583   1.256   1.360  0.00  0.00    +0.054 C 
ATOM     10  C   UNL     1       4.439   0.531   2.008  0.00  0.00    +0.184 C 
ENDROOT
BRANCH   9  11
ATOM     11  N   UNL     1       5.638   2.616   1.483  0.00  0.00    -0.358 N 
ATOM     12  H   UNL     1       6.366   3.111   1.075  0.00  0.00    +0.142 HD
ATOM     13  H   UNL     1       4.949   3.087   1.978  0.00  0.00    +0.142 HD
ENDBRANCH   9  11
BRANCH  10  14
ATOM     14  C   UNL     1       3.208   1.320   1.837  0.00  0.00    +0.091 C 
ATOM     15  N   UNL     1       2.258   1.929   1.705  0.00  0.00    -0.195 NA
ENDBRANCH  10  14
BRANCH  10  16
ATOM     16  C   UNL     1       4.716   0.382   3.446  0.00  0.00    +0.091 C 
ATOM     17  N   UNL     1       4.931   0.267   4.555  0.00  0.00    -0.195 NA
ENDBRANCH  10  16
BRANCH   8  18
ATOM     18  C   UNL     1       7.638   1.394   0.091  0.00  0.00    +0.101 C 
ATOM     19  N   UNL     1       8.489   1.996  -0.361  0.00  0.00    -0.191 NA
ENDBRANCH   8  18
BRANCH   1  20
ATOM     20  C   UNL     1       3.711  -0.707  -0.038  0.00  0.00    +0.042 C 
BRANCH  20  24
ATOM     21  C   UNL     1      -0.284   0.802   0.050  0.00  0.00    +0.000 A 
ATOM     22  C   UNL     1       0.720   1.538  -0.551  0.00  0.00    +0.000 A 
ATOM     23  C   UNL     1       2.013   1.050  -0.579  0.00  0.00    +0.003 A 
ATOM     24  C   UNL     1       2.302  -0.174  -0.006  0.00  0.00    -0.047 A 
ATOM     25  C   UNL     1       1.298  -0.910   0.596  0.00  0.00    +0.003 A 
ATOM     26  C   UNL     1       0.005  -0.422   0.623  0.00  0.00    +0.000 A 
ENDBRANCH  20  24
ENDBRANCH   1  20
TORSDOF 6
