REMARK  Name = ZINC22287215
REMARK  9 active torsions:
REMARK  status: ('A' for Active; 'I' for Inactive)
REMARK    1  A    between atoms: C_4  and  C_7
REMARK    2  A    between atoms: C_7  and  C_9
REMARK    3  A    between atoms: C_7  and  N_12
REMARK    4  A    between atoms: C_13  and  C_15
REMARK    5  A    between atoms: C_17  and  S_21
REMARK    6  A    between atoms: S_21  and  N_24
REMARK    7  A    between atoms: N_24  and  C_25
REMARK    8  A    between atoms: C_25  and  C_27
REMARK    9  A    between atoms: C_25  and  C_33
REMARK                            x       y       z     vdW  Elec       q    Type
REMARK                         _______ _______ _______ _____ _____    ______ ____
ROOT
ATOM      1  C   UNL     1       4.744   5.005  -2.869  0.00  0.00    +0.104 A 
ATOM      2  C   UNL     1       5.739   5.757  -3.456  0.00  0.00    +0.060 A 
ATOM      3  C   UNL     1       5.123   6.866  -4.045  0.00  0.00    +0.123 A 
ATOM      4  C   UNL     1       3.793   6.779  -3.803  0.00  0.00    +0.112 A 
ATOM      5  N   UNL     1       3.550   5.653  -3.090  0.00  0.00    -0.355 N 
ATOM      6  H   UNL     1       2.613   5.227  -2.700  0.00  0.00    +0.166 HD
ENDROOT
BRANCH   1   8
ATOM      7  N   UNL     1       3.860   3.117  -1.604  0.00  0.00    -0.303 N 
ATOM      8  C   UNL     1       4.926   3.748  -2.136  0.00  0.00    +0.261 C 
ATOM      9  O   UNL     1       6.040   3.274  -2.007  0.00  0.00    -0.269 OA
ATOM     10  H   UNL     1       2.853   3.546  -1.720  0.00  0.00    +0.150 HD
BRANCH   7  11
ATOM     11  C   UNL     1       4.042   1.861  -0.873  0.00  0.00    +0.107 C 
BRANCH  11  15
ATOM     12  C   UNL     1       0.418  -0.398  -0.999  0.00  0.00    +0.000 A 
ATOM     13  C   UNL     1       0.372   0.973  -0.826  0.00  0.00    +0.000 A 
ATOM     14  C   UNL     1       1.545   1.704  -0.784  0.00  0.00    +0.005 A 
ATOM     15  C   UNL     1       2.763   1.064  -0.917  0.00  0.00    -0.027 A 
ATOM     16  C   UNL     1       2.809  -0.307  -1.089  0.00  0.00    +0.005 A 
ATOM     17  C   UNL     1       1.636  -1.038  -1.130  0.00  0.00    +0.000 A 
ENDBRANCH  11  15
BRANCH  11  18
ATOM     18  C   UNL     1       4.402   2.166   0.583  0.00  0.00    +0.014 C 
ATOM     19  C   UNL     1       4.303   3.622   1.045  0.00  0.00    +0.006 C 
ATOM     20  C   UNL     1       5.675   2.974   0.841  0.00  0.00    +0.006 C 
ENDBRANCH  11  18
ENDBRANCH   7  11
ENDBRANCH   1   8
BRANCH   3  21
ATOM     21  S   UNL     1       5.934   8.152  -4.935  0.00  0.00    +0.060 S 
ATOM     22  O   UNL     1       7.209   7.647  -5.307  0.00  0.00    -0.153 OA
ATOM     23  O   UNL     1       4.999   8.637  -5.889  0.00  0.00    -0.153 OA
BRANCH  21  24
ATOM     24  N   UNL     1       6.207   9.389  -3.869  0.00  0.00    -0.182 NA
ATOM     25  H   UNL     1       5.601  10.304  -3.941  0.00  0.00    +0.149 HD
BRANCH  24  26
ATOM     26  C   UNL     1       7.086   9.181  -2.715  0.00  0.00    +0.109 C 
BRANCH  26  27
ATOM     27  C   UNL     1       8.475   9.662  -3.049  0.00  0.00    -0.029 A 
ATOM     28  C   UNL     1       8.647  10.821  -3.780  0.00  0.00    +0.005 A 
ATOM     29  C   UNL     1       9.921  11.265  -4.082  0.00  0.00    +0.000 A 
ATOM     30  C   UNL     1      11.023  10.544  -3.660  0.00  0.00    +0.000 A 
ATOM     31  C   UNL     1      10.850   9.381  -2.933  0.00  0.00    +0.000 A 
ATOM     32  C   UNL     1       9.576   8.940  -2.627  0.00  0.00    +0.005 A 
ENDBRANCH  26  27
BRANCH  26  33
ATOM     33  C   UNL     1       6.548   9.965  -1.517  0.00  0.00    +0.012 C 
ATOM     34  C   UNL     1       6.420   9.221  -0.186  0.00  0.00    +0.006 C 
ATOM     35  C   UNL     1       5.165   9.583  -0.985  0.00  0.00    +0.006 C 
ENDBRANCH  26  33
ENDBRANCH  24  26
ENDBRANCH  21  24
ENDBRANCH   3  21
TORSDOF 9
