REMARK  Name = ZINC57120967
REMARK  8 active torsions:
REMARK  status: ('A' for Active; 'I' for Inactive)
REMARK    1  A    between atoms: C_1  and  C_2
REMARK    2  A    between atoms: C_12  and  C_19
REMARK    3  A    between atoms: C_15  and  C_18
REMARK    4  A    between atoms: N_21  and  C_22
REMARK    5  A    between atoms: C_24  and  O_30
REMARK    6  A    between atoms: C_27  and  O_28
REMARK    7  A    between atoms: O_28  and  C_29
REMARK    8  A    between atoms: O_30  and  C_31
REMARK                            x       y       z     vdW  Elec       q    Type
REMARK                         _______ _______ _______ _____ _____    ______ ____
ROOT
ATOM      1  C   UNL     1       0.085   1.449  -0.057  0.00  0.00    +0.046 C 
ATOM      2  C   UNL     1       0.079  -0.058  -0.045  0.00  0.00    -0.028 A 
ATOM      3  C   UNL     1       0.073  -0.755  -1.236  0.00  0.00    +0.025 A 
ATOM      4  C   UNL     1       0.067  -2.138  -1.236  0.00  0.00    +0.042 A 
ATOM      5  C   UNL     1       0.067  -2.827  -0.034  0.00  0.00    +0.027 A 
ATOM      6  C   UNL     1       0.074  -2.135   1.156  0.00  0.00    +0.005 A 
ATOM      7  C   UNL     1       0.084  -0.743   1.167  0.00  0.00    +0.042 A 
ATOM      8  N   UNL     1       0.093  -0.271   2.482  0.00  0.00    -0.283 N 
ATOM      9  C   UNL     1       0.096  -1.274   3.382  0.00  0.00    +0.243 C 
ATOM     10  O   UNL     1       0.103  -1.163   4.590  0.00  0.00    -0.273 OA
ATOM     11  C   UNL     1       0.079  -2.558   2.598  0.00  0.00    +0.135 C 
ATOM     12  C   UNL     1      -1.161  -3.408   2.933  0.00  0.00    +0.110 C 
ATOM     13  C   UNL     1      -0.676  -4.181   4.189  0.00  0.00    +0.034 C 
ATOM     14  C   UNL     1       0.823  -4.413   3.902  0.00  0.00    +0.053 C 
ATOM     15  N   UNL     1       1.242  -3.394   2.919  0.00  0.00    -0.296 NA
ATOM     16  C   UNL     1       1.630  -4.259   5.193  0.00  0.00    +0.024 C 
ATOM     17 CL   UNL     1       0.058  -3.009  -2.738  0.00  0.00    -0.084 Cl
ATOM     18  H   UNL     1       0.096   0.669   2.720  0.00  0.00    +0.155 HD
ATOM     19  H   UNL     1       1.617  -3.826   2.088  0.00  0.00    +0.123 HD
ENDROOT
BRANCH  12  20
ATOM     20  C   UNL     1      -1.487  -4.354   1.807  0.00  0.00    +0.223 C 
ATOM     21  O   UNL     1      -0.929  -5.429   1.737  0.00  0.00    -0.275 OA
ATOM     22  N   UNL     1      -2.399  -4.007   0.877  0.00  0.00    -0.282 N 
ATOM     23  H   UNL     1      -2.801  -3.124   0.899  0.00  0.00    +0.155 HD
BRANCH  22  24
ATOM     24  C   UNL     1      -2.766  -4.920  -0.120  0.00  0.00    +0.079 A 
ATOM     25  C   UNL     1      -1.888  -5.925  -0.499  0.00  0.00    +0.072 A 
ATOM     26  C   UNL     1      -2.254  -6.827  -1.486  0.00  0.00    +0.122 A 
ATOM     27  C   UNL     1      -3.497  -6.725  -2.094  0.00  0.00    +0.049 A 
ATOM     28  C   UNL     1      -4.373  -5.724  -1.718  0.00  0.00    +0.051 A 
ATOM     29  C   UNL     1      -4.015  -4.824  -0.728  0.00  0.00    +0.141 A 
BRANCH  29  30
ATOM     30  O   UNL     1      -4.881  -3.843  -0.355  0.00  0.00    -0.493 OA
ATOM     31  C   UNL     1      -6.144  -3.805  -1.021  0.00  0.00    +0.277 C 
ENDBRANCH  29  30
BRANCH  26  32
ATOM     32  O   UNL     1      -1.394  -7.812  -1.859  0.00  0.00    -0.495 OA
ATOM     33  C   UNL     1      -1.836  -8.706  -2.882  0.00  0.00    +0.277 C 
ENDBRANCH  26  32
ENDBRANCH  22  24
ENDBRANCH  12  20
TORSDOF 4
