REMARK  Name = ZINC17201355
REMARK  10 active torsions:
REMARK  status: ('A' for Active; 'I' for Inactive)
REMARK    1  A    between atoms: C_1  and  C_2
REMARK    2  A    between atoms: C_5  and  O_12
REMARK    3  A    between atoms: C_8  and  C_10
REMARK    4  A    between atoms: C_8  and  C_11
REMARK    5  A    between atoms: O_12  and  C_13
REMARK    6  A    between atoms: C_13  and  C_14
REMARK    7  A    between atoms: C_14  and  C_16
REMARK    8  A    between atoms: C_14  and  S_29
REMARK    9  A    between atoms: C_16  and  N_62
REMARK   10  A    between atoms: N_19  and  C_22
REMARK                            x       y       z     vdW  Elec       q    Type
REMARK                         _______ _______ _______ _____ _____    ______ ____
ROOT
ATOM      1  C   UNL     1      -1.092   2.477  -3.689  0.00  0.00    -0.062 C 
ENDROOT
BRANCH   1   7
ATOM      2  C   UNL     1      -1.637   2.261  -6.039  0.00  0.00    -0.060 C 
ATOM      3  C   UNL     1      -2.477   2.856  -7.172  0.00  0.00    +0.086 C 
ATOM      4  N   UNL     1      -2.074   4.252  -7.395  0.00  0.00    -0.333 N 
ATOM      5  C   UNL     1      -2.261   5.052  -6.177  0.00  0.00    +0.086 C 
ATOM      6  C   UNL     1      -1.422   4.457  -5.044  0.00  0.00    -0.060 C 
ATOM      7  N   UNL     1      -1.852   3.061  -4.816  0.00  0.00    +0.382 N 
ATOM      8  H   UNL     1      -2.852   3.054  -4.583  0.00  0.00    -0.082 HD
BRANCH   4   9
ATOM      9  C   UNL     1      -2.771   4.808  -8.472  0.00  0.00    +0.030 A 
ATOM     10  C   UNL     1      -3.516   5.967  -8.294  0.00  0.00    +0.026 A 
ATOM     11  C   UNL     1      -4.200   6.517  -9.361  0.00  0.00    +0.040 A 
ATOM     12  C   UNL     1      -4.151   5.909 -10.604  0.00  0.00    +0.124 A 
ATOM     13  C   UNL     1      -3.413   4.751 -10.782  0.00  0.00    +0.040 A 
ATOM     14  C   UNL     1      -2.724   4.200  -9.720  0.00  0.00    +0.026 A 
ATOM     15  F   UNL     1      -4.824   6.447 -11.645  0.00  0.00    -0.205 F 
ENDBRANCH   4   9
ENDBRANCH   1   7
BRANCH   1  16
ATOM     16  C   UNL     1      -1.707   1.123  -3.329  0.00  0.00    +0.052 C 
BRANCH  16  17
ATOM     17  S   UNL     1      -3.447   1.351  -2.871  0.00  0.00    -0.174 S 
ATOM     18  H   UNL     1      -3.399   2.183  -1.815  0.00  0.00    +0.102 HD
ENDBRANCH  16  17
BRANCH  16  19
ATOM     19  C   UNL     1      -0.945   0.514  -2.151  0.00  0.00    +0.172 C 
BRANCH  19  20
ATOM     20  O   UNL     1      -0.930   1.440  -1.063  0.00  0.00    -0.376 OA
BRANCH  20  24
ATOM     21  C   UNL     1       2.821   3.290  -0.153  0.00  0.00    +0.007 C 
ATOM     22  C   UNL     1       1.347   2.891  -0.066  0.00  0.00    -0.011 C 
ATOM     23  C   UNL     1       1.235   1.367   0.007  0.00  0.00    +0.035 C 
ATOM     24  C   UNL     1      -0.239   0.967   0.095  0.00  0.00    +0.119 C 
ATOM     25  C   UNL     1      -0.862   1.585   1.348  0.00  0.00    +0.038 C 
ATOM     26  C   UNL     1      -0.750   3.109   1.275  0.00  0.00    -0.032 C 
ATOM     27  C   UNL     1       0.725   3.509   1.188  0.00  0.00    +0.009 C 
ATOM     28  C   UNL     1      -1.372   3.727   2.529  0.00  0.00    +0.011 C 
ATOM     29  C   UNL     1      -1.490   3.616   0.036  0.00  0.00    +0.011 C 
ENDBRANCH  20  24
ENDBRANCH  19  20
ENDBRANCH  16  19
ENDBRANCH   1  16
TORSDOF 7
