REMARK  Name = ZINC22854939
REMARK  6 active torsions:
REMARK  status: ('A' for Active; 'I' for Inactive)
REMARK    1  A    between atoms: C_1  and  C_2
REMARK    2  A    between atoms: C_2  and  C_3
REMARK    3  A    between atoms: C_9  and  C_11
REMARK    4  A    between atoms: C_11  and  C_13
REMARK    5  A    between atoms: C_11  and  N_18
REMARK    6  A    between atoms: N_21  and  C_24
REMARK                            x       y       z     vdW  Elec       q    Type
REMARK                         _______ _______ _______ _____ _____    ______ ____
ROOT
ATOM      1  C   UNL     1       1.669   7.546  -1.035  0.00  0.00    +0.042 C 
ENDROOT
BRANCH   1   8
ATOM      2  C   UNL     1      -1.856  10.012  -5.164  0.00  0.00    +0.152 A 
ATOM      3  N   UNL     1      -1.036   9.038  -5.554  0.00  0.00    -0.205 NA
ATOM      4  C   UNL     1      -0.346   8.619  -4.529  0.00  0.00    +0.199 A 
ATOM      5  N   UNL     1      -0.703   9.323  -3.419  0.00  0.00    -0.170 N 
ATOM      6  N   UNL     1      -1.695  10.224  -3.886  0.00  0.00    -0.146 NA
ATOM      7  C   UNL     1      -0.071   9.004  -2.241  0.00  0.00    +0.282 A 
ATOM      8  C   UNL     1       0.861   8.045  -2.206  0.00  0.00    +0.053 A 
ATOM      9  S   UNL     1       0.892   7.506  -3.909  0.00  0.00    -0.050 S 
ATOM     10  O   UNL     1      -0.395   9.673  -1.101  0.00  0.00    -0.265 OA
BRANCH   2  12
ATOM     11  C   UNL     1      -4.164  10.028  -6.070  0.00  0.00    +0.012 C 
ATOM     12  C   UNL     1      -2.817  10.753  -6.058  0.00  0.00    +0.075 C 
ENDBRANCH   2  12
ENDBRANCH   1   8
BRANCH   1  13
ATOM     13  N   UNL     1       1.686   6.078  -1.042  0.00  0.00    +0.392 N 
ATOM     14  C   UNL     1       2.466   5.554   0.088  0.00  0.00    -0.058 C 
ATOM     15  C   UNL     1       2.526   4.028  -0.001  0.00  0.00    +0.086 C 
ATOM     16  N   UNL     1       1.161   3.485   0.009  0.00  0.00    -0.333 N 
ATOM     17  C   UNL     1       0.381   4.008  -1.121  0.00  0.00    +0.086 C 
ATOM     18  C   UNL     1       0.320   5.535  -1.032  0.00  0.00    -0.058 C 
ATOM     19  H   UNL     1       2.175   5.752  -1.972  0.00  0.00    -0.080 HD
BRANCH  16  20
ATOM     20  C   UNL     1       1.177   2.087   0.002  0.00  0.00    +0.030 A 
ATOM     21  C   UNL     1      -0.017   1.377   0.010  0.00  0.00    +0.026 A 
ATOM     22  C   UNL     1       0.002  -0.004   0.002  0.00  0.00    +0.040 A 
ATOM     23  C   UNL     1       1.210  -0.681  -0.013  0.00  0.00    +0.124 A 
ATOM     24  C   UNL     1       2.401   0.025  -0.021  0.00  0.00    +0.040 A 
ATOM     25  C   UNL     1       2.387   1.406  -0.013  0.00  0.00    +0.026 A 
ATOM     26  F   UNL     1       1.226  -2.032  -0.020  0.00  0.00    -0.205 F 
ENDBRANCH  16  20
ENDBRANCH   1  13
BRANCH   1  27
ATOM     27  C   UNL     1       3.079   8.066  -1.140  0.00  0.00    +0.096 A 
ATOM     28  C   UNL     1       3.581   9.119  -0.470  0.00  0.00    +0.043 A 
ATOM     29  C   UNL     1       4.932   9.251  -0.868  0.00  0.00    +0.041 A 
ATOM     30  C   UNL     1       5.174   8.271  -1.757  0.00  0.00    +0.195 A 
ATOM     31  O   UNL     1       4.050   7.553  -1.913  0.00  0.00    -0.469 OA
ENDBRANCH   1  27
TORSDOF 5
