REMARK  Name = ZINC66968112
REMARK  10 active torsions:
REMARK  status: ('A' for Active; 'I' for Inactive)
REMARK    1  A    between atoms: C_1  and  C_2
REMARK    2  A    between atoms: C_2  and  C_3
REMARK    3  A    between atoms: C_3  and  N_4
REMARK    4  A    between atoms: C_10  and  N_13
REMARK    5  A    between atoms: N_13  and  C_14
REMARK    6  A    between atoms: C_14  and  C_16
REMARK    7  A    between atoms: C_14  and  C_17
REMARK    8  A    between atoms: N_19  and  C_20
REMARK    9  A    between atoms: C_23  and  N_27
REMARK   10  A    between atoms: C_25  and  C_26
REMARK                            x       y       z     vdW  Elec       q    Type
REMARK                         _______ _______ _______ _____ _____    ______ ____
ROOT
ATOM      1  C   UNL     1      -6.999  -3.049   1.573  0.00  0.00    +0.154 C 
ATOM      2  C   UNL     1      -7.291  -4.540   1.754  0.00  0.00    +0.038 C 
ENDROOT
BRANCH   1   3
ATOM      3  C   UNL     1      -8.015  -2.448   0.636  0.00  0.00    +0.237 C 
ATOM      4  O   UNL     1      -7.653  -1.928  -0.398  0.00  0.00    -0.273 OA
ATOM      5  N   UNL     1      -9.325  -2.487   0.948  0.00  0.00    -0.284 N 
ATOM      6  H   UNL     1      -9.623  -2.972   1.734  0.00  0.00    +0.155 HD
BRANCH   5   7
ATOM      7  C   UNL     1     -10.258  -1.830   0.138  0.00  0.00    +0.036 A 
ATOM      8  C   UNL     1      -9.863  -0.751  -0.643  0.00  0.00    +0.026 A 
ATOM      9  C   UNL     1     -10.785  -0.104  -1.442  0.00  0.00    +0.034 A 
ATOM     10  C   UNL     1     -12.101  -0.529  -1.464  0.00  0.00    +0.127 A 
ATOM     11  C   UNL     1     -12.497  -1.602  -0.688  0.00  0.00    +0.038 A 
ATOM     12  C   UNL     1     -11.578  -2.257   0.109  0.00  0.00    -0.027 A 
ATOM     13  C   UNL     1     -12.010  -3.431   0.950  0.00  0.00    +0.046 C 
BRANCH  10  14
ATOM     14  N   UNL     1     -13.087   0.167  -2.321  0.00  0.00    +0.056 N 
ATOM     15  O   UNL     1     -12.742   1.105  -3.001  0.00  0.00    -0.126 OA
ATOM     16  O   UNL     1     -14.238  -0.204  -2.342  0.00  0.00    -0.126 OA
ENDBRANCH  10  14
ENDBRANCH   5   7
ENDBRANCH   1   3
BRANCH   1  17
ATOM     17  N   UNL     1      -5.656  -2.878   1.012  0.00  0.00    -0.333 N 
ATOM     18  H   UNL     1      -5.540  -2.780   0.054  0.00  0.00    +0.147 HD
BRANCH  17  25
ATOM     19  N   UNL     1      -1.414  -1.980   0.014  0.00  0.00    +0.385 N 
ATOM     20  C   UNL     1      -0.933  -2.489   1.318  0.00  0.00    -0.042 C 
ATOM     21  C   UNL     1      -2.172  -2.676   2.165  0.00  0.00    -0.061 A 
ATOM     22  C   UNL     1      -2.341  -2.816   3.530  0.00  0.00    +0.002 A 
ATOM     23  C   UNL     1      -3.607  -2.976   4.061  0.00  0.00    +0.002 A 
ATOM     24  C   UNL     1      -4.709  -2.997   3.229  0.00  0.00    +0.023 A 
ATOM     25  C   UNL     1      -4.544  -2.857   1.857  0.00  0.00    +0.029 A 
ATOM     26  C   UNL     1      -3.271  -2.696   1.326  0.00  0.00    -0.042 A 
ATOM     27  C   UNL     1      -2.787  -2.523  -0.095  0.00  0.00    -0.040 C 
ATOM     28  H   UNL     1      -0.836  -2.325  -0.738  0.00  0.00    -0.081 HD
BRANCH  19  29
ATOM     29  C   UNL     1      -1.439  -0.511   0.012  0.00  0.00    -0.078 C 
BRANCH  29  31
ATOM     30  C   UNL     1      -0.032   1.554  -0.003  0.00  0.00    +0.002 C 
ATOM     31  C   UNL     1      -0.006   0.024  -0.001  0.00  0.00    -0.022 C 
ENDBRANCH  29  31
ENDBRANCH  19  29
ENDBRANCH  17  25
ENDBRANCH   1  17
TORSDOF 7
