REMARK  Name = ZINC63112031
REMARK  11 active torsions:
REMARK  status: ('A' for Active; 'I' for Inactive)
REMARK    1  A    between atoms: C_1  and  C_2
REMARK    2  A    between atoms: C_6  and  C_8
REMARK    3  A    between atoms: C_8  and  C_10
REMARK    4  A    between atoms: C_8  and  N_34
REMARK    5  A    between atoms: C_10  and  C_11
REMARK    6  A    between atoms: N_13  and  C_14
REMARK    7  A    between atoms: C_14  and  C_15
REMARK    8  A    between atoms: C_15  and  C_17
REMARK    9  A    between atoms: C_15  and  C_25
REMARK   10  A    between atoms: C_20  and  O_23
REMARK   11  A    between atoms: O_23  and  C_24
REMARK                            x       y       z     vdW  Elec       q    Type
REMARK                         _______ _______ _______ _____ _____    ______ ____
ROOT
ATOM      1  C   UNL     1      -1.531  -3.961   4.035  0.00  0.00    +0.215 C 
ATOM      2  O   UNL     1      -0.546  -4.152   4.717  0.00  0.00    -0.276 OA
ATOM      3  N   UNL     1      -2.735  -4.400   4.452  0.00  0.00    -0.314 N 
ATOM      4  H   UNL     1      -3.522  -4.246   3.907  0.00  0.00    +0.149 HD
ENDROOT
BRANCH   1   5
ATOM      5  C   UNL     1      -1.408  -3.231   2.722  0.00  0.00    +0.122 C 
BRANCH   5   6
ATOM      6  C   UNL     1       0.054  -2.845   2.489  0.00  0.00    +0.113 C 
BRANCH   6  12
ATOM      7  C   UNL     1       0.156  -2.510  -2.504  0.00  0.00    +0.044 C 
ATOM      8  C   UNL     1       0.208  -1.850  -1.150  0.00  0.00    -0.050 A 
ATOM      9  C   UNL     1       0.353  -0.478  -1.055  0.00  0.00    +0.003 A 
ATOM     10  C   UNL     1       0.401   0.128   0.186  0.00  0.00    +0.001 A 
ATOM     11  C   UNL     1       0.304  -0.638   1.333  0.00  0.00    +0.005 A 
ATOM     12  C   UNL     1       0.159  -2.010   1.238  0.00  0.00    -0.026 A 
ATOM     13  C   UNL     1       0.107  -2.615  -0.004  0.00  0.00    +0.008 A 
ENDBRANCH   6  12
BRANCH   6  14
ATOM     14  N   UNL     1       0.861  -4.057   2.335  0.00  0.00    -0.292 N 
ATOM     15  C   UNL     1       2.183  -4.025   2.597  0.00  0.00    +0.298 C 
ATOM     16  O   UNL     1       2.688  -3.015   3.048  0.00  0.00    -0.253 OA
ATOM     17  N   UNL     1       2.943  -5.112   2.360  0.00  0.00    -0.313 N 
ATOM     18  H   UNL     1       0.444  -4.884   2.044  0.00  0.00    +0.151 HD
ATOM     19  H   UNL     1       2.540  -5.917   2.001  0.00  0.00    +0.146 HD
ATOM     20  H   UNL     1       3.895  -5.088   2.549  0.00  0.00    +0.146 HD
ENDBRANCH   6  14
ENDBRANCH   5   6
ENDBRANCH   1   5
BRANCH   3  21
ATOM     21  C   UNL     1      -2.854  -5.109   5.728  0.00  0.00    +0.116 C 
BRANCH  21  22
ATOM     22  C   UNL     1      -4.316  -5.495   5.962  0.00  0.00    +0.064 C 
BRANCH  22  23
ATOM     23  C   UNL     1      -5.147  -4.248   6.120  0.00  0.00    -0.033 C 
ATOM     24  C   UNL     1      -6.192  -3.865   5.353  0.00  0.00    -0.000 A 
ATOM     25  C   UNL     1      -6.844  -4.470   4.186  0.00  0.00    +0.010 A 
ATOM     26  C   UNL     1      -7.894  -3.835   3.617  0.00  0.00    +0.001 A 
ATOM     27  C   UNL     1      -8.375  -2.616   4.114  0.00  0.00    +0.002 A 
ATOM     28  C   UNL     1      -7.828  -1.998   5.182  0.00  0.00    +0.026 A 
ATOM     29  C   UNL     1      -6.719  -2.576   5.858  0.00  0.00    +0.043 A 
ATOM     30  N   UNL     1      -6.026  -2.179   6.897  0.00  0.00    -0.380 N 
ATOM     31  C   UNL     1      -4.983  -3.174   7.173  0.00  0.00    +0.145 C 
ATOM     32  H   UNL     1      -6.179  -1.365   7.402  0.00  0.00    +0.160 HD
ENDBRANCH  22  23
BRANCH  22  33
ATOM     33  C   UNL     1      -4.421  -6.330   7.212  0.00  0.00    -0.038 A 
ATOM     34  C   UNL     1      -4.020  -5.807   8.427  0.00  0.00    +0.008 A 
ATOM     35  C   UNL     1      -4.115  -6.571   9.575  0.00  0.00    +0.046 A 
ATOM     36  C   UNL     1      -4.614  -7.863   9.507  0.00  0.00    +0.120 A 
ATOM     37  C   UNL     1      -5.016  -8.386   8.287  0.00  0.00    +0.046 A 
ATOM     38  C   UNL     1      -4.924  -7.617   7.143  0.00  0.00    +0.008 A 
BRANCH  36  39
ATOM     39  O   UNL     1      -4.707  -8.617  10.634  0.00  0.00    -0.495 OA
ATOM     40  C   UNL     1      -5.231  -9.938  10.489  0.00  0.00    +0.277 C 
ENDBRANCH  36  39
ENDBRANCH  22  33
ENDBRANCH  21  22
ENDBRANCH   3  21
TORSDOF 9
