REMARK  Name = ZINC38576777
REMARK  10 active torsions:
REMARK  status: ('A' for Active; 'I' for Inactive)
REMARK    1  A    between atoms: C_1  and  C_2
REMARK    2  A    between atoms: C_4  and  C_40
REMARK    3  A    between atoms: C_5  and  O_39
REMARK    4  A    between atoms: C_6  and  C_8
REMARK    5  A    between atoms: C_11  and  C_13
REMARK    6  A    between atoms: N_15  and  C_16
REMARK    7  A    between atoms: C_18  and  C_28
REMARK    8  A    between atoms: N_30  and  C_31
REMARK    9  A    between atoms: C_31  and  C_32
REMARK   10  A    between atoms: C_32  and  C_33
REMARK                            x       y       z     vdW  Elec       q    Type
REMARK                         _______ _______ _______ _____ _____    ______ ____
ROOT
ATOM      1  C   UNL     1       0.043  -5.007   8.248  0.00  0.00    +0.144 C 
ATOM      2  C   UNL     1      -0.913  -6.165   8.591  0.00  0.00    +0.109 C 
ATOM      3  C   UNL     1      -1.574  -6.016   9.954  0.00  0.00    +0.016 C 
ATOM      4  C   UNL     1      -3.063  -6.414   9.833  0.00  0.00    +0.005 C 
ATOM      5  C   UNL     1      -3.810  -5.438  10.772  0.00  0.00    +0.001 C 
ATOM      6  C   UNL     1      -3.023  -4.116  10.587  0.00  0.00    +0.014 C 
ATOM      7  C   UNL     1      -1.575  -4.570  10.494  0.00  0.00    +0.052 C 
ATOM      8  S   UNL     1      -0.694  -3.616   9.199  0.00  0.00    -0.134 S 
ENDROOT
BRANCH   1  11
ATOM      9  C   UNL     1       1.189  -4.543   6.148  0.00  0.00    +0.261 C 
ATOM     10  O   UNL     1       2.241  -4.522   6.758  0.00  0.00    -0.269 OA
ATOM     11  N   UNL     1       0.029  -4.725   6.810  0.00  0.00    -0.298 N 
ATOM     12  H   UNL     1      -0.815  -4.669   6.335  0.00  0.00    +0.150 HD
BRANCH   9  16
ATOM     13  C   UNL     1       1.710  -4.055   2.419  0.00  0.00    +0.080 C 
ATOM     14  N   UNL     1       0.427  -4.197   2.663  0.00  0.00    -0.153 NA
ATOM     15  N   UNL     1       0.145  -4.368   3.895  0.00  0.00    -0.148 NA
ATOM     16  C   UNL     1       1.182  -4.371   4.692  0.00  0.00    +0.131 C 
ATOM     17  C   UNL     1       2.380  -4.163   3.779  0.00  0.00    +0.120 C 
BRANCH  13  23
ATOM     18  C   UNL     1       5.843  -3.382  -0.278  0.00  0.00    +0.044 C 
ATOM     19  C   UNL     1       4.345  -3.518  -0.188  0.00  0.00    -0.049 A 
ATOM     20  C   UNL     1       3.575  -3.443  -1.339  0.00  0.00    +0.010 A 
ATOM     21  C   UNL     1       2.201  -3.566  -1.273  0.00  0.00    -0.008 A 
ATOM     22  C   UNL     1       1.579  -3.766  -0.050  0.00  0.00    +0.129 A 
ATOM     23  C   UNL     1       2.354  -3.844   1.121  0.00  0.00    +0.040 A 
ATOM     24  C   UNL     1       3.748  -3.722   1.036  0.00  0.00    +0.016 A 
ATOM     25  C   UNL     1       1.377  -3.483  -2.531  0.00  0.00    +0.047 C 
BRANCH  22  26
ATOM     26  O   UNL     1       0.230  -3.887   0.016  0.00  0.00    -0.506 OA
ATOM     27  H   UNL     1      -0.089  -4.795  -0.071  0.00  0.00    +0.292 HD
ENDBRANCH  22  26
ENDBRANCH  13  23
ENDBRANCH   9  16
ENDBRANCH   1  11
BRANCH   2  28
ATOM     28  C   UNL     1      -1.990  -6.231   7.539  0.00  0.00    +0.219 C 
ATOM     29  O   UNL     1      -2.613  -5.233   7.245  0.00  0.00    -0.275 OA
ATOM     30  N   UNL     1      -2.261  -7.400   6.925  0.00  0.00    -0.315 N 
ATOM     31  H   UNL     1      -1.715  -8.181   7.107  0.00  0.00    +0.149 HD
BRANCH  30  32
ATOM     32  C   UNL     1      -3.380  -7.491   5.983  0.00  0.00    +0.109 C 
BRANCH  32  33
ATOM     33  C   UNL     1      -3.468  -8.915   5.432  0.00  0.00    +0.054 C 
BRANCH  33  34
ATOM     34  C   UNL     1      -4.619  -9.008   4.463  0.00  0.00    -0.046 A 
ATOM     35  C   UNL     1      -5.879  -9.348   4.918  0.00  0.00    +0.004 A 
ATOM     36  C   UNL     1      -6.934  -9.433   4.029  0.00  0.00    +0.000 A 
ATOM     37  C   UNL     1      -6.729  -9.178   2.686  0.00  0.00    +0.000 A 
ATOM     38  C   UNL     1      -5.469  -8.838   2.232  0.00  0.00    +0.000 A 
ATOM     39  C   UNL     1      -4.415  -8.748   3.121  0.00  0.00    +0.004 A 
ENDBRANCH  33  34
ENDBRANCH  32  33
ENDBRANCH  30  32
ENDBRANCH   2  28
TORSDOF 8
