REMARK  Name = ZINC01607579
REMARK  17 active torsions:
REMARK  status: ('A' for Active; 'I' for Inactive)
REMARK    1  A    between atoms: C_1  and  C_2
REMARK    2  A    between atoms: C_2  and  C_3
REMARK    3  A    between atoms: C_3  and  C_5
REMARK    4  A    between atoms: C_3  and  C_15
REMARK    5  A    between atoms: C_8  and  C_12
REMARK    6  A    between atoms: C_9  and  O_11
REMARK    7  A    between atoms: C_12  and  N_63
REMARK    8  A    between atoms: C_13  and  N_63
REMARK    9  A    between atoms: C_14  and  N_63
REMARK   10  A    between atoms: C_15  and  C_17
REMARK   11  A    between atoms: C_15  and  C_19
REMARK   12  A    between atoms: C_17  and  C_18
REMARK   13  A    between atoms: C_22  and  C_26
REMARK   14  A    between atoms: C_23  and  O_25
REMARK   15  A    between atoms: C_26  and  N_65
REMARK   16  A    between atoms: C_27  and  N_65
REMARK   17  A    between atoms: C_28  and  N_65
REMARK                            x       y       z     vdW  Elec       q    Type
REMARK                         _______ _______ _______ _____ _____    ______ ____
ROOT
ATOM      1  C   UNL     1       1.986   1.256  -0.060  0.00  0.00    +0.026 C 
ENDROOT
BRANCH   1   2
ATOM      2  C   UNL     1       2.859   2.484  -0.086  0.00  0.00    -0.040 A 
ATOM      3  C   UNL     1       2.619   3.483  -1.011  0.00  0.00    +0.004 A 
ATOM      4  C   UNL     1       3.422   4.608  -1.041  0.00  0.00    +0.005 A 
ATOM      5  C   UNL     1       4.460   4.741  -0.139  0.00  0.00    -0.022 A 
ATOM      6  C   UNL     1       4.703   3.740   0.790  0.00  0.00    +0.118 A 
ATOM      7  C   UNL     1       3.899   2.610   0.814  0.00  0.00    +0.049 A 
BRANCH   6   8
ATOM      8  O   UNL     1       5.727   3.866   1.675  0.00  0.00    -0.507 OA
ATOM      9  H   UNL     1       6.566   3.504   1.359  0.00  0.00    +0.292 HD
ENDBRANCH   6   8
BRANCH   5  10
ATOM     10  C   UNL     1       5.332   5.970  -0.169  0.00  0.00    -0.040 C 
BRANCH  10  13
ATOM     11  C   UNL     1       6.327   5.385  -2.297  0.00  0.00    -0.096 C 
ATOM     12  C   UNL     1       7.553   6.759  -0.724  0.00  0.00    -0.096 C 
ATOM     13  N   UNL     1       6.593   5.643  -0.866  0.00  0.00    +0.379 N 
ATOM     14  H   UNL     1       6.998   4.799  -0.444  0.00  0.00    -0.082 HD
ENDBRANCH  10  13
ENDBRANCH   5  10
ENDBRANCH   1   2
BRANCH   1  16
ATOM     15  C   UNL     1      -0.361   0.421  -0.250  0.00  0.00    +0.004 C 
ATOM     16  C   UNL     1       0.539   1.653  -0.362  0.00  0.00    +0.005 C 
ENDBRANCH   1  16
BRANCH   1  17
ATOM     17  C   UNL     1       2.473   0.261  -1.116  0.00  0.00    +0.026 C 
BRANCH  17  18
ATOM     18  C   UNL     1       2.401   0.900  -2.479  0.00  0.00    -0.040 A 
ATOM     19  C   UNL     1       3.452   1.675  -2.935  0.00  0.00    +0.004 A 
ATOM     20  C   UNL     1       3.389   2.263  -4.185  0.00  0.00    +0.005 A 
ATOM     21  C   UNL     1       2.276   2.077  -4.982  0.00  0.00    -0.022 A 
ATOM     22  C   UNL     1       1.220   1.300  -4.527  0.00  0.00    +0.118 A 
ATOM     23  C   UNL     1       1.288   0.706  -3.274  0.00  0.00    +0.049 A 
BRANCH  22  24
ATOM     24  O   UNL     1       0.124   1.115  -5.309  0.00  0.00    -0.507 OA
ATOM     25  H   UNL     1       0.181   0.345  -5.890  0.00  0.00    +0.292 HD
ENDBRANCH  22  24
BRANCH  21  26
ATOM     26  C   UNL     1       2.208   2.718  -6.344  0.00  0.00    -0.040 C 
BRANCH  26  29
ATOM     27  C   UNL     1       1.493   4.713  -7.513  0.00  0.00    -0.096 C 
ATOM     28  C   UNL     1      -0.010   3.613  -5.967  0.00  0.00    -0.096 C 
ATOM     29  N   UNL     1       1.400   3.952  -6.250  0.00  0.00    +0.379 N 
ATOM     30  H   UNL     1       1.764   4.531  -5.484  0.00  0.00    -0.082 HD
ENDBRANCH  26  29
ENDBRANCH  21  26
ENDBRANCH  17  18
BRANCH  17  31
ATOM     31  C   UNL     1       3.920  -0.135  -0.814  0.00  0.00    +0.005 C 
ATOM     32  C   UNL     1       3.968  -0.935   0.489  0.00  0.00    +0.004 C 
ENDBRANCH  17  31
ENDBRANCH   1  17
TORSDOF 11
