REMARK  Name = ZINC45451930
REMARK  9 active torsions:
REMARK  status: ('A' for Active; 'I' for Inactive)
REMARK    1  A    between atoms: C_1  and  C_2
REMARK    2  A    between atoms: C_2  and  O_3
REMARK    3  A    between atoms: O_3  and  C_4
REMARK    4  A    between atoms: C_4  and  C_6
REMARK    5  A    between atoms: C_7  and  C_19
REMARK    6  A    between atoms: C_12  and  C_14
REMARK    7  A    between atoms: C_19  and  N_20
REMARK    8  A    between atoms: C_27  and  C_36
REMARK    9  A    between atoms: C_28  and  C_30
REMARK                            x       y       z     vdW  Elec       q    Type
REMARK                         _______ _______ _______ _____ _____    ______ ____
ROOT
ATOM      1  C   UNL     1      -1.562  -2.341   0.368  0.00  0.00    +0.083 C 
ATOM      2  C   UNL     1      -2.026  -3.585   0.119  0.00  0.00    +0.044 C 
ATOM      3  N   UNL     1      -3.366  -3.834   0.037  0.00  0.00    -0.271 N 
ATOM      4  C   UNL     1      -4.307  -2.893   0.193  0.00  0.00    +0.304 C 
ATOM      5  O   UNL     1      -5.477  -3.211   0.103  0.00  0.00    -0.252 OA
ATOM      6  N   UNL     1      -3.999  -1.606   0.447  0.00  0.00    -0.285 N 
ATOM      7  C   UNL     1      -2.579  -1.234   0.560  0.00  0.00    +0.179 C 
ATOM      8  H   UNL     1      -3.653  -4.742  -0.144  0.00  0.00    +0.156 HD
ATOM      9  H   UNL     1      -4.696  -0.941   0.555  0.00  0.00    +0.151 HD
ENDROOT
BRANCH   7  10
ATOM     10  C   UNL     1      -2.300  -0.165  -0.465  0.00  0.00    +0.130 A 
ATOM     11  C   UNL     1      -1.632   0.981  -0.244  0.00  0.00    +0.047 A 
ATOM     12  C   UNL     1      -1.605   1.683  -1.471  0.00  0.00    +0.041 A 
ATOM     13  C   UNL     1      -2.257   0.923  -2.369  0.00  0.00    +0.195 A 
ATOM     14  O   UNL     1      -2.671  -0.198  -1.755  0.00  0.00    -0.466 OA
ENDBRANCH   7  10
BRANCH   1  15
ATOM     15  C   UNL     1      -0.174  -2.083   0.453  0.00  0.00    +0.339 C 
ATOM     16  O   UNL     1       0.358  -1.965   1.541  0.00  0.00    -0.245 OA
BRANCH  15  17
ATOM     17  O   UNL     1       0.561  -1.966  -0.673  0.00  0.00    -0.462 OA
BRANCH  17  19
ATOM     18  C   UNL     1       2.618  -1.605  -1.888  0.00  0.00    +0.048 C 
ATOM     19  C   UNL     1       1.957  -1.704  -0.512  0.00  0.00    +0.229 C 
ENDBRANCH  17  19
ENDBRANCH  15  17
ENDBRANCH   1  15
BRANCH   2  20
ATOM     20  C   UNL     1      -1.049  -4.716  -0.073  0.00  0.00    +0.177 C 
BRANCH  20  21
ATOM     21  N   UNL     1      -1.206  -5.687   1.013  0.00  0.00    -0.293 N 
ATOM     22  C   UNL     1      -0.477  -5.537   2.148  0.00  0.00    +0.203 A 
ATOM     23  N   UNL     1      -0.588  -6.381   3.139  0.00  0.00    -0.230 NA
ATOM     24  C   UNL     1      -1.420  -7.414   3.068  0.00  0.00    +0.116 A 
ATOM     25  C   UNL     1      -2.220  -7.654   1.933  0.00  0.00    +0.076 A 
ATOM     26  C   UNL     1      -2.075  -6.704   0.866  0.00  0.00    +0.263 A 
ATOM     27  O   UNL     1      -2.726  -6.819  -0.158  0.00  0.00    -0.267 OA
ATOM     28  C   UNL     1      -3.050  -8.784   2.000  0.00  0.00    -0.021 A 
ATOM     29  C   UNL     1      -3.044  -9.562   3.113  0.00  0.00    +0.025 A 
ATOM     30  S   UNL     1      -1.851  -8.746   4.160  0.00  0.00    -0.068 S 
ATOM     31  C   UNL     1      -3.947  -9.132   0.840  0.00  0.00    +0.046 C 
BRANCH  29  32
ATOM     32  C   UNL     1      -3.831 -10.783   3.389  0.00  0.00    -0.011 A 
ATOM     33  C   UNL     1      -3.899 -11.803   2.438  0.00  0.00    +0.009 A 
ATOM     34  C   UNL     1      -4.635 -12.939   2.702  0.00  0.00    +0.001 A 
ATOM     35  C   UNL     1      -5.304 -13.070   3.906  0.00  0.00    +0.000 A 
ATOM     36  C   UNL     1      -5.242 -12.062   4.852  0.00  0.00    +0.001 A 
ATOM     37  C   UNL     1      -4.505 -10.923   4.603  0.00  0.00    +0.009 A 
ENDBRANCH  29  32
ENDBRANCH  20  21
ENDBRANCH   2  20
TORSDOF 7
