REMARK  Name = ZINC23549359
REMARK  7 active torsions:
REMARK  status: ('A' for Active; 'I' for Inactive)
REMARK    1  A    between atoms: C_1  and  C_2
REMARK    2  A    between atoms: C_3  and  C_27
REMARK    3  A    between atoms: C_4  and  C_26
REMARK    4  A    between atoms: C_7  and  C_8
REMARK    5  A    between atoms: N_13  and  S_16
REMARK    6  A    between atoms: S_16  and  C_19
REMARK    7  A    between atoms: C_27  and  C_29
REMARK                            x       y       z     vdW  Elec       q    Type
REMARK                         _______ _______ _______ _____ _____    ______ ____
ROOT
ATOM      1  C   UNL     1      -1.121   0.695   2.154  0.00  0.00    +0.263 C 
ATOM      2  O   UNL     1      -0.312  -0.213   2.184  0.00  0.00    -0.268 OA
ATOM      3  N   UNL     1      -1.473   1.246   0.975  0.00  0.00    -0.294 N 
ATOM      4  C   UNL     1      -0.791   0.852  -0.267  0.00  0.00    +0.125 C 
ATOM      5  C   UNL     1      -1.843   0.379  -1.278  0.00  0.00    +0.128 C 
ATOM      6  N   UNL     1      -2.915   1.382  -1.346  0.00  0.00    -0.174 NA
ATOM      7  C   UNL     1      -3.599   1.773  -0.105  0.00  0.00    +0.128 C 
ATOM      8  C   UNL     1      -2.547   2.246   0.906  0.00  0.00    +0.125 C 
ENDROOT
BRANCH   1  15
ATOM      9  C   UNL     1      -1.989  -1.073   4.571  0.00  0.00    +0.047 C 
ATOM     10  C   UNL     1      -2.097   0.426   4.462  0.00  0.00    -0.010 A 
ATOM     11  C   UNL     1      -2.612   1.307   5.444  0.00  0.00    +0.041 A 
ATOM     12  C   UNL     1      -2.526   2.589   4.922  0.00  0.00    +0.024 A 
ATOM     13  N   UNL     1      -1.986   2.510   3.697  0.00  0.00    -0.354 N 
ATOM     14  H   UNL     1      -1.829   3.425   3.106  0.00  0.00    +0.166 HD
ATOM     15  C   UNL     1      -1.715   1.192   3.402  0.00  0.00    +0.106 A 
ATOM     16  C   UNL     1      -2.963   3.854   5.614  0.00  0.00    +0.064 C 
BRANCH  11  17
ATOM     17  C   UNL     1      -3.142   0.934   6.759  0.00  0.00    +0.162 C 
ATOM     18  O   UNL     1      -4.333   0.759   6.906  0.00  0.00    -0.292 OA
ATOM     19  C   UNL     1      -2.206   0.769   7.929  0.00  0.00    +0.091 C 
ENDBRANCH  11  17
ENDBRANCH   1  15
BRANCH   6  20
ATOM     20  S   UNL     1      -3.344   2.061  -2.794  0.00  0.00    +0.062 S 
ATOM     21  O   UNL     1      -3.943   3.313  -2.494  0.00  0.00    -0.153 OA
ATOM     22  O   UNL     1      -2.215   1.941  -3.649  0.00  0.00    -0.153 OA
BRANCH  20  23
ATOM     23  C   UNL     1      -4.610   1.050  -3.487  0.00  0.00    +0.124 A 
ATOM     24  C   UNL     1      -5.886   1.556  -3.653  0.00  0.00    +0.030 A 
ATOM     25  C   UNL     1      -6.878   0.765  -4.201  0.00  0.00    +0.002 A 
ATOM     26  C   UNL     1      -6.597  -0.536  -4.575  0.00  0.00    +0.002 A 
ATOM     27  C   UNL     1      -5.324  -1.045  -4.405  0.00  0.00    +0.022 A 
ATOM     28  C   UNL     1      -4.329  -0.252  -3.861  0.00  0.00    +0.067 A 
ATOM     29 CL   UNL     1      -2.729  -0.891  -3.647  0.00  0.00    -0.082 Cl
ENDBRANCH  20  23
ENDBRANCH   6  20
TORSDOF 4
