REMARK  Name = ZINC20993391
REMARK  4 active torsions:
REMARK  status: ('A' for Active; 'I' for Inactive)
REMARK    1  A    between atoms: C_2  and  C_19
REMARK    2  A    between atoms: N_5  and  C_6
REMARK    3  A    between atoms: N_9  and  C_12
REMARK    4  A    between atoms: C_19  and  N_20
REMARK                            x       y       z     vdW  Elec       q    Type
REMARK                         _______ _______ _______ _____ _____    ______ ____
ROOT
ATOM      1  C   UNL     1      -0.162   1.270   0.036  0.00  0.00    +0.105 C 
ATOM      2  C   UNL     1       1.141   2.039  -0.202  0.00  0.00    +0.008 C 
ATOM      3  C   UNL     1       1.855   1.455  -1.423  0.00  0.00    -0.076 C 
ATOM      4  N   UNL     1       2.141   0.034  -1.192  0.00  0.00    +0.383 N 
ATOM      5  C   UNL     1       0.902  -0.733  -1.007  0.00  0.00    -0.076 C 
ATOM      6  C   UNL     1       0.159  -0.215   0.226  0.00  0.00    +0.008 C 
ATOM      7  H   UNL     1       2.725  -0.044  -0.263  0.00  0.00    -0.081 HD
ENDROOT
BRANCH   4   8
ATOM      8  C   UNL     1       2.948  -0.526  -2.284  0.00  0.00    -0.049 C 
ATOM      9  C   UNL     1       4.369   0.069  -2.197  0.00  0.00    +0.055 C 
ATOM     10  S   UNL     1       5.504  -1.115  -2.927  0.00  0.00    -0.161 S 
ATOM     11  C   UNL     1       5.778  -0.554  -4.633  0.00  0.00    +0.079 C 
ATOM     12  C   UNL     1       4.480  -0.054  -5.312  0.00  0.00    +0.079 C 
ATOM     13  S   UNL     1       3.073  -1.103  -4.943  0.00  0.00    -0.161 S 
ATOM     14  C   UNL     1       2.278  -0.268  -3.525  0.00  0.00    +0.055 C 
ENDBRANCH   4   8
BRANCH   1  19
ATOM     15  C   UNL     1      -0.200   2.243   2.350  0.00  0.00    +0.135 A 
ATOM     16  C   UNL     1      -1.182   2.617   3.203  0.00  0.00    +0.100 A 
ATOM     17  N   UNL     1      -2.340   2.375   2.580  0.00  0.00    -0.133 NA
ATOM     18  N   UNL     1      -2.093   1.888   1.416  0.00  0.00    -0.065 NA
ATOM     19  N   UNL     1      -0.822   1.786   1.238  0.00  0.00    -0.248 N 
BRANCH  16  20
ATOM     20  C   UNL     1      -1.004   3.194   4.584  0.00  0.00    +0.164 C 
BRANCH  20  21
ATOM     21  N   UNL     1      -1.044   4.657   4.511  0.00  0.00    -0.294 N 
ATOM     22  C   UNL     1      -0.905   5.391   5.633  0.00  0.00    +0.297 C 
ATOM     23  O   UNL     1      -0.747   4.840   6.705  0.00  0.00    -0.253 OA
ATOM     24  N   UNL     1      -0.943   6.737   5.566  0.00  0.00    -0.313 N 
ATOM     25  H   UNL     1      -1.188   5.155   3.542  0.00  0.00    +0.151 HD
ATOM     26  H   UNL     1      -0.830   7.337   6.481  0.00  0.00    +0.146 HD
ATOM     27  H   UNL     1      -1.087   7.236   4.596  0.00  0.00    +0.146 HD
ENDBRANCH  20  21
ENDBRANCH  16  20
ENDBRANCH   1  19
TORSDOF 4
