REMARK  Name = ZINC63383992
REMARK  3 active torsions:
REMARK  status: ('A' for Active; 'I' for Inactive)
REMARK    1  A    between atoms: C_1  and  C_2
REMARK    2  A    between atoms: C_2  and  N_3
REMARK    3  A    between atoms: C_16  and  C_18
REMARK                            x       y       z     vdW  Elec       q    Type
REMARK                         _______ _______ _______ _____ _____    ______ ____
ROOT
ATOM      1  N   UNL     1       0.681  -0.477  -1.120  0.00  0.00    +0.386 N 
ATOM      2  C   UNL     1      -0.103   0.025  -2.251  0.00  0.00    -0.073 C 
ATOM      3  C   UNL     1       0.643  -0.231  -3.574  0.00  0.00    +0.015 C 
ATOM      4  C   UNL     1       1.023  -1.691  -3.564  0.00  0.00    -0.041 C 
ATOM      5  C   UNL     1       0.885  -2.658  -4.458  0.00  0.00    -0.001 A 
ATOM      6  C   UNL     1       0.435  -2.644  -5.860  0.00  0.00    +0.010 A 
ATOM      7  C   UNL     1       0.389  -3.849  -6.487  0.00  0.00    +0.001 A 
ATOM      8  C   UNL     1       0.740  -5.053  -5.868  0.00  0.00    +0.002 A 
ATOM      9  C   UNL     1       1.174  -5.158  -4.587  0.00  0.00    +0.026 A 
ATOM     10  C   UNL     1       1.276  -3.957  -3.828  0.00  0.00    +0.043 A 
ATOM     11  N   UNL     1       1.686  -3.765  -2.608  0.00  0.00    -0.379 N 
ATOM     12  C   UNL     1       1.680  -2.328  -2.343  0.00  0.00    +0.097 C 
ATOM     13  C   UNL     1       0.810  -1.943  -1.145  0.00  0.00    -0.000 C 
ATOM     14  H   UNL     1       1.950  -4.457  -1.982  0.00  0.00    +0.160 HD
ATOM     15  H   UNL     1       1.602  -0.067  -1.152  0.00  0.00    -0.081 HD
ENDROOT
BRANCH  13  16
ATOM     16  C   UNL     1      -0.553  -2.570  -1.285  0.00  0.00    +0.070 A 
ATOM     17  H   UNL     1      -3.075  -2.790  -3.328  0.00  0.00    +0.173 HD
ATOM     18  C   UNL     1      -1.069  -3.370  -0.273  0.00  0.00    +0.259 A 
ATOM     19  O   UNL     1      -0.360  -3.591   0.837  0.00  0.00    -0.267 OA
ATOM     20  N   UNL     1      -2.301  -3.925  -0.422  0.00  0.00    -0.275 N 
ATOM     21  C   UNL     1      -3.019  -3.706  -1.538  0.00  0.00    +0.329 A 
ATOM     22  O   UNL     1      -4.118  -4.212  -1.651  0.00  0.00    -0.247 OA
ATOM     23  N   UNL     1      -2.540  -2.935  -2.532  0.00  0.00    -0.275 N 
ATOM     24  C   UNL     1      -1.316  -2.353  -2.425  0.00  0.00    +0.259 A 
ATOM     25  O   UNL     1      -0.848  -1.585  -3.412  0.00  0.00    -0.267 OA
ATOM     26  H   UNL     1      -2.665  -4.484   0.282  0.00  0.00    +0.173 HD
ENDBRANCH  13  16
BRANCH   1  28
ATOM     27  C   UNL     1      -0.005   1.449   0.228  0.00  0.00    -0.017 C 
ATOM     28  C   UNL     1       0.023  -0.078   0.131  0.00  0.00    -0.081 C 
ENDBRANCH   1  28
TORSDOF 2
