REMARK  Name = ZINC52894584
REMARK  7 active torsions:
REMARK  status: ('A' for Active; 'I' for Inactive)
REMARK    1  A    between atoms: C_1  and  C_2
REMARK    2  A    between atoms: N_4  and  C_5
REMARK    3  A    between atoms: C_9  and  C_16
REMARK    4  A    between atoms: C_16  and  S_17
REMARK    5  A    between atoms: S_17  and  C_18
REMARK    6  A    between atoms: N_22  and  C_23
REMARK    7  A    between atoms: C_23  and  C_24
REMARK                            x       y       z     vdW  Elec       q    Type
REMARK                         _______ _______ _______ _____ _____    ______ ____
ROOT
ATOM      1  C   UNL     1      -1.192  -2.085  -0.088  0.00  0.00    +0.037 A 
ATOM      2  C   UNL     1      -0.001  -2.810  -0.091  0.00  0.00    +0.024 A 
ATOM      3  C   UNL     1      -0.021  -4.171  -0.186  0.00  0.00    +0.013 A 
ATOM      4  C   UNL     1      -1.244  -4.845  -0.280  0.00  0.00    +0.022 A 
ATOM      5  C   UNL     1      -1.295  -6.304  -0.382  0.00  0.00    -0.020 A 
ATOM      6  C   UNL     1      -2.513  -6.900  -0.471  0.00  0.00    +0.097 A 
ATOM      7  C   UNL     1      -3.682  -6.111  -0.462  0.00  0.00    +0.338 A 
ATOM      8  O   UNL     1      -4.767  -6.657  -0.541  0.00  0.00    -0.245 OA
ATOM      9  O   UNL     1      -3.628  -4.773  -0.368  0.00  0.00    -0.422 OA
ATOM     10  C   UNL     1      -2.450  -4.119  -0.277  0.00  0.00    +0.141 A 
ATOM     11  C   UNL     1      -2.413  -2.737  -0.175  0.00  0.00    +0.070 A 
ENDROOT
BRANCH   1  15
ATOM     12  C   UNL     1      -0.177   1.504  -0.566  0.00  0.00    +0.109 C 
ATOM     13  C   UNL     1      -0.162  -0.003  -0.583  0.00  0.00    +0.214 C 
ATOM     14  O   UNL     1       0.746  -0.594  -1.129  0.00  0.00    -0.276 OA
ATOM     15  N   UNL     1      -1.156  -0.694   0.009  0.00  0.00    -0.286 N 
ATOM     16  H   UNL     1      -1.846  -0.224   0.503  0.00  0.00    +0.155 HD
ENDBRANCH   1  15
BRANCH   5  17
ATOM     17  C   UNL     1      -0.031  -7.124  -0.390  0.00  0.00    +0.113 C 
BRANCH  17  18
ATOM     18  S   UNL     1       0.780  -6.970  -2.005  0.00  0.00    -0.080 S 
BRANCH  18  19
ATOM     19  C   UNL     1       2.222  -7.971  -1.856  0.00  0.00    +0.210 A 
ATOM     20  N   UNL     1       2.587  -8.663  -0.798  0.00  0.00    -0.101 NA
ATOM     21  N   UNL     1       3.689  -9.283  -1.024  0.00  0.00    -0.022 NA
ATOM     22  N   UNL     1       4.104  -9.038  -2.220  0.00  0.00    -0.043 NA
ATOM     23  N   UNL     1       3.160  -8.179  -2.810  0.00  0.00    -0.216 N 
BRANCH  23  24
ATOM     24  C   UNL     1       3.188  -7.625  -4.166  0.00  0.00    +0.175 C 
BRANCH  24  25
ATOM     25  C   UNL     1       3.927  -6.312  -4.157  0.00  0.00    -0.011 C 
ATOM     26  C   UNL     1       4.946  -6.128  -4.960  0.00  0.00    +0.006 C 
ENDBRANCH  24  25
ENDBRANCH  23  24
ENDBRANCH  18  19
ENDBRANCH  17  18
ENDBRANCH   5  17
TORSDOF 6
