REMARK  Name = ZINC19084836
REMARK  13 active torsions:
REMARK  status: ('A' for Active; 'I' for Inactive)
REMARK    1  A    between atoms: C_1  and  C_2
REMARK    2  A    between atoms: C_2  and  C_3
REMARK    3  A    between atoms: C_2  and  C_4
REMARK    4  A    between atoms: C_2  and  N_5
REMARK    5  A    between atoms: C_6  and  C_10
REMARK    6  A    between atoms: C_10  and  C_12
REMARK    7  A    between atoms: C_10  and  N_26
REMARK    8  A    between atoms: C_16  and  O_24
REMARK    9  A    between atoms: O_24  and  C_25
REMARK   10  A    between atoms: N_26  and  C_27
REMARK   11  A    between atoms: N_26  and  C_33
REMARK   12  A    between atoms: C_27  and  C_28
REMARK   13  A    between atoms: C_33  and  C_34
REMARK                            x       y       z     vdW  Elec       q    Type
REMARK                         _______ _______ _______ _____ _____    ______ ____
ROOT
ATOM      1  C   UNL     1       0.638  -3.350  -1.286  0.00  0.00    +0.039 C 
ENDROOT
BRANCH   1   2
ATOM      2  C   UNL     1       1.720  -4.253  -0.754  0.00  0.00    +0.011 A 
ATOM      3  C   UNL     1       1.897  -4.380   0.584  0.00  0.00    +0.017 A 
ATOM      4  C   UNL     1       2.957  -5.265   1.070  0.00  0.00    +0.002 A 
ATOM      5  C   UNL     1       3.185  -5.435   2.439  0.00  0.00    +0.055 A 
ATOM      6  C   UNL     1       4.193  -6.277   2.863  0.00  0.00    +0.121 A 
ATOM      7  C   UNL     1       4.980  -6.955   1.934  0.00  0.00    +0.047 A 
ATOM      8  C   UNL     1       4.765  -6.795   0.583  0.00  0.00    +0.030 A 
ATOM      9  C   UNL     1       3.755  -5.951   0.135  0.00  0.00    +0.049 A 
ATOM     10  N   UNL     1       3.523  -5.779  -1.215  0.00  0.00    -0.322 N 
ATOM     11  H   UNL     1       4.073  -6.252  -1.858  0.00  0.00    +0.169 HD
ATOM     12  C   UNL     1       2.543  -4.968  -1.650  0.00  0.00    +0.251 A 
ATOM     13  O   UNL     1       2.364  -4.843  -2.850  0.00  0.00    -0.268 OA
BRANCH   6  14
ATOM     14  O   UNL     1       4.420  -6.447   4.192  0.00  0.00    -0.495 OA
ATOM     15  C   UNL     1       5.478  -7.332   4.563  0.00  0.00    +0.277 C 
ENDBRANCH   6  14
ENDBRANCH   1   2
BRANCH   1  17
ATOM     16  N   UNL     1       1.299  -0.917  -1.673  0.00  0.00    -0.225 N 
ATOM     17  C   UNL     1       1.264  -2.209  -2.047  0.00  0.00    +0.143 A 
ATOM     18  N   UNL     1       1.880  -2.284  -3.202  0.00  0.00    -0.115 NA
ATOM     19  N   UNL     1       2.273  -1.099  -3.520  0.00  0.00    -0.023 NA
ATOM     20  N   UNL     1       1.919  -0.270  -2.601  0.00  0.00    -0.043 NA
BRANCH  16  22
ATOM     21  C   UNL     1       1.113   1.128  -0.345  0.00  0.00    +0.036 C 
ATOM     22  C   UNL     1       0.734  -0.351  -0.445  0.00  0.00    +0.059 C 
ATOM     23  C   UNL     1       1.290  -1.103   0.766  0.00  0.00    +0.036 C 
ATOM     24  C   UNL     1      -0.789  -0.486  -0.475  0.00  0.00    +0.036 C 
ENDBRANCH  16  22
ENDBRANCH   1  17
BRANCH   1  25
ATOM     25  N   UNL     1      -0.240  -4.114  -2.183  0.00  0.00    +0.396 N 
ATOM     26  H   UNL     1       0.271  -4.371  -3.015  0.00  0.00    -0.080 HD
BRANCH  25  27
ATOM     27  C   UNL     1      -0.704  -5.327  -1.498  0.00  0.00    -0.002 C 
BRANCH  27  28
ATOM     28  C   UNL     1      -1.503  -6.171  -2.457  0.00  0.00    +0.089 A 
ATOM     29  C   UNL     1      -1.011  -7.135  -3.256  0.00  0.00    +0.042 A 
ATOM     30  C   UNL     1      -2.103  -7.663  -3.981  0.00  0.00    +0.041 A 
ATOM     31  C   UNL     1      -3.198  -6.992  -3.582  0.00  0.00    +0.195 A 
ATOM     32  O   UNL     1      -2.829  -6.093  -2.654  0.00  0.00    -0.470 OA
ENDBRANCH  27  28
ENDBRANCH  25  27
BRANCH  25  33
ATOM     33  C   UNL     1      -1.397  -3.289  -2.556  0.00  0.00    -0.045 C 
BRANCH  33  34
ATOM     34  C   UNL     1      -0.937  -2.144  -3.460  0.00  0.00    +0.102 C 
ATOM     35  C   UNL     1      -2.163  -1.363  -3.981  0.00  0.00    +0.032 C 
ATOM     36  C   UNL     1      -1.759  -1.056  -5.449  0.00  0.00    +0.030 C 
ATOM     37  C   UNL     1      -0.947  -2.328  -5.803  0.00  0.00    +0.160 C 
ATOM     38  O   UNL     1      -0.243  -2.671  -4.597  0.00  0.00    -0.378 OA
ENDBRANCH  33  34
ENDBRANCH  25  33
ENDBRANCH   1  25
TORSDOF 9
