REMARK  Name = ZINC67612093
REMARK  9 active torsions:
REMARK  status: ('A' for Active; 'I' for Inactive)
REMARK    1  A    between atoms: C_1  and  C_2
REMARK    2  A    between atoms: C_2  and  C_3
REMARK    3  A    between atoms: C_3  and  N_4
REMARK    4  A    between atoms: C_7  and  N_10
REMARK    5  A    between atoms: C_11  and  C_13
REMARK    6  A    between atoms: C_13  and  C_14
REMARK    7  A    between atoms: C_14  and  C_15
REMARK    8  A    between atoms: C_15  and  C_16
REMARK    9  A    between atoms: C_16  and  C_17
REMARK                            x       y       z     vdW  Elec       q    Type
REMARK                         _______ _______ _______ _____ _____    ______ ____
ROOT
ATOM      1  C   UNL     1       0.584  -8.263  -3.332  0.00  0.00    +0.096 C 
ENDROOT
BRANCH   1   3
ATOM      2  N   UNL     1       0.285  -6.016  -2.342  0.00  0.00    -0.313 N 
ATOM      3  C   UNL     1       0.506  -6.762  -3.442  0.00  0.00    +0.213 C 
ATOM      4  O   UNL     1       0.643  -6.225  -4.521  0.00  0.00    -0.276 OA
ATOM      5  H   UNL     1       0.175  -6.445  -1.479  0.00  0.00    +0.149 HD
BRANCH   2   9
ATOM      6  N   UNL     1       0.738  -1.966  -1.265  0.00  0.00    +0.380 N 
ATOM      7  C   UNL     1      -0.636  -2.472  -1.366  0.00  0.00    -0.077 C 
ATOM      8  C   UNL     1      -0.627  -4.001  -1.293  0.00  0.00    +0.003 C 
ATOM      9  C   UNL     1       0.209  -4.557  -2.449  0.00  0.00    +0.069 C 
ATOM     10  C   UNL     1       1.620  -3.964  -2.376  0.00  0.00    +0.003 C 
ATOM     11  C   UNL     1       1.528  -2.437  -2.409  0.00  0.00    -0.077 C 
ATOM     12  H   UNL     1       1.155  -2.301  -0.409  0.00  0.00    -0.082 HD
BRANCH   6  13
ATOM     13  C   UNL     1       0.718  -0.497  -1.257  0.00  0.00    -0.079 C 
BRANCH  13  15
ATOM     14  C   UNL     1      -0.019   1.526   0.010  0.00  0.00    +0.002 C 
ATOM     15  C   UNL     1       0.002  -0.004   0.002  0.00  0.00    -0.022 C 
ENDBRANCH  13  15
ENDBRANCH   6  13
ENDBRANCH   2   9
ENDBRANCH   1   3
BRANCH   1  16
ATOM     16  C   UNL     1       0.841  -8.863  -4.715  0.00  0.00    +0.009 C 
BRANCH  16  17
ATOM     17  C   UNL     1       0.919 -10.387  -4.604  0.00  0.00    +0.002 C 
BRANCH  17  18
ATOM     18  C   UNL     1       1.176 -10.988  -5.987  0.00  0.00    +0.016 C 
BRANCH  18  19
ATOM     19  C   UNL     1       1.255 -12.511  -5.875  0.00  0.00    +0.069 C 
ATOM     20  C   UNL     1       1.471 -13.159  -7.260  0.00  0.00    +0.108 C 
ATOM     21  C   UNL     1       2.436 -14.348  -7.239  0.00  0.00    +0.105 C 
ATOM     22  C   UNL     1       2.994 -14.669  -5.837  0.00  0.00    +0.093 C 
ATOM     23  S   UNL     1       2.785 -13.032  -4.985  0.00  0.00    -0.154 S 
ATOM     24  N   UNL     1       1.616 -15.482  -7.693  0.00  0.00    -0.294 N 
ATOM     25  C   UNL     1       0.372 -15.049  -7.943  0.00  0.00    +0.300 C 
ATOM     26  O   UNL     1      -0.518 -15.778  -8.334  0.00  0.00    -0.253 OA
ATOM     27  N   UNL     1       0.203 -13.747  -7.719  0.00  0.00    -0.294 N 
ATOM     28  H   UNL     1       1.925 -16.396  -7.795  0.00  0.00    +0.151 HD
ATOM     29  H   UNL     1      -0.630 -13.265  -7.843  0.00  0.00    +0.151 HD
ENDBRANCH  18  19
ENDBRANCH  17  18
ENDBRANCH  16  17
ENDBRANCH   1  16
TORSDOF 8
