REMARK  Name = ZINC39605580
REMARK  6 active torsions:
REMARK  status: ('A' for Active; 'I' for Inactive)
REMARK    1  A    between atoms: C_1  and  C_2
REMARK    2  A    between atoms: N_5  and  C_7
REMARK    3  A    between atoms: C_20  and  C_22
REMARK    4  A    between atoms: C_25  and  O_28
REMARK    5  A    between atoms: O_28  and  C_29
REMARK    6  A    between atoms: C_29  and  C_30
REMARK                            x       y       z     vdW  Elec       q    Type
REMARK                         _______ _______ _______ _____ _____    ______ ____
ROOT
ATOM      1  C   UNL     1       0.255   1.493  -0.007  0.00  0.00    +0.068 C 
ATOM      2  C   UNL     1       0.126  -0.008  -0.005  0.00  0.00    +0.066 A 
ATOM      3  C   UNL     1      -0.101  -0.806  -1.116  0.00  0.00    +0.023 A 
ATOM      4  C   UNL     1      -0.148  -2.110  -0.697  0.00  0.00    +0.131 A 
ATOM      5  N   UNL     1       0.033  -2.117   0.631  0.00  0.00    -0.209 N 
ATOM      6  N   UNL     1       0.213  -0.788   1.047  0.00  0.00    -0.171 NA
ATOM      7  N   UNL     1      -0.344  -3.164  -1.589  0.00  0.00    -0.270 N 
ATOM      8  C   UNL     1      -0.286  -2.897  -2.911  0.00  0.00    +0.219 C 
ATOM      9  O   UNL     1      -0.637  -3.750  -3.699  0.00  0.00    -0.275 OA
ATOM     10  C   UNL     1       0.200  -1.576  -3.438  0.00  0.00    +0.109 C 
ATOM     11  C   UNL     1      -0.282  -0.416  -2.561  0.00  0.00    +0.063 C 
ATOM     12  H   UNL     1      -0.517  -4.063  -1.269  0.00  0.00    +0.156 HD
ENDROOT
BRANCH   5  13
ATOM     13  C   UNL     1       0.046  -3.301   1.494  0.00  0.00    +0.303 C 
ATOM     14  N   UNL     1      -1.040  -3.219   2.478  0.00  0.00    -0.345 N 
ATOM     15  C   UNL     1      -0.497  -3.222   3.661  0.00  0.00    +0.062 A 
ATOM     16  C   UNL     1      -1.058  -3.160   5.018  0.00  0.00    +0.027 A 
ATOM     17  C   UNL     1      -0.230  -3.181   6.081  0.00  0.00    +0.002 A 
ATOM     18  C   UNL     1       1.168  -3.259   5.952  0.00  0.00    +0.002 A 
ATOM     19  C   UNL     1       1.785  -3.320   4.755  0.00  0.00    +0.027 A 
ATOM     20  C   UNL     1       0.983  -3.305   3.524  0.00  0.00    +0.062 A 
ATOM     21  N   UNL     1       1.297  -3.352   2.262  0.00  0.00    -0.345 N 
ATOM     22  H   UNL     1      -1.989  -3.172   2.283  0.00  0.00    +0.163 HD
ATOM     23  H   UNL     1       2.193  -3.409   1.895  0.00  0.00    +0.163 HD
ENDBRANCH   5  13
BRANCH  11  24
ATOM     24  C   UNL     1       0.529   0.818  -2.860  0.00  0.00    -0.039 A 
ATOM     25  C   UNL     1       1.902   0.797  -2.697  0.00  0.00    +0.008 A 
ATOM     26  C   UNL     1       2.648   1.927  -2.970  0.00  0.00    +0.046 A 
ATOM     27  C   UNL     1       2.019   3.083  -3.408  0.00  0.00    +0.121 A 
ATOM     28  C   UNL     1       0.642   3.102  -3.571  0.00  0.00    +0.046 A 
ATOM     29  C   UNL     1      -0.100   1.967  -3.301  0.00  0.00    +0.008 A 
BRANCH  27  30
ATOM     30  O   UNL     1       2.751   4.196  -3.676  0.00  0.00    -0.487 OA
BRANCH  30  31
ATOM     31  C   UNL     1       2.037   5.350  -4.123  0.00  0.00    +0.264 C 
BRANCH  31  32
ATOM     32  C   UNL     1       3.007   6.478  -4.369  0.00  0.00    -0.010 A 
ATOM     33  C   UNL     1       3.325   7.350  -3.345  0.00  0.00    +0.010 A 
ATOM     34  C   UNL     1       4.215   8.384  -3.568  0.00  0.00    +0.039 A 
ATOM     35  C   UNL     1       4.787   8.546  -4.819  0.00  0.00    +0.123 A 
ATOM     36  C   UNL     1       4.467   7.671  -5.844  0.00  0.00    +0.039 A 
ATOM     37  C   UNL     1       3.581   6.635  -5.616  0.00  0.00    +0.010 A 
ATOM     38  F   UNL     1       5.656   9.556  -5.039  0.00  0.00    -0.205 F 
ENDBRANCH  31  32
ENDBRANCH  30  31
ENDBRANCH  27  30
ENDBRANCH  11  24
TORSDOF 5
