REMARK  Name = ZINC11881378
REMARK  10 active torsions:
REMARK  status: ('A' for Active; 'I' for Inactive)
REMARK    1  A    between atoms: C_1  and  C_2
REMARK    2  A    between atoms: C_2  and  C_4
REMARK    3  A    between atoms: C_2  and  C_10
REMARK    4  A    between atoms: C_4  and  C_5
REMARK    5  A    between atoms: C_5  and  C_6
REMARK    6  A    between atoms: C_7  and  C_8
REMARK    7  A    between atoms: C_7  and  C_9
REMARK    8  A    between atoms: C_10  and  N_72
REMARK    9  A    between atoms: C_17  and  C_19
REMARK   10  A    between atoms: N_24  and  C_27
REMARK                            x       y       z     vdW  Elec       q    Type
REMARK                         _______ _______ _______ _____ _____    ______ ____
ROOT
ATOM      1  C   UNL     1      -0.553   2.331   3.048  0.00  0.00    -0.078 C 
ATOM      2  C   UNL     1       0.183   2.278   1.705  0.00  0.00    -0.011 C 
ATOM      3  C   UNL     1      -0.570   3.150   0.695  0.00  0.00    -0.021 C 
ATOM      4  C   UNL     1      -2.069   2.855   0.585  0.00  0.00    -0.011 C 
ATOM      5  C   UNL     1      -2.676   2.874   1.992  0.00  0.00    -0.078 C 
ATOM      6  C   UNL     1      -0.115   4.599   0.527  0.00  0.00    +0.020 C 
ATOM      7  C   UNL     1       0.169   3.573  -0.573  0.00  0.00    +0.082 C 
ATOM      8  N   UNL     1      -1.956   1.896   2.837  0.00  0.00    +0.380 N 
ATOM      9  H   UNL     1      -1.952   0.986   2.361  0.00  0.00    -0.082 HD
ENDROOT
BRANCH   7  10
ATOM     10  C   UNL     1      -0.633   3.675  -1.844  0.00  0.00    +0.219 C 
ATOM     11  O   UNL     1      -1.820   3.426  -1.834  0.00  0.00    -0.275 OA
ATOM     12  N   UNL     1      -0.031   4.044  -2.993  0.00  0.00    -0.298 N 
ATOM     13  C   UNL     1       1.405   4.356  -3.026  0.00  0.00    +0.126 C 
ATOM     14  C   UNL     1       2.050   3.543  -4.160  0.00  0.00    +0.124 C 
ATOM     15  N   UNL     1       1.329   3.804  -5.413  0.00  0.00    -0.327 N 
ATOM     16  C   UNL     1      -0.066   3.351  -5.330  0.00  0.00    +0.124 C 
ATOM     17  C   UNL     1      -0.796   4.150  -4.245  0.00  0.00    +0.126 C 
BRANCH  15  18
ATOM     18  C   UNL     1       1.982   3.216  -6.498  0.00  0.00    +0.030 A 
ATOM     19  C   UNL     1       1.303   2.327  -7.321  0.00  0.00    +0.023 A 
ATOM     20  C   UNL     1       1.951   1.751  -8.396  0.00  0.00    +0.002 A 
ATOM     21  C   UNL     1       3.277   2.050  -8.648  0.00  0.00    +0.000 A 
ATOM     22  C   UNL     1       3.958   2.931  -7.827  0.00  0.00    +0.002 A 
ATOM     23  C   UNL     1       3.315   3.515  -6.754  0.00  0.00    +0.023 A 
ENDBRANCH  15  18
ENDBRANCH   7  10
BRANCH   8  24
ATOM     24  C   UNL     1      -2.639   1.754   4.138  0.00  0.00    -0.076 C 
BRANCH  24  26
ATOM     25  C   UNL     1      -2.506   0.682   6.391  0.00  0.00    +0.005 C 
ATOM     26  C   UNL     1      -1.824   0.814   5.027  0.00  0.00    -0.030 C 
BRANCH  26  27
ATOM     27  C   UNL     1      -1.735  -0.564   4.367  0.00  0.00    +0.005 C 
BRANCH  27  28
ATOM     28  C   UNL     1      -0.818  -1.467   5.193  0.00  0.00    +0.027 C 
BRANCH  28  29
ATOM     29  C   UNL     1      -0.731  -2.824   4.542  0.00  0.00    -0.028 C 
ATOM     30  C   UNL     1       0.430  -3.290   4.152  0.00  0.00    -0.080 C 
ATOM     31  C   UNL     1       1.656  -2.417   4.227  0.00  0.00    +0.038 C 
ATOM     32  C   UNL     1       0.539  -4.698   3.627  0.00  0.00    +0.038 C 
ENDBRANCH  28  29
ENDBRANCH  27  28
ENDBRANCH  26  27
ENDBRANCH  24  26
ENDBRANCH   8  24
TORSDOF 7
