REMARK  Name = ZINC13618376
REMARK  3 active torsions:
REMARK  status: ('A' for Active; 'I' for Inactive)
REMARK    1  A    between atoms: C_9  and  C_12
REMARK    2  A    between atoms: C_10  and  O_11
REMARK    3  A    between atoms: N_13  and  C_14
REMARK                            x       y       z     vdW  Elec       q    Type
REMARK                         _______ _______ _______ _____ _____    ______ ____
ROOT
ATOM      1  C   UNL     1      -0.016   1.358   0.009  0.00  0.00    +0.001 A 
ATOM      2  C   UNL     1       1.168   2.091   0.002  0.00  0.00    +0.001 A 
ATOM      3  C   UNL     1       2.378   1.466  -0.013  0.00  0.00    +0.012 A 
ATOM      4  C   UNL     1       2.435   0.062  -0.021  0.00  0.00    +0.025 A 
ATOM      5  C   UNL     1       1.231  -0.684  -0.013  0.00  0.00    -0.000 A 
ATOM      6  C   UNL     1       0.002  -0.004   0.002  0.00  0.00    +0.010 A 
ATOM      7  C   UNL     1       1.280  -2.092  -0.021  0.00  0.00    +0.026 A 
ATOM      8  C   UNL     1       2.475  -2.734  -0.035  0.00  0.00    +0.029 A 
ATOM      9  C   UNL     1       3.684  -2.010  -0.043  0.00  0.00    +0.036 A 
ATOM     10  C   UNL     1       3.671  -0.615  -0.037  0.00  0.00    +0.133 A 
ATOM     11 BR   UNL     1      -0.326  -3.091  -0.010  0.00  0.00    -0.050 Br
ENDROOT
BRANCH  10  12
ATOM     12  O   UNL     1       4.833   0.081  -0.045  0.00  0.00    -0.506 OA
ATOM     13  H   UNL     1       5.179   0.279   0.836  0.00  0.00    +0.292 HD
ENDBRANCH  10  12
BRANCH   9  14
ATOM     14  C   UNL     1       4.964  -2.728  -0.059  0.00  0.00    +0.124 C 
ATOM     15  N   UNL     1       6.087  -2.061  -0.066  0.00  0.00    -0.236 NA
BRANCH  15  16
ATOM     16  C   UNL     1       7.278  -2.729  -0.080  0.00  0.00    +0.153 A 
ATOM     17  C   UNL     1       8.477  -2.009  -0.082  0.00  0.00    +0.049 A 
ATOM     18  C   UNL     1       9.674  -2.700  -0.096  0.00  0.00    +0.020 A 
ATOM     19  C   UNL     1       9.639  -4.089  -0.107  0.00  0.00    +0.036 A 
ATOM     20  C   UNL     1       8.418  -4.738  -0.104  0.00  0.00    +0.128 A 
ATOM     21  N   UNL     1       7.289  -4.058  -0.086  0.00  0.00    -0.235 NA
ATOM     22 BR   UNL     1      11.247  -5.084  -0.127  0.00  0.00    -0.049 Br
ENDBRANCH  15  16
ENDBRANCH   9  14
TORSDOF 3
