REMARK  Name = ZINC02769389
REMARK  9 active torsions:
REMARK  status: ('A' for Active; 'I' for Inactive)
REMARK    1  A    between atoms: C_1  and  C_2
REMARK    2  A    between atoms: C_2  and  O_3
REMARK    3  A    between atoms: O_3  and  C_4
REMARK    4  A    between atoms: C_4  and  C_6
REMARK    5  A    between atoms: C_7  and  N_32
REMARK    6  A    between atoms: C_11  and  C_13
REMARK    7  A    between atoms: C_16  and  C_18
REMARK    8  A    between atoms: C_18  and  O_19
REMARK    9  A    between atoms: O_19  and  C_20
REMARK                            x       y       z     vdW  Elec       q    Type
REMARK                         _______ _______ _______ _____ _____    ______ ____
ROOT
ATOM      1  C   UNL     1      -1.319   3.130  -1.252  0.00  0.00    +0.108 C 
ATOM      2  C   UNL     1      -1.688   4.428  -1.090  0.00  0.00    +0.195 C 
ATOM      3  O   UNL     1      -2.006   4.917   0.117  0.00  0.00    -0.446 OA
ATOM      4  C   UNL     1      -1.562   4.300   1.228  0.00  0.00    +0.115 C 
ATOM      5  C   UNL     1      -1.195   3.005   1.212  0.00  0.00    +0.048 C 
ATOM      6  C   UNL     1      -1.254   2.206  -0.068  0.00  0.00    +0.133 C 
ATOM      7  C   UNL     1      -0.747   2.356   2.379  0.00  0.00    +0.163 C 
ATOM      8  O   UNL     1      -0.410   1.190   2.321  0.00  0.00    -0.292 OA
ATOM      9  C   UNL     1      -0.681   3.079   3.696  0.00  0.00    +0.080 C 
ATOM     10  C   UNL     1      -1.737   4.190   3.706  0.00  0.00    +0.016 C 
ATOM     11  C   UNL     1      -1.488   5.105   2.505  0.00  0.00    +0.075 C 
ENDROOT
BRANCH   6  12
ATOM     12  C   UNL     1      -0.024   1.343  -0.175  0.00  0.00    +0.118 A 
ATOM     13  C   UNL     1      -0.010  -0.000  -0.252  0.00  0.00    +0.046 A 
ATOM     14  C   UNL     1       1.346  -0.391  -0.345  0.00  0.00    +0.048 A 
ATOM     15  C   UNL     1       2.079   0.736  -0.319  0.00  0.00    +0.142 A 
ATOM     16  O   UNL     1       1.244   1.783  -0.216  0.00  0.00    -0.460 OA
BRANCH  15  17
ATOM     17  C   UNL     1       3.582   0.812  -0.394  0.00  0.00    +0.303 C 
BRANCH  17  18
ATOM     18  O   UNL     1       3.987   0.912  -1.761  0.00  0.00    -0.484 OA
BRANCH  18  19
ATOM     19  C   UNL     1       5.322   0.990  -2.005  0.00  0.00    +0.122 A 
ATOM     20  C   UNL     1       5.785   1.089  -3.309  0.00  0.00    +0.046 A 
ATOM     21  C   UNL     1       7.142   1.169  -3.555  0.00  0.00    +0.005 A 
ATOM     22  C   UNL     1       8.039   1.149  -2.503  0.00  0.00    +0.015 A 
ATOM     23  C   UNL     1       7.580   1.050  -1.202  0.00  0.00    +0.021 A 
ATOM     24  C   UNL     1       6.222   0.976  -0.950  0.00  0.00    +0.061 A 
ATOM     25 BR   UNL     1       8.810   1.024   0.235  0.00  0.00    -0.050 Br
ENDBRANCH  18  19
ENDBRANCH  17  18
ENDBRANCH  15  17
ENDBRANCH   6  12
BRANCH   2  26
ATOM     26  N   UNL     1      -1.736   5.253  -2.182  0.00  0.00    -0.329 N 
ATOM     27  H   UNL     1      -1.075   5.163  -2.886  0.00  0.00    +0.145 HD
ATOM     28  H   UNL     1      -2.430   5.926  -2.251  0.00  0.00    +0.145 HD
ENDBRANCH   2  26
BRANCH   1  29
ATOM     29  C   UNL     1      -0.997   2.650  -2.530  0.00  0.00    +0.341 C 
ATOM     30  O   UNL     1      -0.948   3.418  -3.475  0.00  0.00    -0.245 OA
BRANCH  29  31
ATOM     31  O   UNL     1      -0.743   1.337  -2.714  0.00  0.00    -0.462 OA
BRANCH  31  33
ATOM     32  C   UNL     1      -0.167  -0.591  -4.054  0.00  0.00    +0.048 C 
ATOM     33  C   UNL     1      -0.421   0.918  -4.042  0.00  0.00    +0.229 C 
ENDBRANCH  31  33
ENDBRANCH  29  31
ENDBRANCH   1  29
TORSDOF 8
