REMARK  Name = ZINC30263475
REMARK  4 active torsions:
REMARK  status: ('A' for Active; 'I' for Inactive)
REMARK    1  A    between atoms: C_1  and  C_2
REMARK    2  A    between atoms: C_12  and  C_14
REMARK    3  A    between atoms: C_17  and  C_19
REMARK    4  A    between atoms: C_19  and  C_21
REMARK                            x       y       z     vdW  Elec       q    Type
REMARK                         _______ _______ _______ _____ _____    ______ ____
ROOT
ATOM      1  C   UNL     1      -3.244   3.167   0.125  0.00  0.00    +0.035 C 
ATOM      2  C   UNL     1      -1.755   3.424  -0.112  0.00  0.00    +0.120 C 
ATOM      3  C   UNL     1      -1.265   2.586  -1.271  0.00  0.00    +0.039 A 
ATOM      4  C   UNL     1      -1.545   2.747  -2.574  0.00  0.00    +0.024 A 
ATOM      5  C   UNL     1      -0.874   1.724  -3.276  0.00  0.00    +0.019 A 
ATOM      6  C   UNL     1      -0.207   0.980  -2.369  0.00  0.00    +0.086 A 
ATOM      7  N   UNL     1      -0.439   1.504  -1.134  0.00  0.00    -0.347 N 
ATOM      8  C   UNL     1       0.095   1.018   0.143  0.00  0.00    +0.140 C 
ATOM      9  C   UNL     1      -0.754   1.577   1.290  0.00  0.00    +0.130 C 
ATOM     10  N   UNL     1      -0.979   3.014   1.073  0.00  0.00    -0.287 N 
ATOM     11  C   UNL     1      -0.489   3.930   1.932  0.00  0.00    +0.254 C 
ATOM     12  O   UNL     1       0.150   3.572   2.903  0.00  0.00    -0.269 OA
ENDROOT
BRANCH  11  13
ATOM     13  C   UNL     1      -0.728   5.364   1.696  0.00  0.00    +0.075 A 
ATOM     14  C   UNL     1      -0.181   6.458   2.351  0.00  0.00    +0.021 A 
ATOM     15  C   UNL     1      -0.552   7.712   1.958  0.00  0.00    +0.020 A 
ATOM     16  C   UNL     1      -1.465   7.841   0.916  0.00  0.00    +0.055 A 
ATOM     17  S   UNL     1      -1.790   6.139   0.487  0.00  0.00    -0.081 S 
BRANCH  16  18
ATOM     18  C   UNL     1      -2.013   9.059   0.320  0.00  0.00    +0.167 C 
ATOM     19  O   UNL     1      -1.672  10.146   0.739  0.00  0.00    -0.292 OA
ATOM     20  C   UNL     1      -3.001   8.965  -0.814  0.00  0.00    +0.092 C 
ENDBRANCH  16  18
ENDBRANCH  11  13
TORSDOF 2
