REMARK  Name = ZINC05218509
REMARK  9 active torsions:
REMARK  status: ('A' for Active; 'I' for Inactive)
REMARK    1  A    between atoms: C_1  and  C_2
REMARK    2  A    between atoms: C_9  and  C_21
REMARK    3  A    between atoms: C_15  and  C_19
REMARK    4  A    between atoms: C_15  and  C_20
REMARK    5  A    between atoms: C_23  and  O_30
REMARK    6  A    between atoms: C_24  and  O_29
REMARK    7  A    between atoms: C_25  and  O_27
REMARK    8  A    between atoms: O_27  and  C_28
REMARK    9  A    between atoms: O_30  and  C_31
REMARK                            x       y       z     vdW  Elec       q    Type
REMARK                         _______ _______ _______ _____ _____    ______ ____
ROOT
ATOM      1  C   UNL     1       3.916   1.919  -0.172  0.00  0.00    +0.044 C 
ATOM      2  C   UNL     1       2.578   1.225  -0.129  0.00  0.00    -0.049 A 
ATOM      3  C   UNL     1       1.415   1.974  -0.141  0.00  0.00    +0.005 A 
ATOM      4  C   UNL     1       0.181   1.347  -0.122  0.00  0.00    +0.025 A 
ATOM      5  C   UNL     1       0.123  -0.035  -0.075  0.00  0.00    +0.052 A 
ATOM      6  C   UNL     1       1.288  -0.787  -0.031  0.00  0.00    +0.050 A 
ATOM      7  C   UNL     1       2.522  -0.157  -0.078  0.00  0.00    +0.028 A 
ATOM      8  N   UNL     1       1.183  -2.171   0.100  0.00  0.00    -0.331 N 
ATOM      9  C   UNL     1       0.624  -2.765   1.295  0.00  0.00    +0.136 C 
ATOM     10  C   UNL     1      -0.834  -2.450   1.529  0.00  0.00    +0.036 C 
ATOM     11  C   UNL     1      -1.555  -1.525   0.874  0.00  0.00    +0.017 C 
ATOM     12  N   UNL     1      -1.079  -0.732  -0.120  0.00  0.00    -0.316 N 
ATOM     13  C   UNL     1      -3.022  -1.313   1.209  0.00  0.00    +0.058 C 
ATOM     14  C   UNL     1      -3.263  -1.587   2.692  0.00  0.00    -0.023 C 
ATOM     15  C   UNL     1      -2.858  -3.039   2.970  0.00  0.00    +0.086 C 
ATOM     16  C   UNL     1      -1.430  -3.224   2.552  0.00  0.00    +0.163 C 
ATOM     17  O   UNL     1      -0.761  -4.071   3.112  0.00  0.00    -0.292 OA
ATOM     18  C   UNL     1      -2.412  -0.639   3.539  0.00  0.00    +0.011 C 
ATOM     19  C   UNL     1      -4.744  -1.389   3.022  0.00  0.00    +0.011 C 
ATOM     20  H   UNL     1       1.488  -2.743  -0.621  0.00  0.00    +0.147 HD
ATOM     21  H   UNL     1      -1.619  -0.644  -0.921  0.00  0.00    +0.152 HD
ENDROOT
BRANCH   9  22
ATOM     22  C   UNL     1       1.414  -2.282   2.483  0.00  0.00    -0.016 A 
ATOM     23  C   UNL     1       1.426  -0.937   2.802  0.00  0.00    +0.055 A 
ATOM     24  C   UNL     1       2.147  -0.488   3.898  0.00  0.00    +0.165 A 
ATOM     25  C   UNL     1       2.869  -1.391   4.670  0.00  0.00    +0.201 A 
ATOM     26  C   UNL     1       2.860  -2.742   4.342  0.00  0.00    +0.165 A 
ATOM     27  C   UNL     1       2.131  -3.183   3.248  0.00  0.00    +0.055 A 
BRANCH  26  28
ATOM     28  O   UNL     1       3.564  -3.630   5.094  0.00  0.00    -0.491 OA
ATOM     29  C   UNL     1       3.508  -5.002   4.699  0.00  0.00    +0.277 C 
ENDBRANCH  26  28
BRANCH  25  30
ATOM     30  O   UNL     1       3.584  -0.954   5.742  0.00  0.00    -0.501 OA
ATOM     31  H   UNL     1       4.495  -0.707   5.534  0.00  0.00    +0.292 HD
ENDBRANCH  25  30
BRANCH  24  32
ATOM     32  O   UNL     1       2.153   0.835   4.215  0.00  0.00    -0.491 OA
ATOM     33  C   UNL     1       1.304   1.689   3.446  0.00  0.00    +0.277 C 
ENDBRANCH  24  32
ENDBRANCH   9  22
TORSDOF 4
