REMARK  Name = ZINC36310058
REMARK  17 active torsions:
REMARK  status: ('A' for Active; 'I' for Inactive)
REMARK    1  A    between atoms: C_1  and  C_2
REMARK    2  A    between atoms: C_2  and  C_3
REMARK    3  A    between atoms: C_3  and  N_4
REMARK    4  A    between atoms: N_4  and  C_5
REMARK    5  A    between atoms: N_4  and  C_14
REMARK    6  A    between atoms: C_5  and  C_6
REMARK    7  A    between atoms: C_6  and  C_8
REMARK    8  A    between atoms: C_6  and  O_13
REMARK    9  A    between atoms: C_8  and  O_9
REMARK   10  A    between atoms: O_9  and  C_10
REMARK   11  A    between atoms: C_10  and  C_11
REMARK   12  A    between atoms: C_14  and  C_15
REMARK   13  A    between atoms: C_25  and  C_27
REMARK   14  A    between atoms: C_27  and  O_28
REMARK   15  A    between atoms: O_28  and  C_29
REMARK   16  A    between atoms: C_32  and  O_35
REMARK   17  A    between atoms: O_35  and  C_36
REMARK                            x       y       z     vdW  Elec       q    Type
REMARK                         _______ _______ _______ _____ _____    ______ ____
ROOT
ATOM      1  C   UNL     1       3.146  -1.955  -1.990  0.00  0.00    +0.200 C 
ATOM      2  O   UNL     1       3.354  -1.211  -1.056  0.00  0.00    -0.278 OA
ATOM      3  N   UNL     1       4.156  -2.307  -2.810  0.00  0.00    -0.292 N 
ATOM      4  C   UNL     1       3.914  -3.204  -3.950  0.00  0.00    +0.113 C 
ATOM      5  C   UNL     1       4.176  -2.421  -5.245  0.00  0.00    +0.061 C 
ATOM      6  C   UNL     1       5.423  -1.616  -5.074  0.00  0.00    -0.004 A 
ATOM      7  C   UNL     1       6.062  -1.300  -3.914  0.00  0.00    -0.014 A 
ATOM      8  C   UNL     1       7.213  -0.522  -4.026  0.00  0.00    +0.013 A 
ATOM      9  C   UNL     1       7.645  -0.124  -5.245  0.00  0.00    +0.046 A 
ATOM     10  S   UNL     1       6.418  -0.846  -6.324  0.00  0.00    -0.101 S 
ATOM     11  C   UNL     1       5.514  -1.794  -2.582  0.00  0.00    +0.144 C 
ENDROOT
BRANCH   1  12
ATOM     12  C   UNL     1       1.757  -2.487  -2.234  0.00  0.00    +0.019 C 
BRANCH  12  13
ATOM     13  N   UNL     1       0.844  -1.961  -1.211  0.00  0.00    +0.387 N 
ATOM     14  H   UNL     1       1.204  -2.180  -0.294  0.00  0.00    -0.081 HD
BRANCH  13  15
ATOM     15  C   UNL     1       0.733  -0.503  -1.357  0.00  0.00    -0.078 C 
BRANCH  15  17
ATOM     16  C   UNL     1      -0.102   1.591  -0.281  0.00  0.00    +0.002 C 
ATOM     17  C   UNL     1      -0.098   0.063  -0.204  0.00  0.00    -0.022 C 
ENDBRANCH  15  17
ENDBRANCH  13  15
BRANCH  13  18
ATOM     18  C   UNL     1      -0.481  -2.572  -1.376  0.00  0.00    -0.044 C 
BRANCH  18  19
ATOM     19  C   UNL     1      -0.393  -4.070  -1.078  0.00  0.00    +0.124 C 
BRANCH  19  20
ATOM     20  O   UNL     1       0.052  -4.263   0.266  0.00  0.00    -0.391 OA
ATOM     21  H   UNL     1      -0.567  -3.940   0.935  0.00  0.00    +0.210 HD
ENDBRANCH  19  20
BRANCH  19  22
ATOM     22  C   UNL     1      -1.773  -4.707  -1.255  0.00  0.00    +0.190 C 
BRANCH  22  23
ATOM     23  O   UNL     1      -1.668  -6.123  -1.091  0.00  0.00    -0.365 OA
BRANCH  23  24
ATOM     24  C   UNL     1      -2.908  -6.818  -1.237  0.00  0.00    +0.248 C 
BRANCH  24  25
ATOM     25  C   UNL     1      -2.686  -8.261  -1.050  0.00  0.00    -0.077 C 
ATOM     26  C   UNL     1      -2.510  -9.412  -0.900  0.00  0.00    +0.006 C 
ENDBRANCH  24  25
ENDBRANCH  23  24
ENDBRANCH  22  23
ENDBRANCH  19  22
ENDBRANCH  18  19
ENDBRANCH  13  18
ENDBRANCH  12  13
ENDBRANCH   1  12
BRANCH  11  27
ATOM     27  C   UNL     1       6.407  -2.914  -2.042  0.00  0.00    +0.256 C 
BRANCH  27  28
ATOM     28  O   UNL     1       6.552  -3.928  -3.038  0.00  0.00    -0.490 OA
BRANCH  28  29
ATOM     29  C   UNL     1       7.321  -5.003  -2.717  0.00  0.00    +0.121 A 
ATOM     30  C   UNL     1       7.917  -5.080  -1.467  0.00  0.00    +0.049 A 
ATOM     31  C   UNL     1       8.698  -6.171  -1.140  0.00  0.00    +0.049 A 
ATOM     32  C   UNL     1       8.886  -7.191  -2.062  0.00  0.00    +0.120 A 
ATOM     33  C   UNL     1       8.289  -7.114  -3.312  0.00  0.00    +0.049 A 
ATOM     34  C   UNL     1       7.504  -6.024  -3.637  0.00  0.00    +0.049 A 
BRANCH  32  35
ATOM     35  O   UNL     1       9.656  -8.265  -1.741  0.00  0.00    -0.495 OA
ATOM     36  C   UNL     1       9.806  -9.277  -2.739  0.00  0.00    +0.277 C 
ENDBRANCH  32  35
ENDBRANCH  28  29
ENDBRANCH  27  28
ENDBRANCH  11  27
TORSDOF 15
