REMARK  Name = ZINC03037350
REMARK  5 active torsions:
REMARK  status: ('A' for Active; 'I' for Inactive)
REMARK    1  A    between atoms: C_1  and  C_2
REMARK    2  A    between atoms: C_2  and  C_3
REMARK    3  A    between atoms: C_6  and  N_9
REMARK    4  A    between atoms: C_19  and  C_20
REMARK    5  A    between atoms: C_19  and  O_34
REMARK                            x       y       z     vdW  Elec       q    Type
REMARK                         _______ _______ _______ _____ _____    ______ ____
ROOT
ATOM      1  N   UNL     1       2.649  -1.831  -4.598  0.00  0.00    -0.214 N 
ATOM      2  C   UNL     1       1.925  -2.139  -5.689  0.00  0.00    +0.314 C 
ATOM      3  O   UNL     1       0.716  -2.022  -5.634  0.00  0.00    -0.252 OA
ATOM      4  N   UNL     1       2.473  -2.567  -6.833  0.00  0.00    -0.269 N 
ATOM      5  C   UNL     1       3.848  -2.735  -7.000  0.00  0.00    +0.043 A 
ATOM      6  C   UNL     1       4.367  -3.184  -8.207  0.00  0.00    +0.024 A 
ATOM      7  C   UNL     1       5.731  -3.344  -8.352  0.00  0.00    +0.002 A 
ATOM      8  C   UNL     1       6.584  -3.060  -7.300  0.00  0.00    +0.001 A 
ATOM      9  C   UNL     1       6.071  -2.613  -6.094  0.00  0.00    +0.010 A 
ATOM     10  C   UNL     1       4.713  -2.452  -5.948  0.00  0.00    +0.033 A 
ATOM     11  C   UNL     1       4.115  -1.961  -4.649  0.00  0.00    +0.247 C 
ATOM     12  H   UNL     1       1.888  -2.771  -7.580  0.00  0.00    +0.156 HD
ENDROOT
BRANCH  11  13
ATOM     13  C   UNL     1       4.536  -2.913  -3.560  0.00  0.00    +0.272 C 
ATOM     14  O   UNL     1       5.290  -2.539  -2.686  0.00  0.00    -0.270 OA
ATOM     15  N   UNL     1       4.075  -4.179  -3.557  0.00  0.00    -0.294 N 
ATOM     16  C   UNL     1       3.167  -4.647  -4.613  0.00  0.00    +0.127 C 
ATOM     17  C   UNL     1       3.775  -5.895  -5.266  0.00  0.00    +0.125 C 
ATOM     18  N   UNL     1       4.173  -6.833  -4.206  0.00  0.00    -0.314 N 
ATOM     19  C   UNL     1       5.082  -6.365  -3.150  0.00  0.00    +0.125 C 
ATOM     20  C   UNL     1       4.478  -5.119  -2.501  0.00  0.00    +0.127 C 
ATOM     21  C   UNL     1       3.698  -8.139  -4.203  0.00  0.00    +0.099 A 
ATOM     22  C   UNL     1       2.949  -8.603  -5.280  0.00  0.00    +0.042 A 
ATOM     23  C   UNL     1       2.483  -9.905  -5.264  0.00  0.00    +0.005 A 
ATOM     24  C   UNL     1       2.781 -10.702  -4.167  0.00  0.00    +0.018 A 
ATOM     25  C   UNL     1       3.529 -10.177  -3.132  0.00  0.00    +0.084 A 
ATOM     26  N   UNL     1       3.966  -8.932  -3.177  0.00  0.00    -0.350 N 
ATOM     27  H   UNL     1       4.493  -8.588  -2.439  0.00  0.00    +0.166 HD
ENDBRANCH  11  13
BRANCH   1  31
ATOM     28  C   UNL     1       0.768  -0.511  -1.122  0.00  0.00    -0.048 A 
ATOM     29  C   UNL     1       1.537   0.365  -1.867  0.00  0.00    +0.005 A 
ATOM     30  C   UNL     1       2.161  -0.069  -3.019  0.00  0.00    +0.024 A 
ATOM     31  C   UNL     1       2.018  -1.388  -3.430  0.00  0.00    +0.041 A 
ATOM     32  C   UNL     1       1.246  -2.265  -2.681  0.00  0.00    +0.024 A 
ATOM     33  C   UNL     1       0.628  -1.826  -1.526  0.00  0.00    +0.005 A 
BRANCH  28  35
ATOM     34  C   UNL     1       1.024  -0.233   1.328  0.00  0.00    +0.009 C 
ATOM     35  C   UNL     1       0.088  -0.034   0.135  0.00  0.00    +0.032 C 
ENDBRANCH  28  35
ENDBRANCH   1  31
BRANCH  11  36
ATOM     36  O   UNL     1       4.681  -0.682  -4.354  0.00  0.00    -0.360 OA
ATOM     37  H   UNL     1       5.648  -0.668  -4.365  0.00  0.00    +0.213 HD
ENDBRANCH  11  36
TORSDOF 4
