REMARK  Name = ZINC39836246
REMARK  6 active torsions:
REMARK  status: ('A' for Active; 'I' for Inactive)
REMARK    1  A    between atoms: C_1  and  C_2
REMARK    2  A    between atoms: C_9  and  N_22
REMARK    3  A    between atoms: C_10  and  C_11
REMARK    4  A    between atoms: N_13  and  C_14
REMARK    5  A    between atoms: C_23  and  C_25
REMARK    6  A    between atoms: C_30  and  N_31
REMARK                            x       y       z     vdW  Elec       q    Type
REMARK                         _______ _______ _______ _____ _____    ______ ____
ROOT
ATOM      1  C   UNL     1      -0.660   1.859   2.040  0.00  0.00    +0.008 C 
ATOM      2  C   UNL     1      -0.700   0.336   1.894  0.00  0.00    -0.009 C 
ATOM      3  C   UNL     1      -0.427  -0.047   0.437  0.00  0.00    +0.008 C 
ATOM      4  C   UNL     1      -0.707  -1.537   0.229  0.00  0.00    +0.037 C 
ATOM      5  C   UNL     1       0.056  -2.328   1.282  0.00  0.00    -0.023 A 
ATOM      6  C   UNL     1       0.522  -1.736   2.403  0.00  0.00    -0.004 A 
ATOM      7  S   UNL     1       1.321  -3.036   3.297  0.00  0.00    -0.077 S 
ATOM      8  C   UNL     1       1.056  -4.315   2.242  0.00  0.00    +0.085 A 
ATOM      9  C   UNL     1       0.349  -3.747   1.193  0.00  0.00    +0.069 A 
ATOM     10  C   UNL     1       0.378  -0.295   2.787  0.00  0.00    +0.046 C 
ENDROOT
BRANCH   9  11
ATOM     11  C   UNL     1      -0.084  -4.547   0.043  0.00  0.00    +0.247 C 
ATOM     12  O   UNL     1       0.642  -4.660  -0.927  0.00  0.00    -0.270 OA
ATOM     13  N   UNL     1      -1.286  -5.156   0.060  0.00  0.00    -0.307 N 
ATOM     14  H   UNL     1      -1.865  -5.065   0.833  0.00  0.00    +0.149 HD
BRANCH  13  15
ATOM     15  C   UNL     1      -1.719  -5.954  -1.090  0.00  0.00    +0.096 C 
ATOM     16  C   UNL     1      -1.169  -7.384  -0.954  0.00  0.00    +0.046 C 
ATOM     17  C   UNL     1      -1.890  -8.281  -2.001  0.00  0.00    +0.168 C 
ATOM     18  S   UNL     1      -3.612  -7.641  -1.864  0.00  0.00    -0.029 S 
ATOM     19  O   UNL     1      -4.322  -8.423  -0.914  0.00  0.00    -0.174 OA
ATOM     20  O   UNL     1      -4.147  -7.472  -3.170  0.00  0.00    -0.174 OA
ATOM     21  C   UNL     1      -3.266  -5.988  -1.138  0.00  0.00    +0.188 C 
ENDBRANCH  13  15
ENDBRANCH   9  11
BRANCH   8  22
ATOM     22  N   UNL     1       1.453  -5.635   2.386  0.00  0.00    -0.275 N 
ATOM     23  C   UNL     1       2.140  -6.016   3.481  0.00  0.00    +0.251 C 
ATOM     24  O   UNL     1       2.412  -5.202   4.342  0.00  0.00    -0.270 OA
ATOM     25  H   UNL     1       1.236  -6.284   1.699  0.00  0.00    +0.156 HD
BRANCH  23  26
ATOM     26  C   UNL     1       2.563  -7.423   3.635  0.00  0.00    +0.067 A 
ATOM     27  C   UNL     1       1.622  -8.451   3.557  0.00  0.00    +0.015 A 
ATOM     28  C   UNL     1       2.024  -9.763   3.701  0.00  0.00    +0.001 A 
ATOM     29  C   UNL     1       3.357 -10.061   3.924  0.00  0.00    +0.002 A 
ATOM     30  C   UNL     1       4.295  -9.047   4.002  0.00  0.00    +0.033 A 
ATOM     31  C   UNL     1       3.907  -7.731   3.853  0.00  0.00    +0.138 A 
BRANCH  31  32
ATOM     32  N   UNL     1       4.913  -6.648   3.931  0.00  0.00    +0.057 N 
ATOM     33  O   UNL     1       6.053  -6.904   4.242  0.00  0.00    -0.126 OA
ATOM     34  O   UNL     1       4.595  -5.508   3.684  0.00  0.00    -0.126 OA
ENDBRANCH  31  32
ENDBRANCH  23  26
ENDBRANCH   8  22
TORSDOF 5
