REMARK  Name = ZINC44645640
REMARK  10 active torsions:
REMARK  status: ('A' for Active; 'I' for Inactive)
REMARK    1  A    between atoms: C_1  and  C_2
REMARK    2  A    between atoms: C_2  and  C_4
REMARK    3  A    between atoms: C_2  and  O_15
REMARK    4  A    between atoms: C_4  and  C_6
REMARK    5  A    between atoms: O_15  and  C_16
REMARK    6  A    between atoms: C_16  and  C_18
REMARK    7  A    between atoms: C_21  and  O_32
REMARK    8  A    between atoms: C_22  and  S_24
REMARK    9  A    between atoms: S_24  and  N_27
REMARK   10  A    between atoms: O_32  and  C_33
REMARK                            x       y       z     vdW  Elec       q    Type
REMARK                         _______ _______ _______ _____ _____    ______ ____
ROOT
ATOM      1  C   UNL     1      -0.045  -0.698   2.265  0.00  0.00    +0.340 C 
ATOM      2  O   UNL     1      -1.242  -0.493   2.247  0.00  0.00    -0.245 OA
ENDROOT
BRANCH   1   3
ATOM      3  C   UNL     1       0.601  -1.186   3.498  0.00  0.00    +0.061 A 
ATOM      4  C   UNL     1       1.980  -1.417   3.523  0.00  0.00    +0.018 A 
ATOM      5  C   UNL     1       2.579  -1.873   4.675  0.00  0.00    +0.048 A 
ATOM      6  C   UNL     1       1.815  -2.105   5.813  0.00  0.00    +0.146 A 
ATOM      7  C   UNL     1       0.444  -1.877   5.793  0.00  0.00    +0.148 A 
ATOM      8  C   UNL     1      -0.163  -1.415   4.646  0.00  0.00    +0.047 A 
BRANCH   7   9
ATOM      9  S   UNL     1      -0.519  -2.173   7.239  0.00  0.00    +0.064 S 
ATOM     10  O   UNL     1       0.153  -1.530   8.313  0.00  0.00    -0.153 OA
ATOM     11  O   UNL     1      -1.867  -1.878   6.897  0.00  0.00    -0.153 OA
BRANCH   9  12
ATOM     12  N   UNL     1      -0.455  -3.800   7.545  0.00  0.00    -0.176 NA
ATOM     13  C   UNL     1      -1.386  -4.808   7.019  0.00  0.00    +0.109 C 
ATOM     14  C   UNL     1      -0.951  -6.175   7.590  0.00  0.00    +0.018 C 
ATOM     15  C   UNL     1      -0.143  -5.782   8.855  0.00  0.00    +0.018 C 
ATOM     16  C   UNL     1       0.550  -4.476   8.385  0.00  0.00    +0.109 C 
ENDBRANCH   9  12
ENDBRANCH   7   9
BRANCH   6  17
ATOM     17  O   UNL     1       2.409  -2.555   6.947  0.00  0.00    -0.493 OA
ATOM     18  C   UNL     1       3.821  -2.768   6.899  0.00  0.00    +0.277 C 
ENDBRANCH   6  17
ENDBRANCH   1   3
BRANCH   1  19
ATOM     19  O   UNL     1       0.693  -0.477   1.160  0.00  0.00    -0.450 OA
BRANCH  19  21
ATOM     20  C   UNL     1      -0.019   1.526   0.010  0.00  0.00    +0.061 C 
ATOM     21  C   UNL     1       0.002  -0.004   0.002  0.00  0.00    +0.244 C 
BRANCH  21  22
ATOM     22  C   UNL     1       0.707  -0.490  -1.238  0.00  0.00    +0.202 C 
ATOM     23  O   UNL     1       1.835  -0.934  -1.160  0.00  0.00    -0.288 OA
BRANCH  22  24
ATOM     24  C   UNL     1       0.058  -0.429  -2.489  0.00  0.00    +0.027 C 
ATOM     25  C   UNL     1       0.559  -0.836  -3.712  0.00  0.00    +0.006 A 
ATOM     26  C   UNL     1       1.792  -1.406  -4.106  0.00  0.00    +0.010 A 
ATOM     27  C   UNL     1       2.019  -1.712  -5.403  0.00  0.00    +0.001 A 
ATOM     28  C   UNL     1       1.065  -1.486  -6.408  0.00  0.00    +0.002 A 
ATOM     29  C   UNL     1      -0.143  -0.946  -6.139  0.00  0.00    +0.026 A 
ATOM     30  C   UNL     1      -0.471  -0.584  -4.750  0.00  0.00    +0.043 A 
ATOM     31  N   UNL     1      -1.538  -0.059  -4.217  0.00  0.00    -0.380 N 
ATOM     32  C   UNL     1      -1.335   0.089  -2.772  0.00  0.00    +0.152 C 
ATOM     33  H   UNL     1      -2.341   0.191  -4.699  0.00  0.00    +0.160 HD
ENDBRANCH  22  24
ENDBRANCH  21  22
ENDBRANCH  19  21
ENDBRANCH   1  19
TORSDOF 8
