REMARK  Name = ZINC66905214
REMARK  5 active torsions:
REMARK  status: ('A' for Active; 'I' for Inactive)
REMARK    1  A    between atoms: C_4  and  C_30
REMARK    2  A    between atoms: C_5  and  C_7
REMARK    3  A    between atoms: C_7  and  O_8
REMARK    4  A    between atoms: O_8  and  C_9
REMARK    5  A    between atoms: C_13  and  C_15
REMARK                            x       y       z     vdW  Elec       q    Type
REMARK                         _______ _______ _______ _____ _____    ______ ____
ROOT
ATOM      1  C   UNL     1      -3.101  -6.544  -0.015  0.00  0.00    +0.209 C 
ATOM      2  N   UNL     1      -3.139  -7.725  -0.897  0.00  0.00    -0.294 N 
ATOM      3  C   UNL     1      -2.658  -8.925  -0.396  0.00  0.00    +0.159 C 
ATOM      4  N   UNL     1      -3.174  -9.336   0.834  0.00  0.00    -0.259 N 
ATOM      5  C   UNL     1      -3.469  -8.308   1.725  0.00  0.00    +0.205 A 
ATOM      6  N   UNL     1      -3.448  -6.984   1.342  0.00  0.00    -0.288 N 
ATOM      7  C   UNL     1      -3.793  -6.241   2.433  0.00  0.00    +0.072 A 
ATOM      8  C   UNL     1      -3.942  -4.874   2.638  0.00  0.00    +0.028 A 
ATOM      9  C   UNL     1      -4.311  -4.463   3.909  0.00  0.00    +0.002 A 
ATOM     10  C   UNL     1      -4.524  -5.362   4.939  0.00  0.00    +0.002 A 
ATOM     11  C   UNL     1      -4.383  -6.727   4.761  0.00  0.00    +0.030 A 
ATOM     12  C   UNL     1      -4.012  -7.166   3.485  0.00  0.00    +0.091 A 
ATOM     13  N   UNL     1      -3.795  -8.403   2.985  0.00  0.00    -0.214 NA
ATOM     14  N   UNL     1      -1.771  -9.631  -1.038  0.00  0.00    -0.375 N 
ATOM     15  H   UNL     1      -3.490  -7.664  -1.799  0.00  0.00    +0.151 HD
ATOM     16  H   UNL     1      -1.430  -9.321  -1.892  0.00  0.00    +0.158 HD
ATOM     17  H   UNL     1      -3.317 -10.270   1.052  0.00  0.00    +0.158 HD
ATOM     18  H   UNL     1      -1.452 -10.467  -0.664  0.00  0.00    +0.158 HD
ENDROOT
BRANCH   1  23
ATOM     19  C   UNL     1      -0.280  -4.030  -0.017  0.00  0.00    +0.121 A 
ATOM     20  C   UNL     1       0.830  -4.863  -0.027  0.00  0.00    +0.045 A 
ATOM     21  C   UNL     1       0.663  -6.234  -0.033  0.00  0.00    +0.004 A 
ATOM     22  C   UNL     1      -0.609  -6.777  -0.029  0.00  0.00    +0.007 A 
ATOM     23  C   UNL     1      -1.716  -5.949  -0.019  0.00  0.00    -0.003 A 
ATOM     24  C   UNL     1      -1.555  -4.577  -0.007  0.00  0.00    +0.053 A 
BRANCH  19  25
ATOM     25  O   UNL     1      -0.118  -2.680  -0.011  0.00  0.00    -0.487 OA
BRANCH  25  26
ATOM     26  C   UNL     1       1.223  -2.188  -0.022  0.00  0.00    +0.265 C 
BRANCH  26  31
ATOM     27  C   UNL     1      -0.017   1.379   0.010  0.00  0.00    +0.000 A 
ATOM     28  C   UNL     1       1.168   2.094   0.002  0.00  0.00    +0.001 A 
ATOM     29  C   UNL     1       2.377   1.430  -0.013  0.00  0.00    +0.019 A 
ATOM     30  C   UNL     1       2.404   0.034  -0.021  0.00  0.00    +0.058 A 
ATOM     31  C   UNL     1       1.204  -0.681  -0.013  0.00  0.00    +0.007 A 
ATOM     32  C   UNL     1       0.002  -0.004   0.002  0.00  0.00    +0.008 A 
BRANCH  30  33
ATOM     33  C   UNL     1       3.655  -0.662  -0.038  0.00  0.00    +0.100 C 
ATOM     34  N   UNL     1       4.648  -1.214  -0.051  0.00  0.00    -0.191 NA
ENDBRANCH  30  33
ENDBRANCH  26  31
ENDBRANCH  25  26
ENDBRANCH  19  25
ENDBRANCH   1  23
TORSDOF 5
