REMARK  Name = ZINC39237895
REMARK  6 active torsions:
REMARK  status: ('A' for Active; 'I' for Inactive)
REMARK    1  A    between atoms: C_6  and  C_11
REMARK    2  A    between atoms: C_15  and  C_25
REMARK    3  A    between atoms: C_19  and  C_21
REMARK    4  A    between atoms: N_27  and  C_28
REMARK    5  A    between atoms: C_28  and  C_29
REMARK    6  A    between atoms: C_29  and  C_30
REMARK                            x       y       z     vdW  Elec       q    Type
REMARK                         _______ _______ _______ _____ _____    ______ ____
ROOT
ATOM      1  C   UNL     1       4.979  -2.713  -0.060  0.00  0.00    +0.075 C 
ATOM      2  N   UNL     1       6.107  -2.033  -0.063  0.00  0.00    -0.231 NA
ATOM      3  C   UNL     1       7.305  -2.669  -0.078  0.00  0.00    +0.138 C 
ATOM      4  C   UNL     1       8.548  -2.144  -0.082  0.00  0.00    +0.047 C 
ATOM      5  C   UNL     1       9.512  -3.307  -0.100  0.00  0.00    +0.185 C 
ATOM      6  N   UNL     1       8.649  -4.501  -0.104  0.00  0.00    -0.218 NA
ATOM      7  N   UNL     1       7.354  -4.056  -0.091  0.00  0.00    -0.213 N 
ATOM      8  C   UNL     1       6.184  -4.777  -0.090  0.00  0.00    +0.133 C 
ATOM      9  C   UNL     1       5.001  -4.130  -0.068  0.00  0.00    +0.057 C 
ATOM     10  H   UNL     1       8.826  -5.072  -0.917  0.00  0.00    +0.146 HD
ENDROOT
BRANCH   1  16
ATOM     11  C   UNL     1      -0.016   1.357   0.009  0.00  0.00    +0.001 A 
ATOM     12  C   UNL     1       1.168   2.091   0.002  0.00  0.00    +0.001 A 
ATOM     13  C   UNL     1       2.378   1.468  -0.013  0.00  0.00    +0.008 A 
ATOM     14  C   UNL     1       2.437   0.063  -0.021  0.00  0.00    -0.017 A 
ATOM     15  C   UNL     1       3.667  -0.612  -0.036  0.00  0.00    +0.018 A 
ATOM     16  C   UNL     1       3.685  -1.995  -0.044  0.00  0.00    +0.001 A 
ATOM     17  C   UNL     1       2.483  -2.725  -0.036  0.00  0.00    +0.010 A 
ATOM     18  C   UNL     1       1.283  -2.090  -0.021  0.00  0.00    +0.009 A 
ATOM     19  C   UNL     1       1.232  -0.684  -0.013  0.00  0.00    -0.018 A 
ATOM     20  C   UNL     1       0.002  -0.004   0.002  0.00  0.00    +0.008 A 
ENDBRANCH   1  16
BRANCH   8  21
ATOM     21  C   UNL     1       6.222  -6.283  -0.104  0.00  0.00    +0.432 C 
ATOM     22  F   UNL     1       4.916  -6.784  -0.100  0.00  0.00    -0.165 F 
ATOM     23  F   UNL     1       6.886  -6.722  -1.255  0.00  0.00    -0.165 F 
ATOM     24  F   UNL     1       6.901  -6.743   1.030  0.00  0.00    -0.165 F 
ENDBRANCH   8  21
BRANCH   5  25
ATOM     25  C   UNL     1      10.382  -3.289   1.131  0.00  0.00    +0.236 C 
ATOM     26  O   UNL     1      10.347  -4.216   1.912  0.00  0.00    -0.274 OA
ATOM     27  N   UNL     1      11.199  -2.242   1.363  0.00  0.00    -0.313 N 
ATOM     28  H   UNL     1      11.227  -1.501   0.738  0.00  0.00    +0.149 HD
BRANCH  27  29
ATOM     29  C   UNL     1      12.044  -2.224   2.559  0.00  0.00    +0.109 C 
BRANCH  29  30
ATOM     30  C   UNL     1      12.867  -0.934   2.583  0.00  0.00    +0.056 C 
BRANCH  30  31
ATOM     31  C   UNL     1      13.737  -0.916   3.813  0.00  0.00    -0.021 A 
ATOM     32  C   UNL     1      15.058  -1.532   3.956  0.00  0.00    +0.003 A 
ATOM     33  C   UNL     1      15.883  -2.267   3.103  0.00  0.00    +0.010 A 
ATOM     34  C   UNL     1      17.095  -2.714   3.549  0.00  0.00    +0.001 A 
ATOM     35  C   UNL     1      17.512  -2.443   4.845  0.00  0.00    +0.002 A 
ATOM     36  C   UNL     1      16.714  -1.718   5.703  0.00  0.00    +0.026 A 
ATOM     37  C   UNL     1      15.477  -1.254   5.270  0.00  0.00    +0.047 A 
ATOM     38  N   UNL     1      14.476  -0.523   5.869  0.00  0.00    -0.360 N 
ATOM     39  C   UNL     1      13.450  -0.327   4.985  0.00  0.00    +0.087 A 
ATOM     40  H   UNL     1      14.496  -0.193   6.781  0.00  0.00    +0.165 HD
ENDBRANCH  30  31
ENDBRANCH  29  30
ENDBRANCH  27  29
ENDBRANCH   5  25
TORSDOF 6
