REMARK  Name = ZINC22406933
REMARK  9 active torsions:
REMARK  status: ('A' for Active; 'I' for Inactive)
REMARK    1  A    between atoms: C_1  and  C_2
REMARK    2  A    between atoms: C_2  and  O_3
REMARK    3  A    between atoms: O_3  and  C_4
REMARK    4  A    between atoms: C_12  and  C_14
REMARK    5  A    between atoms: C_15  and  C_16
REMARK    6  A    between atoms: C_18  and  O_25
REMARK    7  A    between atoms: C_19  and  O_23
REMARK    8  A    between atoms: O_23  and  C_24
REMARK    9  A    between atoms: O_25  and  C_26
REMARK                            x       y       z     vdW  Elec       q    Type
REMARK                         _______ _______ _______ _____ _____    ______ ____
ROOT
ATOM      1  C   UNL     1      -1.517  -1.835  -2.390  0.00  0.00    +0.403 C 
ATOM      2  O   UNL     1      -1.374  -0.628  -2.388  0.00  0.00    -0.226 OA
ATOM      3  N   UNL     1      -2.755  -2.367  -2.379  0.00  0.00    -0.264 N 
ATOM      4  C   UNL     1      -2.942  -3.824  -2.377  0.00  0.00    +0.130 C 
ATOM      5  C   UNL     1      -3.816  -4.204  -1.175  0.00  0.00    +0.127 C 
ATOM      6  N   UNL     1      -5.003  -3.337  -1.165  0.00  0.00    -0.295 N 
ATOM      7  C   UNL     1      -4.816  -1.879  -1.168  0.00  0.00    +0.127 C 
ATOM      8  C   UNL     1      -3.942  -1.500  -2.364  0.00  0.00    +0.130 C 
ATOM      9  C   UNL     1      -6.241  -3.869  -1.154  0.00  0.00    +0.240 C 
ATOM     10  O   UNL     1      -7.214  -3.145  -1.052  0.00  0.00    -0.271 OA
ENDROOT
BRANCH   9  11
ATOM     11  C   UNL     1      -6.416  -5.317  -1.265  0.00  0.00    +0.068 C 
ATOM     12  C   UNL     1      -7.656  -5.842  -1.357  0.00  0.00    +0.013 C 
BRANCH  12  13
ATOM     13  C   UNL     1      -7.832  -7.297  -1.469  0.00  0.00    -0.020 A 
ATOM     14  C   UNL     1      -9.117  -7.843  -1.571  0.00  0.00    +0.057 A 
ATOM     15  C   UNL     1      -9.276  -9.211  -1.675  0.00  0.00    +0.164 A 
ATOM     16  C   UNL     1      -8.158 -10.045  -1.679  0.00  0.00    +0.180 A 
ATOM     17  C   UNL     1      -6.883  -9.505  -1.578  0.00  0.00    +0.087 A 
ATOM     18  C   UNL     1      -6.715  -8.140  -1.479  0.00  0.00    +0.031 A 
ATOM     19 CL   UNL     1      -5.497 -10.550  -1.583  0.00  0.00    -0.080 Cl
BRANCH  16  20
ATOM     20  O   UNL     1      -8.318 -11.390  -1.781  0.00  0.00    -0.490 OA
ATOM     21  C   UNL     1      -8.332 -11.944  -3.099  0.00  0.00    +0.277 C 
ENDBRANCH  16  20
BRANCH  15  22
ATOM     22  O   UNL     1     -10.523  -9.745  -1.774  0.00  0.00    -0.491 OA
ATOM     23  C   UNL     1     -11.622  -8.831  -1.763  0.00  0.00    +0.277 C 
ENDBRANCH  15  22
ENDBRANCH  12  13
ENDBRANCH   9  11
BRANCH   1  24
ATOM     24  O   UNL     1      -0.438  -2.640  -2.405  0.00  0.00    -0.451 OA
BRANCH  24  26
ATOM     25  C   UNL     1       1.939  -3.076  -2.431  0.00  0.00    +0.048 C 
ATOM     26  C   UNL     1       0.844  -2.008  -2.416  0.00  0.00    +0.230 C 
ENDBRANCH  24  26
ENDBRANCH   1  24
TORSDOF 6
