REMARK  Name = ZINC59814042
REMARK  8 active torsions:
REMARK  status: ('A' for Active; 'I' for Inactive)
REMARK    1  A    between atoms: C_1  and  C_2
REMARK    2  A    between atoms: C_2  and  C_4
REMARK    3  A    between atoms: C_2  and  S_9
REMARK    4  A    between atoms: N_6  and  C_7
REMARK    5  A    between atoms: N_6  and  C_8
REMARK    6  A    between atoms: S_9  and  C_10
REMARK    7  A    between atoms: N_15  and  N_16
REMARK    8  A    between atoms: C_17  and  C_18
REMARK                            x       y       z     vdW  Elec       q    Type
REMARK                         _______ _______ _______ _____ _____    ______ ____
ROOT
ATOM      1  C   UNL     1      -2.365  -0.093  -1.525  0.00  0.00    +0.211 A 
ATOM      2  N   UNL     1      -3.609  -0.323  -1.957  0.00  0.00    -0.186 NA
ATOM      3  C   UNL     1      -3.772   0.219  -3.146  0.00  0.00    +0.232 A 
ATOM      4  N   UNL     1      -2.612   0.813  -3.497  0.00  0.00    -0.245 N 
ATOM      5  N   UNL     1      -1.720   0.602  -2.432  0.00  0.00    -0.144 NA
ATOM      6  N   UNL     1      -4.929   0.185  -3.903  0.00  0.00    -0.205 N 
ATOM      7  H   UNL     1      -4.952   0.615  -4.772  0.00  0.00    +0.177 HD
ATOM      8  H   UNL     1      -2.430   1.293  -4.319  0.00  0.00    +0.192 HD
ENDROOT
BRANCH   6   9
ATOM      9  N   UNL     1      -6.067  -0.471  -3.415  0.00  0.00    -0.188 NA
ATOM     10  C   UNL     1      -7.153  -0.503  -4.126  0.00  0.00    +0.139 C 
BRANCH  10  11
ATOM     11  C   UNL     1      -8.350  -1.192  -3.612  0.00  0.00    +0.013 A 
ATOM     12  C   UNL     1      -9.518  -1.234  -4.376  0.00  0.00    +0.012 A 
ATOM     13  C   UNL     1     -10.635  -1.881  -3.890  0.00  0.00    +0.021 A 
ATOM     14  C   UNL     1     -10.600  -2.489  -2.646  0.00  0.00    +0.042 A 
ATOM     15  C   UNL     1      -9.446  -2.452  -1.882  0.00  0.00    +0.040 A 
ATOM     16  C   UNL     1      -8.320  -1.813  -2.359  0.00  0.00    +0.051 A 
ATOM     17 CL   UNL     1      -6.871  -1.774  -1.403  0.00  0.00    -0.083 Cl
ATOM     18 CL   UNL     1     -12.011  -3.301  -2.042  0.00  0.00    -0.083 Cl
ENDBRANCH  10  11
ENDBRANCH   6   9
BRANCH   1  19
ATOM     19  S   UNL     1      -1.700  -0.632   0.015  0.00  0.00    -0.072 S 
BRANCH  19  21
ATOM     20  C   UNL     1      -0.019   1.526   0.010  0.00  0.00    +0.029 C 
ATOM     21  C   UNL     1       0.002  -0.004   0.002  0.00  0.00    +0.137 C 
BRANCH  21  22
ATOM     22  C   UNL     1       0.731  -0.503   1.223  0.00  0.00    +0.228 C 
ATOM     23  O   UNL     1       0.105  -0.891   2.187  0.00  0.00    -0.274 OA
ATOM     24  N   UNL     1       2.079  -0.519   1.244  0.00  0.00    -0.307 N 
ATOM     25  C   UNL     1       2.787  -1.004   2.431  0.00  0.00    +0.131 C 
ATOM     26  C   UNL     1       2.835  -0.050   0.080  0.00  0.00    +0.131 C 
ENDBRANCH  21  22
ENDBRANCH  19  21
ENDBRANCH   1  19
TORSDOF 5
