REMARK  Name = ZINC00598071
REMARK  4 active torsions:
REMARK  status: ('A' for Active; 'I' for Inactive)
REMARK    1  A    between atoms: C_1  and  C_2
REMARK    2  A    between atoms: C_2  and  C_3
REMARK    3  A    between atoms: C_3  and  O_27
REMARK    4  A    between atoms: C_23  and  N_26
REMARK                            x       y       z     vdW  Elec       q    Type
REMARK                         _______ _______ _______ _____ _____    ______ ____
ROOT
ATOM      1  C   UNL     1       1.324   2.046   0.000  0.00  0.00    +0.188 C 
ATOM      2  C   UNL     1       2.248   1.325  -0.949  0.00  0.00    +0.008 A 
ATOM      3  C   UNL     1       3.464   1.931  -1.293  0.00  0.00    +0.035 A 
ATOM      4  C   UNL     1       4.344   1.290  -2.137  0.00  0.00    +0.071 A 
ATOM      5  N   UNL     1       4.031   0.058  -2.638  0.00  0.00    -0.302 N 
ATOM      6  C   UNL     1       2.865  -0.535  -2.316  0.00  0.00    +0.259 A 
ATOM      7  O   UNL     1       2.605  -1.638  -2.768  0.00  0.00    -0.267 OA
ATOM      8  C   UNL     1       1.941   0.104  -1.462  0.00  0.00    +0.061 A 
ATOM      9  C   UNL     1       0.645  -0.598  -1.156  0.00  0.00    +0.273 C 
ATOM     10  O   UNL     1       0.002  -0.004   0.002  0.00  0.00    -0.457 OA
ATOM     11  C   UNL     1      -0.016   1.348   0.009  0.00  0.00    +0.344 C 
ATOM     12  O   UNL     1      -1.053   1.968   0.018  0.00  0.00    -0.247 OA
ATOM     13  C   UNL     1       5.133  -0.394  -3.497  0.00  0.00    +0.162 C 
ATOM     14  C   UNL     1       6.170   0.701  -3.475  0.00  0.00    +0.000 A 
ATOM     15  C   UNL     1       5.671   1.716  -2.642  0.00  0.00    +0.093 A 
ATOM     16  N   UNL     1       6.369   2.820  -2.426  0.00  0.00    -0.245 NA
ATOM     17  C   UNL     1       7.565   3.007  -2.986  0.00  0.00    +0.073 A 
ATOM     18  C   UNL     1       8.296   4.185  -2.746  0.00  0.00    +0.028 A 
ATOM     19  C   UNL     1       9.515   4.361  -3.325  0.00  0.00    +0.004 A 
ATOM     20  C   UNL     1      10.063   3.393  -4.161  0.00  0.00    +0.023 A 
ATOM     21  C   UNL     1       9.379   2.223  -4.424  0.00  0.00    +0.034 A 
ATOM     22  C   UNL     1       8.115   2.014  -3.836  0.00  0.00    +0.021 A 
ATOM     23  C   UNL     1       7.383   0.836  -4.075  0.00  0.00    +0.019 A 
ENDROOT
BRANCH  21  24
ATOM     24  N   UNL     1       9.934   1.259  -5.261  0.00  0.00    -0.357 N 
ATOM     25  H   UNL     1       9.449   0.438  -5.442  0.00  0.00    +0.142 HD
ATOM     26  H   UNL     1      10.804   1.407  -5.662  0.00  0.00    +0.142 HD
ENDBRANCH  21  24
BRANCH   1  28
ATOM     27  C   UNL     1       0.923   2.637   2.394  0.00  0.00    +0.007 C 
ATOM     28  C   UNL     1       1.921   2.026   1.409  0.00  0.00    +0.048 C 
ENDBRANCH   1  28
BRANCH   1  29
ATOM     29  O   UNL     1       1.157   3.398  -0.430  0.00  0.00    -0.373 OA
ATOM     30  H   UNL     1       0.568   3.920   0.132  0.00  0.00    +0.211 HD
ENDBRANCH   1  29
TORSDOF 3
