REMARK  Name = ZINC09960208
REMARK  11 active torsions:
REMARK  status: ('A' for Active; 'I' for Inactive)
REMARK    1  A    between atoms: C_1  and  C_2
REMARK    2  A    between atoms: C_2  and  C_3
REMARK    3  A    between atoms: C_3  and  C_5
REMARK    4  A    between atoms: C_3  and  N_6
REMARK    5  A    between atoms: C_7  and  C_9
REMARK    6  A    between atoms: C_9  and  N_10
REMARK    7  A    between atoms: C_20  and  O_22
REMARK    8  A    between atoms: O_22  and  C_23
REMARK    9  A    between atoms: C_23  and  C_24
REMARK   10  A    between atoms: N_27  and  C_30
REMARK   11  A    between atoms: C_30  and  C_31
REMARK                            x       y       z     vdW  Elec       q    Type
REMARK                         _______ _______ _______ _____ _____    ______ ____
ROOT
ATOM      1  N   UNL     1       0.991   3.551   0.012  0.00  0.00    -0.278 N 
ATOM      2  C   UNL     1       0.852   4.224  -1.172  0.00  0.00    +0.098 A 
ATOM      3  C   UNL     1       0.571   5.590  -1.202  0.00  0.00    +0.074 A 
ATOM      4  C   UNL     1       0.438   6.185  -2.533  0.00  0.00    -0.020 A 
ATOM      5  C   UNL     1       0.604   5.341  -3.571  0.00  0.00    +0.013 A 
ATOM      6  S   UNL     1       0.927   3.766  -2.832  0.00  0.00    -0.073 S 
ATOM      7  C   UNL     1       0.527   5.682  -5.029  0.00  0.00    +0.153 C 
ATOM      8  N   UNL     1       0.005   7.059  -5.127  0.00  0.00    -0.262 N 
ATOM      9  C   UNL     1       0.526   8.053  -4.176  0.00  0.00    +0.116 C 
ATOM     10  C   UNL     1       0.125   7.660  -2.752  0.00  0.00    +0.056 C 
ATOM     11  C   UNL     1      -0.916   7.394  -6.052  0.00  0.00    +0.403 C 
ATOM     12  O   UNL     1      -1.331   8.535  -6.112  0.00  0.00    -0.226 OA
ATOM     13  C   UNL     1       0.451   6.249   0.117  0.00  0.00    +0.265 A 
ATOM     14  O   UNL     1       0.212   7.441   0.191  0.00  0.00    -0.267 OA
ATOM     15  N   UNL     1       0.608   5.516   1.234  0.00  0.00    -0.256 N 
ATOM     16  C   UNL     1       0.872   4.200   1.186  0.00  0.00    +0.334 A 
ATOM     17  O   UNL     1       1.004   3.582   2.225  0.00  0.00    -0.246 OA
ENDROOT
BRANCH   1  18
ATOM     18  C   UNL     1       1.278   2.115   0.001  0.00  0.00    +0.223 C 
BRANCH  18  20
ATOM     19  N   UNL     1       0.002  -0.004   0.002  0.00  0.00    -0.311 N 
ATOM     20  C   UNL     1      -0.016   1.344   0.009  0.00  0.00    +0.233 C 
ATOM     21  O   UNL     1      -1.075   1.936   0.018  0.00  0.00    -0.274 OA
ATOM     22  H   UNL     1       0.849  -0.478  -0.009  0.00  0.00    +0.149 HD
BRANCH  19  23
ATOM     23  C   UNL     1      -1.256  -0.754   0.010  0.00  0.00    +0.070 C 
ATOM     24  C   UNL     1      -1.745  -0.914   1.451  0.00  0.00    +0.028 C 
BRANCH  23  26
ATOM     25  C   UNL     1      -0.663  -1.978  -2.086  0.00  0.00    +0.005 C 
ATOM     26  C   UNL     1      -1.032  -2.135  -0.609  0.00  0.00    +0.018 C 
ENDBRANCH  23  26
ENDBRANCH  19  23
ENDBRANCH  18  20
ENDBRANCH   1  18
BRANCH  11  27
ATOM     27  O   UNL     1      -1.377   6.465  -6.910  0.00  0.00    -0.451 OA
BRANCH  27  28
ATOM     28  C   UNL     1      -2.368   6.896  -7.880  0.00  0.00    +0.230 C 
ATOM     29  C   UNL     1      -2.768   5.711  -8.762  0.00  0.00    +0.048 C 
ENDBRANCH  27  28
ENDBRANCH  11  27
BRANCH  15  30
ATOM     30  C   UNL     1       0.489   6.172   2.538  0.00  0.00    +0.165 C 
BRANCH  30  31
ATOM     31  C   UNL     1       1.841   6.676   2.973  0.00  0.00    -0.028 A 
ATOM     32  C   UNL     1       2.673   5.864   3.722  0.00  0.00    +0.005 A 
ATOM     33  C   UNL     1       3.915   6.325   4.116  0.00  0.00    +0.000 A 
ATOM     34  C   UNL     1       4.321   7.601   3.771  0.00  0.00    +0.000 A 
ATOM     35  C   UNL     1       3.487   8.414   3.027  0.00  0.00    +0.000 A 
ATOM     36  C   UNL     1       2.247   7.951   2.628  0.00  0.00    +0.005 A 
ENDBRANCH  30  31
ENDBRANCH  15  30
TORSDOF 8
