REMARK  Name = ZINC63666841
REMARK  7 active torsions:
REMARK  status: ('A' for Active; 'I' for Inactive)
REMARK    1  A    between atoms: C_1  and  C_2
REMARK    2  A    between atoms: C_7  and  C_12
REMARK    3  A    between atoms: C_12  and  C_13
REMARK    4  A    between atoms: C_13  and  N_14
REMARK    5  A    between atoms: C_15  and  C_17
REMARK    6  A    between atoms: N_22  and  C_24
REMARK    7  A    between atoms: C_28  and  N_31
REMARK                            x       y       z     vdW  Elec       q    Type
REMARK                         _______ _______ _______ _____ _____    ______ ____
ROOT
ATOM      1  N   UNL     1       2.563  -7.185   1.664  0.00  0.00    -0.315 N 
ATOM      2  C   UNL     1       2.794  -8.423   1.183  0.00  0.00    +0.217 C 
ATOM      3  O   UNL     1       1.999  -8.937   0.426  0.00  0.00    -0.275 OA
ATOM      4  H   UNL     1       3.199  -6.774   2.271  0.00  0.00    +0.149 HD
ENDROOT
BRANCH   2   5
ATOM      5  C   UNL     1       4.040  -9.167   1.588  0.00  0.00    +0.089 C 
ATOM      6  C   UNL     1       4.054  -9.354   3.107  0.00  0.00    +0.015 C 
ATOM      7  C   UNL     1       5.292 -10.164   3.503  0.00  0.00    +0.016 C 
ATOM      8  C   UNL     1       5.274 -11.506   2.769  0.00  0.00    +0.087 C 
ATOM      9  N   UNL     1       5.262 -11.273   1.319  0.00  0.00    -0.270 NA
ATOM     10  C   UNL     1       4.059 -10.539   0.908  0.00  0.00    +0.100 C 
BRANCH   9  11
ATOM     11  C   UNL     1       5.384 -12.538   0.582  0.00  0.00    +0.260 C 
ATOM     12  N   UNL     1       4.288 -13.472   0.927  0.00  0.00    -0.159 NA
ATOM     13  N   UNL     1       4.527 -14.628   1.218  0.00  0.00    -0.156 NA
ATOM     14  C   UNL     1       5.919 -15.132   1.232  0.00  0.00    +0.279 C 
ATOM     15  S   UNL     1       6.832 -13.524   1.171  0.00  0.00    -0.069 S 
BRANCH  14  16
ATOM     16  N   UNL     1       6.208 -15.865   2.467  0.00  0.00    -0.270 N 
ATOM     17  C   UNL     1       5.755 -17.233   2.743  0.00  0.00    +0.111 C 
ATOM     18  C   UNL     1       6.634 -17.730   3.913  0.00  0.00    +0.028 C 
ATOM     19  C   UNL     1       7.031 -16.401   4.596  0.00  0.00    +0.097 C 
ATOM     20  C   UNL     1       6.927 -15.373   3.491  0.00  0.00    +0.218 C 
ATOM     21  O   UNL     1       7.419 -14.264   3.525  0.00  0.00    -0.276 OA
ENDBRANCH  14  16
ENDBRANCH   9  11
ENDBRANCH   2   5
BRANCH   1  22
ATOM     22  C   UNL     1       1.351  -6.461   1.272  0.00  0.00    +0.108 C 
BRANCH  22  23
ATOM     23  C   UNL     1       1.332  -5.091   1.952  0.00  0.00    +0.065 C 
BRANCH  23  30
ATOM     24  C   UNL     1      -0.018   1.503   0.010  0.00  0.00    +0.044 C 
ATOM     25  C   UNL     1       0.002  -0.004   0.002  0.00  0.00    -0.048 A 
ATOM     26  C   UNL     1       0.005  -0.672  -1.235  0.00  0.00    +0.005 A 
ATOM     27  C   UNL     1       0.022  -2.017  -1.335  0.00  0.00    +0.027 A 
ATOM     28  C   UNL     1       0.040  -2.834  -0.114  0.00  0.00    +0.060 A 
ATOM     29  N   UNL     1       0.057  -4.120   0.090  0.00  0.00    -0.363 N 
ATOM     30  C   UNL     1       0.067  -4.335   1.542  0.00  0.00    +0.175 C 
ATOM     31  N   UNL     1       0.053  -3.002   2.159  0.00  0.00    -0.363 N 
ATOM     32  C   UNL     1       0.037  -2.127   1.195  0.00  0.00    +0.060 A 
ATOM     33  C   UNL     1       0.022  -0.657   1.181  0.00  0.00    +0.030 A 
ATOM     34  H   UNL     1       0.062  -4.809  -0.593  0.00  0.00    +0.162 HD
ATOM     35  H   UNL     1       0.055  -2.810   3.109  0.00  0.00    +0.162 HD
ENDBRANCH  23  30
ENDBRANCH  22  23
ENDBRANCH   1  22
TORSDOF 6
