REMARK  Name = ZINC36597193
REMARK  10 active torsions:
REMARK  status: ('A' for Active; 'I' for Inactive)
REMARK    1  A    between atoms: C_1  and  C_2
REMARK    2  A    between atoms: C_5  and  C_7
REMARK    3  A    between atoms: C_7  and  N_8
REMARK    4  A    between atoms: N_8  and  C_9
REMARK    5  A    between atoms: C_9  and  C_11
REMARK    6  A    between atoms: C_9  and  C_21
REMARK    7  A    between atoms: C_14  and  C_17
REMARK    8  A    between atoms: N_23  and  C_24
REMARK    9  A    between atoms: C_30  and  C_32
REMARK   10  A    between atoms: C_35  and  O_38
REMARK                            x       y       z     vdW  Elec       q    Type
REMARK                         _______ _______ _______ _____ _____    ______ ____
ROOT
ATOM      1  C   UNL     1       3.329  -2.646  -2.644  0.00  0.00    +0.193 C 
ENDROOT
BRANCH   1   2
ATOM      2  C   UNL     1       2.885  -1.303  -3.163  0.00  0.00    -0.018 A 
ATOM      3  C   UNL     1       2.448  -0.331  -2.283  0.00  0.00    +0.006 A 
ATOM      4  C   UNL     1       2.041   0.901  -2.759  0.00  0.00    +0.013 A 
ATOM      5  C   UNL     1       2.071   1.162  -4.116  0.00  0.00    +0.055 A 
ATOM      6  C   UNL     1       2.508   0.190  -4.997  0.00  0.00    +0.013 A 
ATOM      7  C   UNL     1       2.919  -1.040  -4.520  0.00  0.00    +0.006 A 
BRANCH   5   8
ATOM      8  C   UNL     1       1.625   2.505  -4.635  0.00  0.00    +0.417 C 
ATOM      9  F   UNL     1       2.721   3.373  -4.682  0.00  0.00    -0.166 F 
ATOM     10  F   UNL     1       1.094   2.355  -5.920  0.00  0.00    -0.166 F 
ATOM     11  F   UNL     1       0.648   3.033  -3.785  0.00  0.00    -0.166 F 
ENDBRANCH   5   8
ENDBRANCH   1   2
BRANCH   1  12
ATOM     12  C   UNL     1       4.832  -2.737  -2.708  0.00  0.00    +0.238 C 
ATOM     13  O   UNL     1       5.440  -3.339  -1.849  0.00  0.00    -0.273 OA
ATOM     14  N   UNL     1       5.500  -2.151  -3.721  0.00  0.00    -0.311 N 
ATOM     15  H   UNL     1       5.014  -1.669  -4.409  0.00  0.00    +0.149 HD
BRANCH  14  16
ATOM     16  C   UNL     1       6.961  -2.239  -3.783  0.00  0.00    +0.073 C 
ATOM     17  C   UNL     1       7.577  -1.130  -2.929  0.00  0.00    +0.022 C 
ATOM     18  C   UNL     1       9.102  -1.222  -2.994  0.00  0.00    +0.002 C 
ATOM     19  C   UNL     1       9.562  -1.063  -4.444  0.00  0.00    +0.000 C 
ATOM     20  C   UNL     1       8.946  -2.173  -5.299  0.00  0.00    +0.002 C 
ATOM     21  C   UNL     1       7.420  -2.080  -5.234  0.00  0.00    +0.022 C 
ENDBRANCH  14  16
ENDBRANCH   1  12
BRANCH   1  22
ATOM     22  N   UNL     1       2.889  -2.803  -1.256  0.00  0.00    -0.275 N 
ATOM     23  C   UNL     1       1.676  -2.352  -0.878  0.00  0.00    +0.248 C 
ATOM     24  O   UNL     1       1.369  -2.346   0.298  0.00  0.00    -0.270 OA
BRANCH  23  25
ATOM     25  C   UNL     1       0.721  -1.866  -1.893  0.00  0.00    +0.037 A 
ATOM     26  C   UNL     1       0.898  -2.199  -3.239  0.00  0.00    +0.016 A 
ATOM     27  C   UNL     1       0.004  -1.744  -4.182  0.00  0.00    +0.046 A 
ATOM     28  C   UNL     1      -1.073  -0.954  -3.798  0.00  0.00    +0.117 A 
ATOM     29  C   UNL     1      -1.253  -0.621  -2.460  0.00  0.00    +0.046 A 
ATOM     30  C   UNL     1      -0.366  -1.077  -1.510  0.00  0.00    +0.016 A 
BRANCH  28  31
ATOM     31  O   UNL     1      -1.951  -0.507  -4.731  0.00  0.00    -0.507 OA
ATOM     32  H   UNL     1      -2.696  -1.102  -4.887  0.00  0.00    +0.292 HD
ENDBRANCH  28  31
ENDBRANCH  23  25
BRANCH  22  33
ATOM     33  C   UNL     1       3.768  -3.449  -0.278  0.00  0.00    +0.183 C 
BRANCH  33  38
ATOM     34  C   UNL     1       2.229  -8.247  -0.037  0.00  0.00    +0.086 C 
ATOM     35  C   UNL     1       3.054  -7.029  -0.367  0.00  0.00    +0.102 A 
ATOM     36  C   UNL     1       4.198  -7.021  -1.074  0.00  0.00    +0.045 A 
ATOM     37  C   UNL     1       4.629  -5.677  -1.141  0.00  0.00    +0.046 A 
ATOM     38  C   UNL     1       3.722  -4.943  -0.472  0.00  0.00    +0.122 A 
ATOM     39  O   UNL     1       2.767  -5.766  -0.010  0.00  0.00    -0.463 OA
ENDBRANCH  33  38
ENDBRANCH  22  33
ENDBRANCH   1  22
TORSDOF 9
