REMARK  Name = ZINC12871238
REMARK  8 active torsions:
REMARK  status: ('A' for Active; 'I' for Inactive)
REMARK    1  A    between atoms: C_1  and  C_2
REMARK    2  A    between atoms: C_2  and  C_4
REMARK    3  A    between atoms: C_2  and  N_15
REMARK    4  A    between atoms: C_7  and  N_10
REMARK    5  A    between atoms: N_15  and  C_16
REMARK    6  A    between atoms: C_17  and  C_19
REMARK    7  A    between atoms: N_22  and  S_25
REMARK    8  A    between atoms: S_25  and  C_28
REMARK                            x       y       z     vdW  Elec       q    Type
REMARK                         _______ _______ _______ _____ _____    ______ ____
ROOT
ATOM      1  N   UNL     1       1.809   0.448  -6.374  0.00  0.00    -0.297 N 
ATOM      2  C   UNL     1       0.664  -0.461  -6.457  0.00  0.00    +0.132 C 
ATOM      3  C   UNL     1       2.580   0.461  -5.268  0.00  0.00    +0.219 C 
ATOM      4  O   UNL     1       3.528   1.214  -5.199  0.00  0.00    -0.275 OA
ENDROOT
BRANCH   3   5
ATOM      5  C   UNL     1       2.264  -0.460  -4.118  0.00  0.00    +0.078 C 
ATOM      6  C   UNL     1       3.284  -0.247  -2.998  0.00  0.00    +0.030 C 
ATOM      7  C   UNL     1       2.980  -1.209  -1.845  0.00  0.00    +0.110 C 
ATOM      8  N   UNL     1       1.583  -1.024  -1.431  0.00  0.00    -0.176 NA
ATOM      9  C   UNL     1       0.526  -1.124  -2.447  0.00  0.00    +0.110 C 
ATOM     10  C   UNL     1       0.858  -0.157  -3.594  0.00  0.00    +0.030 C 
BRANCH   8  11
ATOM     11  S   UNL     1       1.205  -0.716   0.151  0.00  0.00    +0.064 S 
ATOM     12  O   UNL     1       2.278  -1.226   0.931  0.00  0.00    -0.153 OA
ATOM     13  O   UNL     1      -0.139  -1.137   0.337  0.00  0.00    -0.153 OA
BRANCH  11  14
ATOM     14  C   UNL     1       1.219   1.034   0.359  0.00  0.00    +0.140 A 
ATOM     15  C   UNL     1       0.049   1.703   0.664  0.00  0.00    +0.031 A 
ATOM     16  C   UNL     1       0.060   3.075   0.833  0.00  0.00    +0.002 A 
ATOM     17  C   UNL     1       1.240   3.781   0.686  0.00  0.00    +0.003 A 
ATOM     18  C   UNL     1       2.410   3.114   0.375  0.00  0.00    +0.040 A 
ATOM     19  C   UNL     1       2.401   1.739   0.211  0.00  0.00    +0.150 A 
ATOM     20  F   UNL     1       3.544   1.087  -0.092  0.00  0.00    -0.203 F 
ENDBRANCH  11  14
ENDBRANCH   8  11
ENDBRANCH   3   5
BRANCH   1  22
ATOM     21  C   UNL     1       1.012   1.243  -8.545  0.00  0.00    +0.033 C 
ATOM     22  C   UNL     1       2.117   1.343  -7.492  0.00  0.00    +0.103 C 
BRANCH  22  23
ATOM     23  C   UNL     1       3.434   0.946  -8.106  0.00  0.00    -0.027 A 
ATOM     24  C   UNL     1       3.701  -0.387  -8.363  0.00  0.00    +0.007 A 
ATOM     25  C   UNL     1       4.905  -0.754  -8.931  0.00  0.00    +0.028 A 
ATOM     26  C   UNL     1       5.852   0.215  -9.235  0.00  0.00    +0.067 A 
ATOM     27  C   UNL     1       5.583   1.551  -8.971  0.00  0.00    +0.028 A 
ATOM     28  C   UNL     1       4.375   1.913  -8.407  0.00  0.00    +0.007 A 
BRANCH  26  29
ATOM     29  N   UNL     1       7.077  -0.155  -9.807  0.00  0.00    -0.220 N 
ATOM     30  C   UNL     1       7.481  -1.403 -10.114  0.00  0.00    +0.225 A 
ATOM     31  N   UNL     1       8.681  -1.325 -10.632  0.00  0.00    -0.222 NA
ATOM     32  C   UNL     1       9.077  -0.053 -10.663  0.00  0.00    +0.245 A 
ATOM     33  N   UNL     1       8.130   0.701 -10.170  0.00  0.00    -0.154 NA
ENDBRANCH  26  29
ENDBRANCH  22  23
ENDBRANCH   1  22
TORSDOF 6
