REMARK  Name = ZINC09413537
REMARK  10 active torsions:
REMARK  status: ('A' for Active; 'I' for Inactive)
REMARK    1  A    between atoms: C_1  and  C_2
REMARK    2  A    between atoms: C_2  and  O_3
REMARK    3  A    between atoms: O_3  and  C_4
REMARK    4  A    between atoms: C_12  and  C_14
REMARK    5  A    between atoms: C_14  and  S_15
REMARK    6  A    between atoms: S_15  and  C_16
REMARK    7  A    between atoms: C_19  and  C_24
REMARK    8  A    between atoms: N_20  and  C_21
REMARK    9  A    between atoms: C_24  and  O_25
REMARK   10  A    between atoms: O_25  and  C_26
REMARK                            x       y       z     vdW  Elec       q    Type
REMARK                         _______ _______ _______ _____ _____    ______ ____
ROOT
ATOM      1  C   UNL     1       1.590   3.014   0.380  0.00  0.00    +0.192 A 
ATOM      2  N   UNL     1       2.881   3.182   0.214  0.00  0.00    -0.122 NA
ATOM      3  N   UNL     1       3.406   2.103  -0.248  0.00  0.00    -0.130 NA
ATOM      4  C   UNL     1       2.489   1.189  -0.399  0.00  0.00    +0.172 A 
ATOM      5  N   UNL     1       1.300   1.736  -0.001  0.00  0.00    -0.300 N 
ENDROOT
BRANCH   5   6
ATOM      6  C   UNL     1      -0.013   1.086   0.008  0.00  0.00    +0.091 C 
ATOM      7  C   UNL     1      -1.116   1.735   0.846  0.00  0.00    +0.027 C 
ATOM      8  C   UNL     1      -1.167   1.816  -0.682  0.00  0.00    +0.027 C 
ENDBRANCH   5   6
BRANCH   1   9
ATOM      9  S   UNL     1       0.447   4.212   0.983  0.00  0.00    -0.077 S 
BRANCH   9  10
ATOM     10  C   UNL     1       1.569   5.606   1.258  0.00  0.00    +0.173 C 
BRANCH  10  19
ATOM     11  C   UNL     1       3.012  11.582   1.748  0.00  0.00    +0.403 C 
ATOM     12  O   UNL     1       2.383  12.529   2.177  0.00  0.00    -0.226 OA
ATOM     13  N   UNL     1       2.380  10.425   1.468  0.00  0.00    -0.264 N 
ATOM     14  C   UNL     1       0.931  10.295   1.675  0.00  0.00    +0.130 C 
ATOM     15  C   UNL     1       0.673   9.091   2.591  0.00  0.00    +0.127 C 
ATOM     16  N   UNL     1       1.421   7.938   2.071  0.00  0.00    -0.298 N 
ATOM     17  C   UNL     1       2.871   8.066   1.869  0.00  0.00    +0.127 C 
ATOM     18  C   UNL     1       3.127   9.271   0.948  0.00  0.00    +0.130 C 
ATOM     19  C   UNL     1       0.789   6.780   1.791  0.00  0.00    +0.226 C 
ATOM     20  O   UNL     1      -0.407   6.685   1.967  0.00  0.00    -0.275 OA
BRANCH  11  21
ATOM     21  O   UNL     1       4.340  11.688   1.553  0.00  0.00    -0.451 OA
BRANCH  21  23
ATOM     22  C   UNL     1       6.455  12.893   1.592  0.00  0.00    +0.048 C 
ATOM     23  C   UNL     1       4.954  12.963   1.877  0.00  0.00    +0.230 C 
ENDBRANCH  21  23
ENDBRANCH  11  21
ENDBRANCH  10  19
ENDBRANCH   9  10
ENDBRANCH   1   9
BRANCH   4  24
ATOM     24  C   UNL     1       2.700  -0.211  -0.915  0.00  0.00    +0.305 C 
BRANCH  24  25
ATOM     25  O   UNL     1       2.545  -0.223  -2.335  0.00  0.00    -0.483 OA
BRANCH  25  26
ATOM     26  C   UNL     1       2.704  -1.418  -2.963  0.00  0.00    +0.139 A 
ATOM     27  C   UNL     1       3.010  -2.554  -2.228  0.00  0.00    +0.047 A 
ATOM     28  C   UNL     1       3.166  -3.768  -2.868  0.00  0.00    +0.004 A 
ATOM     29  C   UNL     1       3.029  -3.851  -4.241  0.00  0.00    +0.002 A 
ATOM     30  C   UNL     1       2.729  -2.720  -4.978  0.00  0.00    +0.023 A 
ATOM     31  C   UNL     1       2.567  -1.503  -4.342  0.00  0.00    +0.083 A 
ATOM     32 CL   UNL     1       2.191  -0.082  -5.267  0.00  0.00    -0.080 Cl
ENDBRANCH  25  26
ENDBRANCH  24  25
ENDBRANCH   4  24
TORSDOF 9
