REMARK  Name = ZINC36280567
REMARK  4 active torsions:
REMARK  status: ('A' for Active; 'I' for Inactive)
REMARK    1  A    between atoms: C_3  and  C_9
REMARK    2  A    between atoms: N_10  and  N_11
REMARK    3  A    between atoms: C_12  and  C_14
REMARK    4  A    between atoms: C_16  and  N_22
REMARK                            x       y       z     vdW  Elec       q    Type
REMARK                         _______ _______ _______ _____ _____    ______ ____
ROOT
ATOM      1  N   UNL     1       5.990   2.242  -0.044  0.00  0.00    -0.202 N 
ATOM      2  C   UNL     1       7.165   1.582  -0.059  0.00  0.00    +0.283 C 
ATOM      3  O   UNL     1       7.180   0.367  -0.065  0.00  0.00    -0.267 OA
ATOM      4  H   UNL     1       5.978   3.212  -0.039  0.00  0.00    +0.178 HD
ENDROOT
BRANCH   2   5
ATOM      5  C   UNL     1       8.438   2.338  -0.068  0.00  0.00    +0.149 A 
ATOM      6  C   UNL     1       9.648   1.650  -0.088  0.00  0.00    +0.094 A 
ATOM      7  C   UNL     1      10.839   2.377  -0.096  0.00  0.00    +0.067 A 
ATOM      8  C   UNL     1      10.764   3.769  -0.083  0.00  0.00    +0.100 A 
ATOM      9  C   UNL     1       9.521   4.381  -0.062  0.00  0.00    +0.150 A 
ATOM     10  N   UNL     1       8.414   3.667  -0.060  0.00  0.00    -0.228 NA
ATOM     11 CL   UNL     1       9.421   6.114  -0.044  0.00  0.00    -0.060 Cl
ATOM     12 CL   UNL     1      12.213   4.725  -0.091  0.00  0.00    -0.078 Cl
ATOM     13 CL   UNL     1       9.675  -0.086  -0.104  0.00  0.00    -0.079 Cl
BRANCH   7  14
ATOM     14  N   UNL     1      12.072   1.728  -0.117  0.00  0.00    -0.356 N 
ATOM     15  H   UNL     1      12.109   0.759  -0.126  0.00  0.00    +0.142 HD
ATOM     16  H   UNL     1      12.892   2.245  -0.122  0.00  0.00    +0.142 HD
ENDBRANCH   7  14
ENDBRANCH   2   5
BRANCH   1  18
ATOM     17  C   UNL     1       3.654   2.162  -0.022  0.00  0.00    +0.139 C 
ATOM     18  N   UNL     1       4.785   1.527  -0.036  0.00  0.00    -0.187 NA
BRANCH  17  21
ATOM     19  C   UNL     1      -0.017   1.379   0.010  0.00  0.00    +0.002 A 
ATOM     20  C   UNL     1       1.166   2.089   0.002  0.00  0.00    +0.011 A 
ATOM     21  C   UNL     1       2.386   1.409  -0.013  0.00  0.00    +0.014 A 
ATOM     22  C   UNL     1       2.399   0.011  -0.021  0.00  0.00    +0.068 A 
ATOM     23  C   UNL     1       1.207  -0.687  -0.013  0.00  0.00    +0.060 A 
ATOM     24  C   UNL     1       0.002  -0.004   0.002  0.00  0.00    +0.021 A 
ATOM     25 CL   UNL     1       1.219  -2.423  -0.023  0.00  0.00    -0.082 Cl
ATOM     26 CL   UNL     1       3.909  -0.845  -0.041  0.00  0.00    -0.081 Cl
ENDBRANCH  17  21
ENDBRANCH   1  18
TORSDOF 4
