REMARK  Name = ZINC12308603
REMARK  8 active torsions:
REMARK  status: ('A' for Active; 'I' for Inactive)
REMARK    1  A    between atoms: C_1  and  C_2
REMARK    2  A    between atoms: C_5  and  C_7
REMARK    3  A    between atoms: C_8  and  C_19
REMARK    4  A    between atoms: N_10  and  C_12
REMARK    5  A    between atoms: C_19  and  N_60
REMARK    6  A    between atoms: C_22  and  O_25
REMARK    7  A    between atoms: O_25  and  C_26
REMARK    8  A    between atoms: C_26  and  C_27
REMARK                            x       y       z     vdW  Elec       q    Type
REMARK                         _______ _______ _______ _____ _____    ______ ____
ROOT
ATOM      1  C   UNL     1       3.863  -0.543  -0.035  0.00  0.00    +0.129 A 
ATOM      2  C   UNL     1       4.553   0.688  -0.036  0.00  0.00    -0.015 A 
ATOM      3  C   UNL     1       3.636   1.678  -0.023  0.00  0.00    +0.117 A 
ATOM      4  N   UNL     1       2.403   1.105  -0.014  0.00  0.00    -0.239 N 
ATOM      5  N   UNL     1       2.570  -0.285  -0.016  0.00  0.00    -0.163 NA
ENDROOT
BRANCH   4   6
ATOM      6  C   UNL     1       1.179   1.787   0.000  0.00  0.00    +0.068 A 
ATOM      7  C   UNL     1       1.157   3.176   0.008  0.00  0.00    +0.028 A 
ATOM      8  C   UNL     1      -0.051   3.846   0.022  0.00  0.00    +0.005 A 
ATOM      9  C   UNL     1      -1.238   3.137   0.030  0.00  0.00    +0.038 A 
ATOM     10  C   UNL     1      -1.220   1.752   0.017  0.00  0.00    +0.125 A 
ATOM     11  C   UNL     1      -0.013   1.076   0.008  0.00  0.00    +0.066 A 
ATOM     12  F   UNL     1      -2.381   1.062   0.019  0.00  0.00    -0.205 F 
ENDBRANCH   4   6
BRANCH   1  17
ATOM     13  C   UNL     1       7.053  -4.291  -1.021  0.00  0.00    +0.086 C 
ATOM     14  C   UNL     1       5.873  -3.529  -0.475  0.00  0.00    +0.103 A 
ATOM     15  C   UNL     1       4.900  -4.040   0.304  0.00  0.00    +0.045 A 
ATOM     16  C   UNL     1       4.002  -2.990   0.584  0.00  0.00    +0.052 A 
ATOM     17  C   UNL     1       4.481  -1.885  -0.047  0.00  0.00    +0.155 A 
ATOM     18  O   UNL     1       5.614  -2.228  -0.690  0.00  0.00    -0.458 OA
ENDBRANCH   1  17
BRANCH   2  19
ATOM     19  C   UNL     1       6.050   0.865  -0.048  0.00  0.00    -0.039 C 
BRANCH  19  25
ATOM     20  C   UNL     1       5.726   1.430  -2.380  0.00  0.00    -0.076 C 
ATOM     21  C   UNL     1       6.187   1.109  -3.803  0.00  0.00    +0.013 C 
ATOM     22  C   UNL     1       7.659   1.503  -3.958  0.00  0.00    +0.115 C 
ATOM     23  C   UNL     1       8.492   0.756  -2.912  0.00  0.00    +0.013 C 
ATOM     24  C   UNL     1       7.963   1.086  -1.515  0.00  0.00    -0.076 C 
ATOM     25  N   UNL     1       6.550   0.661  -1.423  0.00  0.00    +0.383 N 
ATOM     26  H   UNL     1       6.487  -0.337  -1.656  0.00  0.00    -0.081 HD
BRANCH  22  27
ATOM     27  O   UNL     1       8.112   1.153  -5.267  0.00  0.00    -0.371 OA
BRANCH  27  28
ATOM     28  C   UNL     1       7.942   2.190  -6.237  0.00  0.00    +0.215 C 
BRANCH  28  29
ATOM     29  C   UNL     1       8.450   1.715  -7.574  0.00  0.00    +0.067 A 
ATOM     30  C   UNL     1       8.980   0.444  -7.691  0.00  0.00    +0.025 A 
ATOM     31  C   UNL     1       9.440   0.015  -8.927  0.00  0.00    +0.003 A 
ATOM     32  C   UNL     1       9.358   0.888 -10.000  0.00  0.00    +0.020 A 
ATOM     33  C   UNL     1       8.821   2.147  -9.806  0.00  0.00    +0.111 A 
ATOM     34  N   UNL     1       8.389   2.519  -8.617  0.00  0.00    -0.258 NA
ENDBRANCH  28  29
ENDBRANCH  27  28
ENDBRANCH  22  27
ENDBRANCH  19  25
ENDBRANCH   2  19
TORSDOF 7
