REMARK  Name = ZINC01278984
REMARK  11 active torsions:
REMARK  status: ('A' for Active; 'I' for Inactive)
REMARK    1  A    between atoms: C_1  and  C_2
REMARK    2  A    between atoms: C_2  and  C_3
REMARK    3  A    between atoms: C_2  and  C_4
REMARK    4  A    between atoms: N_14  and  C_32
REMARK    5  A    between atoms: C_17  and  S_20
REMARK    6  A    between atoms: S_20  and  C_21
REMARK    7  A    between atoms: C_21  and  C_22
REMARK    8  A    between atoms: N_24  and  C_25
REMARK    9  A    between atoms: C_25  and  C_26
REMARK   10  A    between atoms: C_32  and  C_33
REMARK   11  A    between atoms: C_33  and  C_34
REMARK                            x       y       z     vdW  Elec       q    Type
REMARK                         _______ _______ _______ _____ _____    ______ ____
ROOT
ATOM      1  C   UNL     1      -1.433  -0.534   0.013  0.00  0.00    +0.126 C 
ATOM      2  C   UNL     1      -1.409  -2.066  -0.003  0.00  0.00    +0.068 C 
ATOM      3  C   UNL     1      -2.826  -2.558   0.260  0.00  0.00    -0.018 A 
ATOM      4  C   UNL     1      -3.746  -1.725   0.791  0.00  0.00    +0.021 A 
ATOM      5  S   UNL     1      -5.213  -2.701   0.915  0.00  0.00    -0.072 S 
ATOM      6  C   UNL     1      -4.640  -4.146   0.294  0.00  0.00    +0.102 A 
ATOM      7  C   UNL     1      -3.306  -3.908  -0.023  0.00  0.00    +0.074 A 
ATOM      8  C   UNL     1      -2.554  -5.045  -0.600  0.00  0.00    +0.264 A 
ATOM      9  O   UNL     1      -1.381  -4.913  -0.901  0.00  0.00    -0.267 OA
ATOM     10  N   UNL     1      -3.169  -6.224  -0.791  0.00  0.00    -0.276 N 
ATOM     11  C   UNL     1      -4.501  -6.404  -0.458  0.00  0.00    +0.240 A 
ATOM     12  N   UNL     1      -5.228  -5.374   0.080  0.00  0.00    -0.249 N 
ATOM     13  C   UNL     1      -6.499  -5.833   0.307  0.00  0.00    +0.198 A 
ATOM     14  N   UNL     1      -6.553  -7.086  -0.072  0.00  0.00    -0.120 NA
ATOM     15  N   UNL     1      -5.290  -7.448  -0.556  0.00  0.00    -0.109 NA
ATOM     16  C   UNL     1      -3.521  -0.296   1.175  0.00  0.00    +0.203 C 
ATOM     17  O   UNL     1      -2.102  -0.066   1.187  0.00  0.00    -0.371 OA
ENDROOT
BRANCH   1  19
ATOM     18  C   UNL     1      -0.019   1.526   0.010  0.00  0.00    +0.010 C 
ATOM     19  C   UNL     1       0.002  -0.004   0.002  0.00  0.00    +0.012 C 
ATOM     20  C   UNL     1       0.742  -0.511   1.242  0.00  0.00    +0.010 C 
ENDBRANCH   1  19
BRANCH  13  21
ATOM     21  S   UNL     1      -7.828  -4.900   0.991  0.00  0.00    -0.076 S 
BRANCH  21  22
ATOM     22  C   UNL     1      -9.213  -6.071   1.028  0.00  0.00    +0.173 C 
BRANCH  22  23
ATOM     23  C   UNL     1     -10.431  -5.392   1.599  0.00  0.00    +0.224 C 
ATOM     24  O   UNL     1     -10.370  -4.232   1.947  0.00  0.00    -0.275 OA
ATOM     25  N   UNL     1     -11.587  -6.074   1.723  0.00  0.00    -0.311 N 
ATOM     26  H   UNL     1     -11.635  -7.002   1.444  0.00  0.00    +0.149 HD
BRANCH  25  27
ATOM     27  C   UNL     1     -12.771  -5.413   2.278  0.00  0.00    +0.139 C 
BRANCH  27  28
ATOM     28  C   UNL     1     -13.921  -6.386   2.309  0.00  0.00    -0.030 A 
ATOM     29  C   UNL     1     -14.768  -6.490   1.221  0.00  0.00    +0.005 A 
ATOM     30  C   UNL     1     -15.823  -7.382   1.248  0.00  0.00    +0.000 A 
ATOM     31  C   UNL     1     -16.031  -8.172   2.364  0.00  0.00    +0.000 A 
ATOM     32  C   UNL     1     -15.184  -8.069   3.451  0.00  0.00    +0.000 A 
ATOM     33  C   UNL     1     -14.126  -7.179   3.422  0.00  0.00    +0.005 A 
ENDBRANCH  27  28
ENDBRANCH  25  27
ENDBRANCH  22  23
ENDBRANCH  21  22
ENDBRANCH  13  21
BRANCH  10  34
ATOM     34  C   UNL     1      -2.416  -7.342  -1.363  0.00  0.00    +0.133 C 
BRANCH  34  35
ATOM     35  C   UNL     1      -1.765  -8.149  -0.237  0.00  0.00    +0.057 C 
BRANCH  35  36
ATOM     36  C   UNL     1      -0.990  -9.299  -0.826  0.00  0.00    -0.046 A 
ATOM     37  C   UNL     1      -1.611 -10.516  -1.033  0.00  0.00    +0.004 A 
ATOM     38  C   UNL     1      -0.899 -11.572  -1.573  0.00  0.00    +0.000 A 
ATOM     39  C   UNL     1       0.432 -11.409  -1.907  0.00  0.00    +0.000 A 
ATOM     40  C   UNL     1       1.053 -10.191  -1.700  0.00  0.00    +0.000 A 
ATOM     41  C   UNL     1       0.341  -9.135  -1.164  0.00  0.00    +0.004 A 
ENDBRANCH  35  36
ENDBRANCH  34  35
ENDBRANCH  10  34
TORSDOF 9
