REMARK  Name = ZINC08645132
REMARK  5 active torsions:
REMARK  status: ('A' for Active; 'I' for Inactive)
REMARK    1  A    between atoms: C_1  and  C_2
REMARK    2  A    between atoms: C_9  and  C_14
REMARK    3  A    between atoms: C_14  and  N_15
REMARK    4  A    between atoms: C_18  and  C_22
REMARK    5  A    between atoms: C_18  and  C_23
REMARK                            x       y       z     vdW  Elec       q    Type
REMARK                         _______ _______ _______ _____ _____    ______ ____
ROOT
ATOM      1  N   UNL     1      -0.590   1.528   1.045  0.00  0.00    -0.220 N 
ATOM      2  C   UNL     1      -1.551   0.844   1.698  0.00  0.00    +0.251 C 
ATOM      3  O   UNL     1      -1.992  -0.249   1.414  0.00  0.00    -0.272 OA
ATOM      4  C   UNL     1      -1.965   1.725   2.860  0.00  0.00    +0.136 C 
ATOM      5  N   UNL     1      -1.109   2.915   2.713  0.00  0.00    -0.281 N 
ATOM      6  C   UNL     1      -0.339   2.704   1.631  0.00  0.00    +0.310 C 
ATOM      7  O   UNL     1       0.491   3.496   1.227  0.00  0.00    -0.252 OA
ATOM      8  C   UNL     1      -3.442   2.107   2.746  0.00  0.00    +0.047 C 
ATOM      9  H   UNL     1      -1.099   3.696   3.288  0.00  0.00    +0.152 HD
ENDROOT
BRANCH   4  10
ATOM     10  C   UNL     1      -1.697   1.033   4.171  0.00  0.00    -0.008 A 
ATOM     11  C   UNL     1      -0.802   1.559   5.052  0.00  0.00    +0.007 A 
ATOM     12  C   UNL     1      -0.542   0.933   6.270  0.00  0.00    +0.001 A 
ATOM     13  C   UNL     1      -1.175  -0.222   6.614  0.00  0.00    +0.008 A 
ATOM     14  C   UNL     1      -2.105  -0.795   5.730  0.00  0.00    -0.018 A 
ATOM     15  C   UNL     1      -2.373  -0.156   4.494  0.00  0.00    -0.012 A 
ATOM     16  C   UNL     1      -3.299  -0.732   3.607  0.00  0.00    +0.009 A 
ATOM     17  C   UNL     1      -3.932  -1.887   3.951  0.00  0.00    +0.001 A 
ATOM     18  C   UNL     1      -3.671  -2.513   5.169  0.00  0.00    +0.001 A 
ATOM     19  C   UNL     1      -2.777  -1.987   6.050  0.00  0.00    +0.008 A 
ENDBRANCH   4  10
BRANCH   1  20
ATOM     20  C   UNL     1       0.098   1.041  -0.153  0.00  0.00    +0.154 C 
BRANCH  20  29
ATOM     21  C   UNL     1       1.512   0.676  -6.648  0.00  0.00    +0.045 C 
ATOM     22  C   UNL     1       0.962   0.913  -5.265  0.00  0.00    -0.029 A 
ATOM     23  C   UNL     1      -0.200   1.639  -5.108  0.00  0.00    +0.051 A 
ATOM     24  C   UNL     1      -0.713   1.861  -3.837  0.00  0.00    +0.140 A 
ATOM     25  C   UNL     1      -0.039   1.340  -2.718  0.00  0.00    +0.024 A 
ATOM     26  C   UNL     1       1.138   0.606  -2.892  0.00  0.00    +0.032 A 
ATOM     27  C   UNL     1       1.630   0.398  -4.162  0.00  0.00    +0.045 A 
ATOM     28 CL   UNL     1       3.091  -0.512  -4.385  0.00  0.00    -0.083 Cl
ATOM     29  C   UNL     1      -0.589   1.580  -1.381  0.00  0.00    -0.012 A 
ATOM     30  C   UNL     1      -1.738   2.296  -1.279  0.00  0.00    +0.098 A 
ATOM     31  C   UNL     1      -2.359   2.794  -2.445  0.00  0.00    +0.338 A 
ATOM     32  O   UNL     1      -3.386   3.439  -2.340  0.00  0.00    -0.245 OA
ATOM     33  O   UNL     1      -1.850   2.570  -3.666  0.00  0.00    -0.422 OA
ENDBRANCH  20  29
ENDBRANCH   1  20
TORSDOF 3
