REMARK  Name = ZINC06444005
REMARK  12 active torsions:
REMARK  status: ('A' for Active; 'I' for Inactive)
REMARK    1  A    between atoms: C_1  and  C_2
REMARK    2  A    between atoms: C_12  and  C_14
REMARK    3  A    between atoms: C_14  and  C_16
REMARK    4  A    between atoms: C_14  and  N_67
REMARK    5  A    between atoms: N_20  and  C_21
REMARK    6  A    between atoms: C_21  and  C_22
REMARK    7  A    between atoms: C_22  and  O_23
REMARK    8  A    between atoms: O_23  and  C_24
REMARK    9  A    between atoms: C_25  and  C_26
REMARK   10  A    between atoms: C_25  and  N_67
REMARK   11  A    between atoms: C_32  and  C_33
REMARK   12  A    between atoms: C_32  and  N_67
REMARK                            x       y       z     vdW  Elec       q    Type
REMARK                         _______ _______ _______ _____ _____    ______ ____
ROOT
ATOM      1  C   UNL     1       1.630  -3.617  -1.631  0.00  0.00    +0.039 C 
ENDROOT
BRANCH   1  13
ATOM      2  C   UNL     1       7.417  -6.155   0.180  0.00  0.00    +0.046 C 
ATOM      3  C   UNL     1       6.160  -5.881   0.966  0.00  0.00    -0.026 A 
ATOM      4  C   UNL     1       6.108  -6.176   2.312  0.00  0.00    +0.005 A 
ATOM      5  C   UNL     1       4.957  -5.928   3.047  0.00  0.00    +0.001 A 
ATOM      6  C   UNL     1       3.854  -5.386   2.450  0.00  0.00    +0.010 A 
ATOM      7  C   UNL     1       3.885  -5.078   1.086  0.00  0.00    -0.001 A 
ATOM      8  C   UNL     1       5.050  -5.328   0.337  0.00  0.00    +0.052 A 
ATOM      9  N   UNL     1       5.075  -5.022  -1.007  0.00  0.00    -0.322 N 
ATOM     10  H   UNL     1       5.879  -5.195  -1.521  0.00  0.00    +0.169 HD
ATOM     11  C   UNL     1       4.002  -4.487  -1.615  0.00  0.00    +0.251 A 
ATOM     12  O   UNL     1       4.060  -4.229  -2.804  0.00  0.00    -0.268 OA
ATOM     13  C   UNL     1       2.809  -4.217  -0.909  0.00  0.00    +0.011 A 
ATOM     14  C   UNL     1       2.723  -4.491   0.416  0.00  0.00    +0.017 A 
ENDBRANCH   1  13
BRANCH   1  15
ATOM     15  C   UNL     1       1.121  -4.592  -2.660  0.00  0.00    +0.143 A 
ATOM     16  N   UNL     1       1.423  -4.614  -3.935  0.00  0.00    -0.115 NA
ATOM     17  N   UNL     1       0.788  -5.595  -4.478  0.00  0.00    -0.023 NA
ATOM     18  N   UNL     1       0.089  -6.200  -3.582  0.00  0.00    -0.044 NA
ATOM     19  N   UNL     1       0.272  -5.615  -2.447  0.00  0.00    -0.228 N 
BRANCH  19  20
ATOM     20  C   UNL     1      -0.334  -5.991  -1.167  0.00  0.00    +0.175 C 
BRANCH  20  21
ATOM     21  C   UNL     1      -1.670  -5.265  -1.002  0.00  0.00    +0.183 C 
BRANCH  21  22
ATOM     22  O   UNL     1      -2.319  -5.724   0.185  0.00  0.00    -0.381 OA
ATOM     23  C   UNL     1      -3.583  -5.106   0.434  0.00  0.00    +0.194 C 
ENDBRANCH  21  22
ENDBRANCH  20  21
ENDBRANCH  19  20
ENDBRANCH   1  15
BRANCH   1  24
ATOM     24  N   UNL     1       2.058  -2.381  -2.321  0.00  0.00    +0.395 N 
ATOM     25  H   UNL     1       2.527  -2.635  -3.198  0.00  0.00    -0.079 HD
BRANCH  24  26
ATOM     26  C   UNL     1       0.880  -1.543  -2.631  0.00  0.00    -0.041 C 
BRANCH  26  27
ATOM     27  C   UNL     1       0.162  -2.139  -3.815  0.00  0.00    -0.064 A 
ATOM     28  C   UNL     1       0.617  -1.890  -5.096  0.00  0.00    +0.002 A 
ATOM     29  C   UNL     1      -0.039  -2.441  -6.181  0.00  0.00    +0.000 A 
ATOM     30  C   UNL     1      -1.156  -3.231  -5.986  0.00  0.00    +0.000 A 
ATOM     31  C   UNL     1      -1.614  -3.475  -4.705  0.00  0.00    +0.000 A 
ATOM     32  C   UNL     1      -0.955  -2.929  -3.619  0.00  0.00    +0.002 A 
ENDBRANCH  26  27
ENDBRANCH  24  26
BRANCH  24  33
ATOM     33  C   UNL     1       3.003  -1.629  -1.470  0.00  0.00    -0.041 C 
BRANCH  33  34
ATOM     34  C   UNL     1       3.590  -0.499  -2.277  0.00  0.00    -0.064 A 
ATOM     35  C   UNL     1       2.978   0.741  -2.276  0.00  0.00    +0.004 A 
ATOM     36  C   UNL     1       3.515   1.778  -3.015  0.00  0.00    +0.038 A 
ATOM     37  C   UNL     1       4.666   1.575  -3.757  0.00  0.00    +0.123 A 
ATOM     38  C   UNL     1       5.278   0.332  -3.757  0.00  0.00    +0.038 A 
ATOM     39  C   UNL     1       4.739  -0.703  -3.017  0.00  0.00    +0.004 A 
ATOM     40  F   UNL     1       5.192   2.587  -4.480  0.00  0.00    -0.205 F 
ENDBRANCH  33  34
ENDBRANCH  24  33
ENDBRANCH   1  24
TORSDOF 10
