REMARK  Name = ZINC12567023
REMARK  7 active torsions:
REMARK  status: ('A' for Active; 'I' for Inactive)
REMARK    1  A    between atoms: C_1  and  C_2
REMARK    2  A    between atoms: C_2  and  C_4
REMARK    3  A    between atoms: C_2  and  N_14
REMARK    4  A    between atoms: C_15  and  C_17
REMARK    5  A    between atoms: C_17  and  N_18
REMARK    6  A    between atoms: N_23  and  C_26
REMARK    7  A    between atoms: C_26  and  C_27
REMARK                            x       y       z     vdW  Elec       q    Type
REMARK                         _______ _______ _______ _____ _____    ______ ____
ROOT
ATOM      1  N   UNL     1      -3.133   8.648   5.039  0.00  0.00    -0.307 N 
ATOM      2  C   UNL     1      -2.222   8.656   4.046  0.00  0.00    +0.231 C 
ATOM      3  O   UNL     1      -2.217   9.559   3.235  0.00  0.00    -0.274 OA
ATOM      4  H   UNL     1      -3.137   7.926   5.687  0.00  0.00    +0.149 HD
ENDROOT
BRANCH   1   6
ATOM      5  C   UNL     1      -5.338   9.235   5.917  0.00  0.00    +0.033 C 
ATOM      6  C   UNL     1      -4.117   9.728   5.140  0.00  0.00    +0.101 C 
BRANCH   6   7
ATOM      7  C   UNL     1      -3.503  10.901   5.861  0.00  0.00    -0.020 A 
ATOM      8  C   UNL     1      -2.461  10.709   6.716  0.00  0.00    +0.006 A 
ATOM      9  C   UNL     1      -1.878  11.782   7.387  0.00  0.00    +0.001 A 
ATOM     10  C   UNL     1      -2.339  13.051   7.215  0.00  0.00    +0.008 A 
ATOM     11  C   UNL     1      -3.416  13.287   6.345  0.00  0.00    -0.018 A 
ATOM     12  C   UNL     1      -4.006  12.197   5.658  0.00  0.00    -0.013 A 
ATOM     13  C   UNL     1      -5.083  12.434   4.787  0.00  0.00    +0.009 A 
ATOM     14  C   UNL     1      -5.544  13.703   4.614  0.00  0.00    +0.001 A 
ATOM     15  C   UNL     1      -4.963  14.775   5.290  0.00  0.00    +0.001 A 
ATOM     16  C   UNL     1      -3.919  14.584   6.141  0.00  0.00    +0.008 A 
ENDBRANCH   6   7
ENDBRANCH   1   6
BRANCH   2  17
ATOM     17  C   UNL     1      -1.210   7.545   3.942  0.00  0.00    +0.214 C 
BRANCH  17  18
ATOM     18  N   UNL     1      -0.339   7.783   2.788  0.00  0.00    -0.209 N 
ATOM     19  C   UNL     1      -0.563   7.342   1.531  0.00  0.00    +0.310 C 
ATOM     20  O   UNL     1      -1.503   6.683   1.140  0.00  0.00    -0.264 OA
ATOM     21  C   UNL     1       0.595   7.843   0.720  0.00  0.00    +0.310 C 
ATOM     22  O   UNL     1       0.789   7.677  -0.466  0.00  0.00    -0.264 OA
ATOM     23  N   UNL     1       1.378   8.517   1.590  0.00  0.00    -0.213 N 
ATOM     24  C   UNL     1       0.811   8.475   2.807  0.00  0.00    +0.319 C 
ATOM     25  O   UNL     1       1.279   8.998   3.798  0.00  0.00    -0.252 OA
BRANCH  23  26
ATOM     26  C   UNL     1       2.637   9.189   1.260  0.00  0.00    +0.160 C 
BRANCH  26  27
ATOM     27  C   UNL     1       3.782   8.226   1.438  0.00  0.00    +0.008 A 
ATOM     28  C   UNL     1       4.335   7.380   0.535  0.00  0.00    +0.013 A 
ATOM     29  C   UNL     1       5.389   6.576   0.926  0.00  0.00    +0.008 A 
ATOM     30  C   UNL     1       5.846   6.666   2.199  0.00  0.00    +0.045 A 
ATOM     31  S   UNL     1       4.769   7.910   2.892  0.00  0.00    -0.100 S 
ENDBRANCH  26  27
ENDBRANCH  23  26
ENDBRANCH  17  18
ENDBRANCH   2  17
TORSDOF 6
