REMARK  Name = ZINC14475644
REMARK  8 active torsions:
REMARK  status: ('A' for Active; 'I' for Inactive)
REMARK    1  A    between atoms: C_1  and  O_2
REMARK    2  A    between atoms: O_2  and  C_3
REMARK    3  A    between atoms: C_6  and  N_9
REMARK    4  A    between atoms: N_9  and  S_10
REMARK    5  A    between atoms: S_10  and  C_13
REMARK    6  A    between atoms: C_26  and  C_29
REMARK    7  A    between atoms: C_31  and  N_36
REMARK    8  A    between atoms: C_34  and  O_35
REMARK                            x       y       z     vdW  Elec       q    Type
REMARK                         _______ _______ _______ _____ _____    ______ ____
ROOT
ATOM      1  C   UNL     1      -1.888   1.377   0.403  0.00  0.00    +0.109 A 
ATOM      2  C   UNL     1      -1.835  -0.004   0.463  0.00  0.00    +0.030 A 
ATOM      3  C   UNL     1      -0.612  -0.642   0.461  0.00  0.00    +0.025 A 
ATOM      4  C   UNL     1       0.560   0.102   0.400  0.00  0.00    +0.031 A 
ATOM      5  C   UNL     1       0.513   1.483   0.342  0.00  0.00    -0.018 A 
ATOM      6  C   UNL     1      -0.724   2.116   0.348  0.00  0.00    +0.034 A 
ATOM      7  C   UNL     1       1.747   2.342   0.280  0.00  0.00    +0.049 C 
ATOM      8  C   UNL     1       1.728   3.258   1.496  0.00  0.00    -0.023 C 
ATOM      9  C   UNL     1       2.459   2.755   2.459  0.00  0.00    -0.030 C 
ATOM     10  C   UNL     1       3.072   1.435   2.025  0.00  0.00    +0.033 C 
ATOM     11  C   UNL     1       3.038   1.530   0.481  0.00  0.00    +0.029 C 
ATOM     12  C   UNL     1       2.952   0.152  -0.148  0.00  0.00    +0.108 C 
ATOM     13  N   UNL     1       1.792  -0.564   0.394  0.00  0.00    -0.336 N 
ATOM     14  H   UNL     1       1.907  -1.588   0.778  0.00  0.00    +0.147 HD
ENDROOT
BRANCH  12  15
ATOM     15  C   UNL     1       2.805   0.290  -1.641  0.00  0.00    +0.017 A 
ATOM     16  C   UNL     1       1.568   0.120  -2.232  0.00  0.00    +0.041 A 
ATOM     17  C   UNL     1       1.431   0.252  -3.602  0.00  0.00    +0.127 A 
ATOM     18  C   UNL     1       2.534   0.542  -4.384  0.00  0.00    +0.036 A 
ATOM     19  C   UNL     1       3.774   0.707  -3.799  0.00  0.00    +0.048 A 
ATOM     20  C   UNL     1       3.913   0.581  -2.424  0.00  0.00    +0.122 A 
BRANCH  17  21
ATOM     21  N   UNL     1       0.104   0.076  -4.232  0.00  0.00    +0.056 N 
ATOM     22  O   UNL     1      -0.017   0.186  -5.439  0.00  0.00    -0.126 OA
ATOM     23  O   UNL     1      -0.868  -0.180  -3.543  0.00  0.00    -0.126 OA
ENDBRANCH  17  21
BRANCH  20  24
ATOM     24  O   UNL     1       5.132   0.742  -1.845  0.00  0.00    -0.506 OA
ATOM     25  H   UNL     1       6.009   0.973  -2.467  0.00  0.00    +0.292 HD
ENDBRANCH  20  24
ENDBRANCH  12  15
BRANCH   1  26
ATOM     26  S   UNL     1      -3.448   2.197   0.404  0.00  0.00    +0.072 S 
ATOM     27  O   UNL     1      -3.267   3.414  -0.308  0.00  0.00    -0.150 OA
ATOM     28  O   UNL     1      -4.415   1.228   0.024  0.00  0.00    -0.150 OA
BRANCH  26  29
ATOM     29  N   UNL     1      -3.783   2.611   1.972  0.00  0.00    -0.216 N 
ATOM     30  H   UNL     1      -4.648   2.166   2.485  0.00  0.00    +0.174 HD
BRANCH  29  34
ATOM     31  C   UNL     1      -1.347   5.338   3.973  0.00  0.00    +0.120 A 
ATOM     32  C   UNL     1      -1.259   3.986   4.265  0.00  0.00    +0.047 A 
ATOM     33  C   UNL     1      -2.065   3.081   3.602  0.00  0.00    +0.028 A 
ATOM     34  C   UNL     1      -2.965   3.527   2.644  0.00  0.00    +0.048 A 
ATOM     35  C   UNL     1      -3.050   4.881   2.348  0.00  0.00    +0.028 A 
ATOM     36  C   UNL     1      -2.246   5.784   3.015  0.00  0.00    +0.047 A 
BRANCH  31  38
ATOM     37  C   UNL     1      -0.697   7.606   4.274  0.00  0.00    +0.277 C 
ATOM     38  O   UNL     1      -0.552   6.228   4.625  0.00  0.00    -0.495 OA
ENDBRANCH  31  38
ENDBRANCH  29  34
ENDBRANCH  26  29
ENDBRANCH   1  26
TORSDOF 7
