REMARK  Name = ZINC66880028
REMARK  11 active torsions:
REMARK  status: ('A' for Active; 'I' for Inactive)
REMARK    1  A    between atoms: C_1  and  C_2
REMARK    2  A    between atoms: C_2  and  C_4
REMARK    3  A    between atoms: C_2  and  O_13
REMARK    4  A    between atoms: O_13  and  C_14
REMARK    5  A    between atoms: C_14  and  C_16
REMARK    6  A    between atoms: C_19  and  S_21
REMARK    7  A    between atoms: S_21  and  N_24
REMARK    8  A    between atoms: N_24  and  C_25
REMARK    9  A    between atoms: C_25  and  C_26
REMARK   10  A    between atoms: C_25  and  C_27
REMARK   11  A    between atoms: C_25  and  C_28
REMARK                            x       y       z     vdW  Elec       q    Type
REMARK                         _______ _______ _______ _____ _____    ______ ____
ROOT
ATOM      1  C   UNL     1      -0.466  -1.111   2.498  0.00  0.00    +0.375 C 
ATOM      2  O   UNL     1      -1.672  -1.138   2.346  0.00  0.00    -0.241 OA
ENDROOT
BRANCH   1   3
ATOM      3  C   UNL     1       0.139  -1.741   3.674  0.00  0.00    +0.214 A 
ATOM      4  C   UNL     1      -0.532  -2.393   4.670  0.00  0.00    +0.059 A 
ATOM      5  C   UNL     1       0.435  -2.835   5.585  0.00  0.00    +0.072 A 
ATOM      6  C   UNL     1       1.639  -2.438   5.115  0.00  0.00    +0.258 A 
ATOM      7  O   UNL     1       1.457  -1.784   3.961  0.00  0.00    -0.430 OA
BRANCH   6   8
ATOM      8  S   UNL     1       3.192  -2.737   5.891  0.00  0.00    +0.092 S 
ATOM      9  O   UNL     1       4.123  -1.845   5.293  0.00  0.00    -0.150 OA
ATOM     10  O   UNL     1       2.950  -2.760   7.291  0.00  0.00    -0.150 OA
BRANCH   8  11
ATOM     11  N   UNL     1       3.664  -4.267   5.467  0.00  0.00    -0.182 NA
ATOM     12  H   UNL     1       3.719  -4.962   6.142  0.00  0.00    +0.149 HD
BRANCH  11  13
ATOM     13  C   UNL     1       3.999  -4.572   4.074  0.00  0.00    +0.032 C 
ATOM     14  C   UNL     1       5.286  -3.840   3.687  0.00  0.00    +0.029 C 
ATOM     15  C   UNL     1       4.202  -6.080   3.915  0.00  0.00    +0.029 C 
ATOM     16  C   UNL     1       2.858  -4.112   3.163  0.00  0.00    +0.029 C 
ENDBRANCH  11  13
ENDBRANCH   8  11
ENDBRANCH   6   8
ENDBRANCH   1   3
BRANCH   1  17
ATOM     17  O   UNL     1       0.316  -0.502   1.582  0.00  0.00    -0.451 OA
BRANCH  17  19
ATOM     18  C   UNL     1      -0.694   1.544   0.785  0.00  0.00    +0.057 C 
ATOM     19  C   UNL     1      -0.341   0.091   0.460  0.00  0.00    +0.204 C 
BRANCH  19  20
ATOM     20  C   UNL     1       0.574   0.052  -0.736  0.00  0.00    -0.004 A 
ATOM     21  C   UNL     1       1.938   0.201  -0.567  0.00  0.00    +0.011 A 
ATOM     22  C   UNL     1       2.782   0.165  -1.661  0.00  0.00    +0.050 A 
ATOM     23  C   UNL     1       2.261  -0.020  -2.932  0.00  0.00    +0.166 A 
ATOM     24  C   UNL     1       0.887  -0.170  -3.103  0.00  0.00    +0.167 A 
ATOM     25  C   UNL     1       0.049  -0.139  -2.001  0.00  0.00    +0.056 A 
ATOM     26  O   UNL     1       0.629  -0.336  -4.433  0.00  0.00    -0.453 OA
ATOM     27  C   UNL     1       1.812   0.121  -5.114  0.00  0.00    +0.466 C 
ATOM     28  O   UNL     1       2.864  -0.092  -4.155  0.00  0.00    -0.453 OA
ENDBRANCH  19  20
ENDBRANCH  17  19
ENDBRANCH   1  17
TORSDOF 7
