REMARK  Name = ZINC42951482
REMARK  7 active torsions:
REMARK  status: ('A' for Active; 'I' for Inactive)
REMARK    1  A    between atoms: C_1  and  C_2
REMARK    2  A    between atoms: C_2  and  C_4
REMARK    3  A    between atoms: C_2  and  N_23
REMARK    4  A    between atoms: C_4  and  C_6
REMARK    5  A    between atoms: C_4  and  S_13
REMARK    6  A    between atoms: S_13  and  C_14
REMARK    7  A    between atoms: C_20  and  N_22
REMARK                            x       y       z     vdW  Elec       q    Type
REMARK                         _______ _______ _______ _____ _____    ______ ____
ROOT
ATOM      1  C   UNL     1       0.910  -0.481   1.181  0.00  0.00    +0.069 C 
ENDROOT
BRANCH   1   2
ATOM      2  C   UNL     1       0.314  -0.053   2.497  0.00  0.00    -0.036 A 
ATOM      3  C   UNL     1      -0.893  -0.584   2.914  0.00  0.00    +0.006 A 
ATOM      4  C   UNL     1      -1.440  -0.192   4.121  0.00  0.00    +0.020 A 
ATOM      5  C   UNL     1      -0.780   0.731   4.913  0.00  0.00    +0.041 A 
ATOM      6  C   UNL     1       0.428   1.261   4.495  0.00  0.00    +0.020 A 
ATOM      7  C   UNL     1       0.977   0.864   3.290  0.00  0.00    +0.006 A 
ATOM      8 CL   UNL     1      -1.466   1.224   6.429  0.00  0.00    -0.084 Cl
ENDBRANCH   1   2
BRANCH   1  10
ATOM      9  C   UNL     1       0.204   1.657   0.097  0.00  0.00    -0.013 C 
ATOM     10  C   UNL     1       0.104   0.132   0.033  0.00  0.00    -0.060 C 
BRANCH  10  11
ATOM     11  N   UNL     1      -1.303  -0.272   0.153  0.00  0.00    +0.381 N 
ATOM     12  H   UNL     1      -1.811   0.034  -0.663  0.00  0.00    -0.090 HD
ATOM     13  H   UNL     1      -1.360  -1.277   0.227  0.00  0.00    -0.090 HD
ATOM     14  H   UNL     1      -1.705   0.149   0.977  0.00  0.00    -0.090 HD
ENDBRANCH  10  11
ENDBRANCH   1  10
BRANCH   1  15
ATOM     15  S   UNL     1       0.862  -2.290   1.055  0.00  0.00    -0.081 S 
BRANCH  15  16
ATOM     16  C   UNL     1       1.716  -2.635  -0.448  0.00  0.00    +0.171 A 
ATOM     17  N   UNL     1       1.859  -3.928  -0.852  0.00  0.00    -0.302 N 
ATOM     18  H   UNL     1       1.492  -4.647  -0.314  0.00  0.00    +0.171 HD
ATOM     19  C   UNL     1       2.510  -4.211  -2.000  0.00  0.00    +0.254 A 
ATOM     20  O   UNL     1       2.642  -5.367  -2.370  0.00  0.00    -0.268 OA
ATOM     21  C   UNL     1       3.030  -3.158  -2.759  0.00  0.00    +0.113 A 
ATOM     22  C   UNL     1       2.857  -1.858  -2.303  0.00  0.00    +0.124 A 
ATOM     23  N   UNL     1       2.198  -1.637  -1.160  0.00  0.00    -0.209 NA
BRANCH  22  24
ATOM     24  N   UNL     1       3.359  -0.797  -3.029  0.00  0.00    -0.343 N 
ATOM     25  H   UNL     1       3.833  -0.959  -3.860  0.00  0.00    +0.144 HD
ATOM     26  H   UNL     1       3.237   0.111  -2.709  0.00  0.00    +0.144 HD
ENDBRANCH  22  24
ENDBRANCH  15  16
ENDBRANCH   1  15
TORSDOF 6
