REMARK  Name = ZINC14744723
REMARK  13 active torsions:
REMARK  status: ('A' for Active; 'I' for Inactive)
REMARK    1  A    between atoms: C_1  and  C_2
REMARK    2  A    between atoms: C_2  and  C_3
REMARK    3  A    between atoms: C_2  and  N_4
REMARK    4  A    between atoms: N_4  and  S_5
REMARK    5  A    between atoms: S_5  and  C_8
REMARK    6  A    between atoms: C_10  and  C_20
REMARK    7  A    between atoms: C_12  and  N_14
REMARK    8  A    between atoms: N_14  and  C_15
REMARK    9  A    between atoms: C_15  and  C_16
REMARK   10  A    between atoms: C_16  and  C_17
REMARK   11  A    between atoms: C_16  and  C_18
REMARK   12  A    between atoms: C_16  and  C_19
REMARK   13  A    between atoms: N_22  and  C_23
REMARK                            x       y       z     vdW  Elec       q    Type
REMARK                         _______ _______ _______ _____ _____    ______ ____
ROOT
ATOM      1  C   UNL     1       2.688  -0.442   0.409  0.00  0.00    +0.108 A 
ATOM      2  C   UNL     1       2.969  -1.245   1.497  0.00  0.00    +0.041 A 
ATOM      3  C   UNL     1       4.062  -0.955   2.315  0.00  0.00    +0.040 A 
ATOM      4  C   UNL     1       4.868   0.147   2.029  0.00  0.00    +0.036 A 
ATOM      5  C   UNL     1       4.578   0.947   0.935  0.00  0.00    +0.030 A 
ATOM      6  C   UNL     1       3.490   0.646   0.123  0.00  0.00    +0.051 A 
ENDROOT
BRANCH   3   7
ATOM      7  C   UNL     1       4.364  -1.813   3.480  0.00  0.00    +0.244 C 
ATOM      8  O   UNL     1       3.661  -2.773   3.727  0.00  0.00    -0.270 OA
ATOM      9  N   UNL     1       5.420  -1.531   4.269  0.00  0.00    -0.308 N 
ATOM     10  H   UNL     1       5.982  -0.765   4.072  0.00  0.00    +0.149 HD
BRANCH   9  11
ATOM     11  C   UNL     1       5.720  -2.382   5.423  0.00  0.00    +0.082 C 
ATOM     12  C   UNL     1       5.033  -1.843   6.696  0.00  0.00    +0.058 C 
ATOM     13  C   UNL     1       6.002  -2.131   7.822  0.00  0.00    -0.042 A 
ATOM     14  C   UNL     1       5.801  -2.162   9.192  0.00  0.00    +0.004 A 
ATOM     15  C   UNL     1       6.851  -2.453  10.041  0.00  0.00    +0.000 A 
ATOM     16  C   UNL     1       8.106  -2.713   9.523  0.00  0.00    +0.000 A 
ATOM     17  C   UNL     1       8.307  -2.683   8.157  0.00  0.00    +0.004 A 
ATOM     18  C   UNL     1       7.256  -2.392   7.304  0.00  0.00    -0.042 A 
ATOM     19  C   UNL     1       7.216  -2.296   5.794  0.00  0.00    +0.058 C 
ENDBRANCH   9  11
ENDBRANCH   3   7
BRANCH   1  20
ATOM     20  S   UNL     1       1.307  -0.811  -0.621  0.00  0.00    +0.059 S 
ATOM     21  O   UNL     1       1.041  -2.198  -0.462  0.00  0.00    -0.153 OA
ATOM     22  O   UNL     1       1.579  -0.228  -1.888  0.00  0.00    -0.153 OA
BRANCH  20  23
ATOM     23  N   UNL     1       0.002  -0.004   0.002  0.00  0.00    -0.187 NA
ATOM     24  H   UNL     1      -0.749  -0.501   0.362  0.00  0.00    +0.148 HD
BRANCH  23  26
ATOM     25  C   UNL     1      -0.758   1.968  -1.230  0.00  0.00    +0.025 C 
ATOM     26  C   UNL     1      -0.018   1.461   0.010  0.00  0.00    +0.070 C 
ATOM     27  C   UNL     1      -0.734   1.954   1.269  0.00  0.00    +0.025 C 
ENDBRANCH  23  26
ENDBRANCH  20  23
ENDBRANCH   1  20
BRANCH   5  28
ATOM     28  N   UNL     1       5.382   2.052   0.644  0.00  0.00    -0.343 N 
ATOM     29  H   UNL     1       5.179   2.611  -0.122  0.00  0.00    +0.146 HD
BRANCH  28  30
ATOM     30  C   UNL     1       6.532   2.365   1.496  0.00  0.00    +0.107 C 
BRANCH  30  31
ATOM     31  C   UNL     1       7.238   3.613   0.962  0.00  0.00    -0.022 C 
ATOM     32  C   UNL     1       6.263   4.792   0.968  0.00  0.00    +0.012 C 
ATOM     33  C   UNL     1       8.439   3.940   1.852  0.00  0.00    +0.012 C 
ATOM     34  C   UNL     1       7.717   3.355  -0.468  0.00  0.00    +0.012 C 
ENDBRANCH  30  31
ENDBRANCH  28  30
ENDBRANCH   5  28
TORSDOF 8
