REMARK  Name = ZINC67235397
REMARK  11 active torsions:
REMARK  status: ('A' for Active; 'I' for Inactive)
REMARK    1  A    between atoms: C_1  and  C_2
REMARK    2  A    between atoms: C_2  and  C_3
REMARK    3  A    between atoms: C_2  and  C_4
REMARK    4  A    between atoms: C_2  and  O_5
REMARK    5  A    between atoms: O_5  and  C_6
REMARK    6  A    between atoms: N_8  and  C_9
REMARK    7  A    between atoms: C_9  and  C_10
REMARK    8  A    between atoms: C_9  and  C_11
REMARK    9  A    between atoms: C_9  and  C_12
REMARK   10  A    between atoms: N_14  and  C_15
REMARK   11  A    between atoms: C_15  and  C_16
REMARK                            x       y       z     vdW  Elec       q    Type
REMARK                         _______ _______ _______ _____ _____    ______ ____
ROOT
ATOM      1  C   UNL     1       4.570  -0.648  -3.886  0.00  0.00    +0.236 C 
ATOM      2  O   UNL     1       5.363  -0.015  -4.551  0.00  0.00    -0.273 OA
ATOM      3  N   UNL     1       4.169  -1.867  -4.297  0.00  0.00    -0.309 N 
ATOM      4  H   UNL     1       3.535  -2.374  -3.765  0.00  0.00    +0.149 HD
ENDROOT
BRANCH   1   5
ATOM      5  C   UNL     1       4.035  -0.071  -2.601  0.00  0.00    +0.108 C 
ATOM      6  C   UNL     1       4.111   1.456  -2.657  0.00  0.00    +0.041 C 
ATOM      7  C   UNL     1       4.872  -0.581  -1.426  0.00  0.00    +0.041 C 
BRANCH   5  10
ATOM      8  C   UNL     1       1.952  -0.085  -1.337  0.00  0.00    +0.402 C 
ATOM      9  O   UNL     1       2.488   0.619  -0.503  0.00  0.00    -0.226 OA
ATOM     10  N   UNL     1       2.641  -0.485  -2.424  0.00  0.00    -0.268 N 
ATOM     11  H   UNL     1       2.213  -1.047  -3.089  0.00  0.00    +0.153 HD
BRANCH   8  12
ATOM     12  O   UNL     1       0.671  -0.465  -1.174  0.00  0.00    -0.445 OA
BRANCH  12  14
ATOM     13  C   UNL     1      -0.019   1.526   0.010  0.00  0.00    +0.055 C 
ATOM     14  C   UNL     1       0.002  -0.004   0.002  0.00  0.00    +0.107 C 
ATOM     15  C   UNL     1       0.742  -0.511   1.242  0.00  0.00    +0.055 C 
ATOM     16  C   UNL     1      -1.433  -0.534   0.013  0.00  0.00    +0.055 C 
ENDBRANCH  12  14
ENDBRANCH   8  12
ENDBRANCH   5  10
ENDBRANCH   1   5
BRANCH   3  17
ATOM     17  C   UNL     1       4.689  -2.428  -5.546  0.00  0.00    +0.139 C 
BRANCH  17  18
ATOM     18  C   UNL     1       4.087  -3.791  -5.774  0.00  0.00    -0.025 A 
ATOM     19  C   UNL     1       4.716  -4.916  -5.271  0.00  0.00    +0.054 A 
ATOM     20  C   UNL     1       4.160  -6.166  -5.482  0.00  0.00    +0.164 A 
ATOM     21  C   UNL     1       2.977  -6.289  -6.196  0.00  0.00    +0.180 A 
ATOM     22  C   UNL     1       2.349  -5.161  -6.699  0.00  0.00    +0.086 A 
ATOM     23  C   UNL     1       2.906  -3.912  -6.481  0.00  0.00    +0.029 A 
ATOM     24 CL   UNL     1       0.869  -5.313  -7.593  0.00  0.00    -0.080 Cl
ATOM     25  O   UNL     1       2.437  -7.526  -6.398  0.00  0.00    -0.487 OA
ATOM     26  C   UNL     1       3.172  -8.395  -7.262  0.00  0.00    +0.232 C 
ATOM     27  C   UNL     1       4.266  -9.121  -6.494  0.00  0.00    +0.082 C 
ATOM     28  C   UNL     1       5.327  -8.171  -5.961  0.00  0.00    +0.232 C 
ATOM     29  O   UNL     1       4.770  -7.283  -4.989  0.00  0.00    -0.488 OA
ENDBRANCH  17  18
ENDBRANCH   3  17
TORSDOF 6
