REMARK  Name = ZINC00082318
REMARK  6 active torsions:
REMARK  status: ('A' for Active; 'I' for Inactive)
REMARK    1  A    between atoms: C_1  and  N_42
REMARK    2  A    between atoms: C_8  and  C_20
REMARK    3  A    between atoms: C_10  and  C_16
REMARK    4  A    between atoms: C_10  and  C_18
REMARK    5  A    between atoms: C_12  and  C_13
REMARK    6  A    between atoms: C_24  and  O_26
REMARK                            x       y       z     vdW  Elec       q    Type
REMARK                         _______ _______ _______ _____ _____    ______ ____
ROOT
ATOM      1  C   UNL     1      -1.675  -0.543   4.258  0.00  0.00    -0.096 C 
ATOM      2  C   UNL     1      -4.001  -0.435   3.579  0.00  0.00    -0.051 C 
ATOM      3  C   UNL     1      -4.875  -0.348   2.353  0.00  0.00    -0.044 C 
ATOM      4  C   UNL     1      -4.506   0.399   1.328  0.00  0.00    -0.051 C 
ATOM      5  C   UNL     1      -3.258   1.234   1.331  0.00  0.00    +0.010 C 
ATOM      6  C   UNL     1      -2.373   1.004   2.536  0.00  0.00    -0.070 C 
ATOM      7  C   UNL     1      -2.512   0.979   0.019  0.00  0.00    +0.064 C 
ATOM      8  C   UNL     1      -3.386   1.444  -1.146  0.00  0.00    +0.188 C 
ATOM      9  C   UNL     1      -4.771   0.875  -1.063  0.00  0.00    +0.065 C 
ATOM     10  C   UNL     1      -5.315   0.394   0.083  0.00  0.00    +0.163 C 
ATOM     11  N   UNL     1      -5.524   0.838  -2.203  0.00  0.00    -0.304 NA
ATOM     12  H   UNL     1      -6.424   0.475  -2.178  0.00  0.00    +0.186 HD
ATOM     13  N   UNL     1      -2.598  -0.327   3.122  0.00  0.00    +0.381 N 
ATOM     14  H   UNL     1      -2.421  -1.042   2.407  0.00  0.00    -0.082 HD
ENDROOT
BRANCH   7  15
ATOM     15  C   UNL     1      -1.218   1.750   0.017  0.00  0.00    -0.037 A 
ATOM     16  C   UNL     1      -1.195   3.065   0.446  0.00  0.00    +0.004 A 
ATOM     17  C   UNL     1      -0.010   3.776   0.440  0.00  0.00    +0.004 A 
ATOM     18  C   UNL     1       1.157   3.174   0.010  0.00  0.00    +0.045 A 
ATOM     19  C   UNL     1       1.138   1.853  -0.415  0.00  0.00    +0.117 A 
ATOM     20  C   UNL     1      -0.053   1.141  -0.408  0.00  0.00    +0.049 A 
BRANCH  19  21
ATOM     21  O   UNL     1       2.284   1.258  -0.838  0.00  0.00    -0.507 OA
ATOM     22  H   UNL     1       2.451   1.355  -1.786  0.00  0.00    +0.292 HD
ENDBRANCH  19  21
ENDBRANCH   7  15
BRANCH  10  23
ATOM     23  C   UNL     1      -6.654  -0.114   0.092  0.00  0.00    +0.076 C 
ATOM     24  N   UNL     1      -7.716  -0.516   0.099  0.00  0.00    -0.196 NA
ENDBRANCH  10  23
BRANCH   8  25
ATOM     25  C   UNL     1      -3.470   2.913  -1.128  0.00  0.00    +0.091 C 
ATOM     26  N   UNL     1      -3.534   4.047  -1.115  0.00  0.00    -0.195 NA
ENDBRANCH   8  25
BRANCH   8  27
ATOM     27  C   UNL     1      -2.766   1.015  -2.411  0.00  0.00    +0.091 C 
ATOM     28  N   UNL     1      -2.288   0.685  -3.387  0.00  0.00    -0.195 NA
ENDBRANCH   8  27
TORSDOF 5
