REMARK  Name = ZINC09271857
REMARK  5 active torsions:
REMARK  status: ('A' for Active; 'I' for Inactive)
REMARK    1  A    between atoms: C_5  and  C_7
REMARK    2  A    between atoms: C_10  and  C_12
REMARK    3  A    between atoms: N_13  and  N_14
REMARK    4  A    between atoms: C_19  and  C_22
REMARK    5  A    between atoms: C_22  and  C_23
REMARK                            x       y       z     vdW  Elec       q    Type
REMARK                         _______ _______ _______ _____ _____    ______ ____
ROOT
ATOM      1  N   UNL     1       3.675  -6.141  -2.868  0.00  0.00    -0.127 NA
ATOM      2  C   UNL     1       4.505  -5.942  -3.871  0.00  0.00    +0.183 C 
ATOM      3  N   UNL     1       5.152  -6.885  -4.641  0.00  0.00    -0.263 N 
ATOM      4  C   UNL     1       5.967  -6.557  -5.629  0.00  0.00    +0.232 C 
ATOM      5  O   UNL     1       6.532  -7.393  -6.303  0.00  0.00    -0.274 OA
ATOM      6  C   UNL     1       6.152  -5.067  -5.867  0.00  0.00    +0.144 C 
ATOM      7  S   UNL     1       5.053  -4.386  -4.558  0.00  0.00    -0.075 S 
ATOM      8  H   UNL     1       5.002  -7.825  -4.452  0.00  0.00    +0.157 HD
ENDROOT
BRANCH   1  10
ATOM      9  C   UNL     1       2.324  -5.332  -1.258  0.00  0.00    +0.181 C 
ATOM     10  N   UNL     1       3.150  -5.134  -2.255  0.00  0.00    -0.152 NA
BRANCH   9  14
ATOM     11  C   UNL     1       1.251  -2.158  -0.022  0.00  0.00    +0.137 A 
ATOM     12  C   UNL     1       0.558  -2.971   0.826  0.00  0.00    +0.050 A 
ATOM     13  C   UNL     1       0.868  -4.292   0.475  0.00  0.00    +0.051 A 
ATOM     14  C   UNL     1       1.748  -4.226  -0.585  0.00  0.00    +0.148 A 
ATOM     15  O   UNL     1       1.961  -2.925  -0.872  0.00  0.00    -0.454 OA
BRANCH  11  20
ATOM     16  C   UNL     1      -0.017   1.375   0.010  0.00  0.00    +0.001 A 
ATOM     17  C   UNL     1       1.170   2.087   0.002  0.00  0.00    +0.001 A 
ATOM     18  C   UNL     1       2.384   1.423  -0.013  0.00  0.00    +0.021 A 
ATOM     19  C   UNL     1       2.418   0.042  -0.021  0.00  0.00    +0.052 A 
ATOM     20  C   UNL     1       1.223  -0.683  -0.013  0.00  0.00    +0.036 A 
ATOM     21  C   UNL     1       0.002  -0.004   0.002  0.00  0.00    +0.013 A 
ATOM     22 CL   UNL     1       3.942  -0.790  -0.041  0.00  0.00    -0.083 Cl
ENDBRANCH  11  20
ENDBRANCH   9  14
ENDBRANCH   1  10
BRANCH   6  23
ATOM     23  C   UNL     1       5.665  -4.663  -7.260  0.00  0.00    +0.059 C 
BRANCH  23  24
ATOM     24  C   UNL     1       5.978  -3.209  -7.500  0.00  0.00    -0.046 A 
ATOM     25  C   UNL     1       5.062  -2.237  -7.145  0.00  0.00    +0.006 A 
ATOM     26  C   UNL     1       5.348  -0.903  -7.364  0.00  0.00    +0.038 A 
ATOM     27  C   UNL     1       6.554  -0.540  -7.940  0.00  0.00    +0.123 A 
ATOM     28  C   UNL     1       7.471  -1.514  -8.295  0.00  0.00    +0.038 A 
ATOM     29  C   UNL     1       7.185  -2.847  -8.070  0.00  0.00    +0.006 A 
ATOM     30  F   UNL     1       6.835   0.764  -8.155  0.00  0.00    -0.205 F 
ENDBRANCH  23  24
ENDBRANCH   6  23
TORSDOF 5
