REMARK  Name = ZINC03897361
REMARK  0 active torsions:
REMARK  status: ('A' for Active; 'I' for Inactive)
REMARK                            x       y       z     vdW  Elec       q    Type
REMARK                         _______ _______ _______ _____ _____    ______ ____
ROOT
ATOM      1  C   UNL     1      -0.390   4.902   3.256  0.00  0.00    +0.002 C 
ATOM      2  C   UNL     1      -0.020   5.047   1.779  0.00  0.00    +0.002 C 
ATOM      3  C   UNL     1       1.173   4.144   1.461  0.00  0.00    +0.019 C 
ATOM      4  C   UNL     1       1.072   3.655   0.015  0.00  0.00    +0.104 C 
ATOM      5  N   UNL     1       1.164   2.180   0.003  0.00  0.00    -0.314 N 
ATOM      6  C   UNL     1      -0.018   1.503   0.010  0.00  0.00    +0.230 C 
ATOM      7  O   UNL     1      -1.072   2.104   0.019  0.00  0.00    -0.274 OA
ATOM      8  C   UNL     1       0.002  -0.004   0.002  0.00  0.00    +0.200 C 
ATOM      9  N   UNL     1      -1.246  -0.488  -0.636  0.00  0.00    -0.307 N 
ATOM     10  C   UNL     1      -2.123  -1.109   0.212  0.00  0.00    +0.214 C 
ATOM     11  O   UNL     1      -3.179  -1.542  -0.198  0.00  0.00    -0.276 OA
ATOM     12  C   UNL     1      -1.749  -1.242   1.666  0.00  0.00    +0.105 C 
ATOM     13  C   UNL     1      -3.018  -1.408   2.504  0.00  0.00    +0.105 C 
ATOM     14  C   UNL     1      -3.526  -0.051   2.919  0.00  0.00    +0.214 C 
ATOM     15  O   UNL     1      -3.464   0.888   2.154  0.00  0.00    -0.276 OA
ATOM     16  N   UNL     1      -4.055   0.107   4.164  0.00  0.00    -0.307 N 
ATOM     17  C   UNL     1      -4.518   1.467   4.510  0.00  0.00    +0.200 C 
ATOM     18  C   UNL     1      -3.322   2.383   4.568  0.00  0.00    +0.230 C 
ATOM     19  O   UNL     1      -2.201   1.946   4.416  0.00  0.00    -0.274 OA
ATOM     20  N   UNL     1      -3.526   3.716   4.796  0.00  0.00    -0.314 N 
ATOM     21  C   UNL     1      -2.290   4.535   4.837  0.00  0.00    +0.104 C 
ATOM     22  C   UNL     1      -1.913   4.916   3.404  0.00  0.00    +0.019 C 
ATOM     23  H   UNL     1       2.018   1.720  -0.010  0.00  0.00    +0.149 HD
ATOM     24  H   UNL     1      -1.427  -0.374  -1.583  0.00  0.00    +0.149 HD
ATOM     25  H   UNL     1      -4.123  -0.632   4.789  0.00  0.00    +0.149 HD
ATOM     26  H   UNL     1      -4.410   4.096   4.923  0.00  0.00    +0.149 HD
ENDROOT
TORSDOF 0
