REMARK  Name = ZINC63295261
REMARK  6 active torsions:
REMARK  status: ('A' for Active; 'I' for Inactive)
REMARK    1  A    between atoms: C_4  and  C_7
REMARK    2  A    between atoms: C_7  and  C_9
REMARK    3  A    between atoms: C_7  and  O_32
REMARK    4  A    between atoms: C_9  and  N_10
REMARK    5  A    between atoms: C_11  and  C_13
REMARK    6  A    between atoms: C_13  and  N_14
REMARK                            x       y       z     vdW  Elec       q    Type
REMARK                         _______ _______ _______ _____ _____    ______ ____
ROOT
ATOM      1  N   UNL     1       7.587  -3.363   3.889  0.00  0.00    -0.291 N 
ATOM      2  C   UNL     1       8.769  -3.962   4.135  0.00  0.00    +0.303 C 
ATOM      3  O   UNL     1       9.528  -4.207   3.218  0.00  0.00    -0.253 OA
ATOM      4  N   UNL     1       9.109  -4.289   5.398  0.00  0.00    -0.283 N 
ATOM      5  C   UNL     1       8.140  -4.100   6.482  0.00  0.00    +0.114 C 
ATOM      6  C   UNL     1       8.743  -3.171   7.552  0.00  0.00    +0.052 C 
ATOM      7  C   UNL     1      10.151  -3.653   7.799  0.00  0.00    -0.035 C 
ATOM      8  C   UNL     1      10.788  -3.967   8.920  0.00  0.00    +0.001 A 
ATOM      9  C   UNL     1      10.394  -3.857  10.334  0.00  0.00    +0.030 A 
ATOM     10  C   UNL     1      11.301  -4.299  11.246  0.00  0.00    +0.042 A 
ATOM     11  C   UNL     1      12.546  -4.834  10.895  0.00  0.00    +0.022 A 
ATOM     12  C   UNL     1      12.993  -4.964   9.621  0.00  0.00    +0.027 A 
ATOM     13  C   UNL     1      12.130  -4.526   8.575  0.00  0.00    +0.043 A 
ATOM     14  N   UNL     1      12.310  -4.512   7.287  0.00  0.00    -0.376 N 
ATOM     15  C   UNL     1      11.141  -3.891   6.664  0.00  0.00    +0.124 C 
ATOM     16  C   UNL     1      10.446  -4.838   5.673  0.00  0.00    +0.138 C 
ATOM     17 CL   UNL     1      10.894  -4.195  12.930  0.00  0.00    -0.084 Cl
ATOM     18  H   UNL     1       6.950  -3.233   4.609  0.00  0.00    +0.151 HD
ATOM     19  H   UNL     1      13.088  -4.855   6.819  0.00  0.00    +0.160 HD
ENDROOT
BRANCH   1  20
ATOM     20  C   UNL     1       7.264  -2.908   2.535  0.00  0.00    +0.201 C 
BRANCH  20  22
ATOM     21  N   UNL     1       5.386  -1.783   1.384  0.00  0.00    -0.311 N 
ATOM     22  C   UNL     1       5.895  -2.277   2.530  0.00  0.00    +0.230 C 
ATOM     23  O   UNL     1       5.253  -2.214   3.556  0.00  0.00    -0.274 OA
ATOM     24  H   UNL     1       5.899  -1.833   0.563  0.00  0.00    +0.149 HD
BRANCH  21  25
ATOM     25  C   UNL     1       4.055  -1.170   1.379  0.00  0.00    +0.140 C 
BRANCH  25  26
ATOM     26  C   UNL     1       3.718  -0.695  -0.036  0.00  0.00    +0.162 C 
BRANCH  26  30
ATOM     27  C   UNL     1      -0.005   1.400   0.013  0.00  0.00    +0.000 A 
ATOM     28  C   UNL     1       1.185   2.104   0.004  0.00  0.00    +0.000 A 
ATOM     29  C   UNL     1       2.389   1.427  -0.011  0.00  0.00    +0.006 A 
ATOM     30  C   UNL     1       2.405   0.044  -0.018  0.00  0.00    -0.018 A 
ATOM     31  C   UNL     1       1.215  -0.660  -0.009  0.00  0.00    +0.006 A 
ATOM     32  C   UNL     1       0.011   0.018   0.005  0.00  0.00    +0.000 A 
ENDBRANCH  26  30
BRANCH  26  33
ATOM     33  O   UNL     1       3.618  -1.823  -0.907  0.00  0.00    -0.386 OA
ATOM     34  H   UNL     1       2.936  -2.459  -0.649  0.00  0.00    +0.210 HD
ENDBRANCH  26  33
ENDBRANCH  25  26
ENDBRANCH  21  25
ENDBRANCH  20  22
ENDBRANCH   1  20
TORSDOF 6
