REMARK  Name = ZINC63180039
REMARK  6 active torsions:
REMARK  status: ('A' for Active; 'I' for Inactive)
REMARK    1  A    between atoms: C_1  and  C_2
REMARK    2  A    between atoms: N_10  and  N_11
REMARK    3  A    between atoms: C_12  and  C_14
REMARK    4  A    between atoms: N_17  and  S_20
REMARK    5  A    between atoms: S_20  and  C_23
REMARK    6  A    between atoms: C_26  and  C_29
REMARK                            x       y       z     vdW  Elec       q    Type
REMARK                         _______ _______ _______ _____ _____    ______ ____
ROOT
ATOM      1  C   UNL     1       5.669  -4.020  -2.393  0.00  0.00    +0.079 C 
ATOM      2  C   UNL     1       4.665  -4.840  -3.206  0.00  0.00    +0.030 C 
ATOM      3  C   UNL     1       5.317  -5.278  -4.522  0.00  0.00    +0.110 C 
ATOM      4  N   UNL     1       6.568  -5.985  -4.217  0.00  0.00    -0.177 NA
ATOM      5  C   UNL     1       7.565  -5.322  -3.366  0.00  0.00    +0.110 C 
ATOM      6  C   UNL     1       6.888  -4.883  -2.063  0.00  0.00    +0.030 C 
ENDROOT
BRANCH   1   8
ATOM      7  N   UNL     1       3.921  -2.780  -1.157  0.00  0.00    -0.234 N 
ATOM      8  C   UNL     1       5.020  -3.559  -1.113  0.00  0.00    +0.232 C 
ATOM      9  O   UNL     1       5.487  -3.888  -0.043  0.00  0.00    -0.274 OA
ATOM     10  H   UNL     1       3.547  -2.517  -2.013  0.00  0.00    +0.173 HD
BRANCH   7  19
ATOM     11  C   UNL     1      -0.019   1.526   0.010  0.00  0.00    +0.044 C 
ATOM     12  C   UNL     1       0.002  -0.004   0.002  0.00  0.00    +0.210 C 
ATOM     13  C   UNL     1       0.641  -0.458  -1.297  0.00  0.00    +0.265 C 
ATOM     14  O   UNL     1       0.187  -0.137  -2.377  0.00  0.00    -0.271 OA
ATOM     15  N   UNL     1       1.734  -1.231  -1.194  0.00  0.00    -0.145 NA
ATOM     16  C   UNL     1       2.206  -1.564  -0.013  0.00  0.00    +0.218 C 
ATOM     17  N   UNL     1       1.654  -1.172   1.169  0.00  0.00    -0.253 N 
ATOM     18  N   UNL     1       0.647  -0.458   1.246  0.00  0.00    -0.197 NA
ATOM     19  N   UNL     1       3.317  -2.351   0.032  0.00  0.00    -0.235 N 
ATOM     20  H   UNL     1       3.691  -2.615   0.888  0.00  0.00    +0.173 HD
ATOM     21  H   UNL     1       2.073  -1.467   1.992  0.00  0.00    +0.191 HD
ENDBRANCH   7  19
ENDBRANCH   1   8
BRANCH   4  22
ATOM     22  S   UNL     1       6.849  -7.502  -4.821  0.00  0.00    +0.061 S 
ATOM     23  O   UNL     1       7.792  -8.116  -3.953  0.00  0.00    -0.153 OA
ATOM     24  O   UNL     1       5.577  -8.073  -5.091  0.00  0.00    -0.153 OA
BRANCH  22  25
ATOM     25  C   UNL     1       7.652  -7.302  -6.377  0.00  0.00    +0.106 A 
ATOM     26  C   UNL     1       6.899  -7.198  -7.532  0.00  0.00    +0.030 A 
ATOM     27  C   UNL     1       7.521  -7.041  -8.754  0.00  0.00    +0.021 A 
ATOM     28  C   UNL     1       8.914  -6.988  -8.822  0.00  0.00    +0.052 A 
ATOM     29  C   UNL     1       9.669  -7.093  -7.651  0.00  0.00    +0.021 A 
ATOM     30  C   UNL     1       9.033  -7.244  -6.436  0.00  0.00    +0.030 A 
BRANCH  28  31
ATOM     31  C   UNL     1       9.567  -6.826 -10.086  0.00  0.00    +0.099 C 
ATOM     32  N   UNL     1      10.085  -6.698 -11.089  0.00  0.00    -0.191 NA
ENDBRANCH  28  31
ENDBRANCH  22  25
ENDBRANCH   4  22
TORSDOF 5
