REMARK  Name = ZINC39452035
REMARK  7 active torsions:
REMARK  status: ('A' for Active; 'I' for Inactive)
REMARK    1  A    between atoms: C_1  and  S_2
REMARK    2  A    between atoms: S_2  and  N_3
REMARK    3  A    between atoms: C_11  and  C_14
REMARK    4  A    between atoms: C_14  and  C_15
REMARK    5  A    between atoms: C_22  and  S_27
REMARK    6  A    between atoms: S_27  and  O_30
REMARK    7  A    between atoms: O_30  and  C_31
REMARK                            x       y       z     vdW  Elec       q    Type
REMARK                         _______ _______ _______ _____ _____    ______ ____
ROOT
ATOM      1  N   UNL     1      -2.125  -0.546  -0.126  0.00  0.00    -0.245 N 
ATOM      2  C   UNL     1      -2.702  -0.781   1.115  0.00  0.00    +0.122 A 
ATOM      3  C   UNL     1      -3.956  -1.352   1.219  0.00  0.00    +0.083 A 
ATOM      4  C   UNL     1      -4.698  -1.708   0.002  0.00  0.00    +0.099 A 
ATOM      5  C   UNL     1      -4.090  -1.457  -1.247  0.00  0.00    +0.068 A 
ATOM      6  C   UNL     1      -2.753  -0.848  -1.277  0.00  0.00    +0.271 A 
ATOM      7  O   UNL     1      -2.212  -0.620  -2.344  0.00  0.00    -0.266 OA
ATOM      8  C   UNL     1      -4.775  -1.788  -2.417  0.00  0.00    +0.021 A 
ATOM      9  C   UNL     1      -6.033  -2.352  -2.296  0.00  0.00    -0.024 A 
ATOM     10  C   UNL     1      -6.568  -2.570  -1.034  0.00  0.00    +0.115 A 
ATOM     11  N   UNL     1      -5.907  -2.253   0.059  0.00  0.00    -0.253 NA
ATOM     12  N   UNL     1      -4.503  -1.591   2.465  0.00  0.00    -0.317 N 
ATOM     13  C   UNL     1      -3.591  -1.797   3.600  0.00  0.00    +0.263 C 
ATOM     14  C   UNL     1      -2.609  -0.620   3.646  0.00  0.00    +0.130 C 
ATOM     15  C   UNL     1      -1.989  -0.433   2.286  0.00  0.00    +0.186 C 
ATOM     16  O   UNL     1      -0.866   0.021   2.195  0.00  0.00    -0.290 OA
ATOM     17  H   UNL     1      -5.465  -1.621   2.588  0.00  0.00    +0.148 HD
ENDROOT
BRANCH  13  18
ATOM     18  S   UNL     1      -2.677  -3.348   3.376  0.00  0.00    +0.140 S 
ATOM     19  O   UNL     1      -3.556  -4.457   3.508  0.00  0.00    -0.135 OA
ATOM     20  O   UNL     1      -1.804  -3.245   2.260  0.00  0.00    -0.135 OA
BRANCH  18  21
ATOM     21  O   UNL     1      -1.755  -3.437   4.584  0.00  0.00    -0.345 OA
BRANCH  21  22
ATOM     22  C   UNL     1      -2.385  -3.786   5.736  0.00  0.00    +0.156 A 
ATOM     23  C   UNL     1      -2.891  -2.805   6.576  0.00  0.00    +0.048 A 
ATOM     24  C   UNL     1      -3.531  -3.163   7.747  0.00  0.00    +0.004 A 
ATOM     25  C   UNL     1      -3.669  -4.497   8.081  0.00  0.00    +0.000 A 
ATOM     26  C   UNL     1      -3.166  -5.477   7.245  0.00  0.00    +0.004 A 
ATOM     27  C   UNL     1      -2.530  -5.125   6.071  0.00  0.00    +0.048 A 
ENDBRANCH  21  22
ENDBRANCH  18  21
ENDBRANCH  13  18
BRANCH   1  29
ATOM     28  C   UNL     1      -0.942   1.919  -0.235  0.00  0.00    +0.110 C 
ATOM     29  S   UNL     1      -0.617   0.134  -0.192  0.00  0.00    -0.044 S 
ENDBRANCH   1  29
BRANCH   9  30
ATOM     30  C   UNL     1      -6.817  -2.728  -3.527  0.00  0.00    +0.071 C 
BRANCH  30  31
ATOM     31  C   UNL     1      -6.495  -4.149  -3.913  0.00  0.00    -0.043 A 
ATOM     32  C   UNL     1      -5.447  -4.409  -4.777  0.00  0.00    +0.004 A 
ATOM     33  C   UNL     1      -5.152  -5.712  -5.132  0.00  0.00    +0.000 A 
ATOM     34  C   UNL     1      -5.903  -6.755  -4.622  0.00  0.00    +0.000 A 
ATOM     35  C   UNL     1      -6.950  -6.494  -3.758  0.00  0.00    +0.000 A 
ATOM     36  C   UNL     1      -7.243  -5.191  -3.400  0.00  0.00    +0.004 A 
ENDBRANCH  30  31
ENDBRANCH   9  30
TORSDOF 6
