REMARK  Name = ZINC44714175
REMARK  7 active torsions:
REMARK  status: ('A' for Active; 'I' for Inactive)
REMARK    1  A    between atoms: C_1  and  C_2
REMARK    2  A    between atoms: C_3  and  C_9
REMARK    3  A    between atoms: C_4  and  C_8
REMARK    4  A    between atoms: C_9  and  C_11
REMARK    5  A    between atoms: C_9  and  N_12
REMARK    6  A    between atoms: C_13  and  C_15
REMARK    7  A    between atoms: C_26  and  C_28
REMARK                            x       y       z     vdW  Elec       q    Type
REMARK                         _______ _______ _______ _____ _____    ______ ____
ROOT
ATOM      1  C   UNL     1      -2.522  -1.134  -5.468  0.00  0.00    +0.100 C 
ATOM      2  C   UNL     1      -3.812  -1.525  -4.712  0.00  0.00    +0.121 C 
ATOM      3  N   UNL     1      -4.769  -0.436  -5.018  0.00  0.00    -0.300 N 
ATOM      4  C   UNL     1      -4.525  -0.120  -6.446  0.00  0.00    +0.115 C 
ATOM      5  C   UNL     1      -2.994  -0.215  -6.606  0.00  0.00    -0.004 C 
ATOM      6  C   UNL     1      -2.364   1.167  -6.466  0.00  0.00    -0.010 C 
ATOM      7  C   UNL     1      -2.804   2.045  -7.641  0.00  0.00    -0.082 C 
ATOM      8  N   UNL     1      -2.388   1.422  -8.903  0.00  0.00    +0.379 N 
ATOM      9  C   UNL     1      -3.071   0.134  -9.074  0.00  0.00    -0.082 C 
ATOM     10  C   UNL     1      -2.643  -0.826  -7.960  0.00  0.00    -0.010 C 
ATOM     11  C   UNL     1      -5.661   0.137  -4.186  0.00  0.00    +0.219 C 
ATOM     12  O   UNL     1      -5.686  -0.175  -3.014  0.00  0.00    -0.275 OA
ATOM     13  H   UNL     1      -2.625   2.031  -9.671  0.00  0.00    -0.086 HD
ATOM     14  H   UNL     1      -1.390   1.273  -8.890  0.00  0.00    -0.086 HD
ENDROOT
BRANCH  11  15
ATOM     15  C   UNL     1      -6.628   1.166  -4.712  0.00  0.00    +0.079 C 
ATOM     16  C   UNL     1      -7.419   1.774  -3.546  0.00  0.00    +0.017 C 
ATOM     17  C   UNL     1      -8.260   2.934  -4.083  0.00  0.00    +0.027 C 
ATOM     18  C   UNL     1      -9.021   2.500  -5.302  0.00  0.00    -0.031 C 
ATOM     19  C   UNL     1      -8.738   1.444  -5.995  0.00  0.00    -0.030 C 
ATOM     20  C   UNL     1      -7.613   0.502  -5.676  0.00  0.00    +0.039 C 
ENDBRANCH  11  15
BRANCH   1  22
ATOM     21  N   UNL     1      -0.250  -0.482  -4.740  0.00  0.00    -0.308 N 
ATOM     22  C   UNL     1      -1.581  -0.394  -4.552  0.00  0.00    +0.219 C 
ATOM     23  O   UNL     1      -2.023   0.280  -3.646  0.00  0.00    -0.275 OA
ATOM     24  H   UNL     1       0.103  -1.021  -5.465  0.00  0.00    +0.149 HD
BRANCH  21  25
ATOM     25  C   UNL     1       0.665   0.237  -3.850  0.00  0.00    +0.104 C 
ATOM     26  C   UNL     1       0.750   1.703  -4.282  0.00  0.00    +0.033 C 
BRANCH  25  29
ATOM     27  C   UNL     1       2.184  -0.567  -6.464  0.00  0.00    +0.065 C 
ATOM     28  C   UNL     1       2.690  -0.736  -5.054  0.00  0.00    +0.038 A 
ATOM     29  C   UNL     1       2.034  -0.388  -3.924  0.00  0.00    +0.015 A 
ATOM     30  C   UNL     1       2.850  -0.712  -2.835  0.00  0.00    +0.065 A 
ATOM     31  N   UNL     1       3.957  -1.236  -3.296  0.00  0.00    -0.179 NA
ATOM     32  N   UNL     1       3.878  -1.266  -4.694  0.00  0.00    -0.281 N 
ATOM     33  H   UNL     1       4.558  -1.606  -5.297  0.00  0.00    +0.189 HD
ATOM     34  C   UNL     1       2.513  -0.496  -1.382  0.00  0.00    +0.068 C 
ENDBRANCH  25  29
ENDBRANCH  21  25
ENDBRANCH   1  22
TORSDOF 4
