REMARK  Name = ZINC37129780
REMARK  8 active torsions:
REMARK  status: ('A' for Active; 'I' for Inactive)
REMARK    1  A    between atoms: C_1  and  C_2
REMARK    2  A    between atoms: C_2  and  C_4
REMARK    3  A    between atoms: C_2  and  N_9
REMARK    4  A    between atoms: C_4  and  C_5
REMARK    5  A    between atoms: C_5  and  C_6
REMARK    6  A    between atoms: C_6  and  C_7
REMARK    7  A    between atoms: C_6  and  C_8
REMARK    8  A    between atoms: N_9  and  C_10
REMARK                            x       y       z     vdW  Elec       q    Type
REMARK                         _______ _______ _______ _____ _____    ______ ____
ROOT
ATOM      1  C   UNL     1       2.105  -0.604   1.173  0.00  0.00    +0.044 A 
ATOM      2  C   UNL     1       2.816  -0.252   0.035  0.00  0.00    +0.051 A 
ATOM      3  C   UNL     1       4.197  -0.367   0.022  0.00  0.00    +0.069 A 
ATOM      4  C   UNL     1       4.868  -0.835   1.154  0.00  0.00    +0.068 A 
ATOM      5  C   UNL     1       4.153  -1.185   2.289  0.00  0.00    +0.045 A 
ATOM      6  C   UNL     1       2.777  -1.065   2.300  0.00  0.00    +0.041 A 
ATOM      7 BR   UNL     1       1.802  -1.536   3.851  0.00  0.00    -0.048 Br
ATOM      8  N   UNL     1       6.228  -0.839   0.843  0.00  0.00    -0.306 N 
ATOM      9  H   UNL     1       6.946  -1.115   1.434  0.00  0.00    +0.170 HD
ATOM     10  C   UNL     1       6.375  -0.394  -0.420  0.00  0.00    +0.325 A 
ATOM     11  O   UNL     1       7.437  -0.274  -1.001  0.00  0.00    -0.247 OA
ATOM     12  N   UNL     1       5.168  -0.101  -0.940  0.00  0.00    -0.306 N 
ATOM     13  H   UNL     1       5.003   0.237  -1.835  0.00  0.00    +0.170 HD
ENDROOT
BRANCH   1  14
ATOM     14  N   UNL     1       0.711  -0.489   1.189  0.00  0.00    -0.340 N 
ATOM     15  H   UNL     1       0.213  -0.731   1.986  0.00  0.00    +0.146 HD
BRANCH  14  17
ATOM     16  C   UNL     1      -0.019   1.526   0.010  0.00  0.00    +0.028 C 
ATOM     17  C   UNL     1       0.002  -0.004   0.002  0.00  0.00    +0.067 C 
BRANCH  17  18
ATOM     18  C   UNL     1      -1.433  -0.534   0.013  0.00  0.00    +0.022 C 
BRANCH  18  19
ATOM     19  C   UNL     1      -1.416  -2.058  -0.121  0.00  0.00    +0.005 C 
BRANCH  19  20
ATOM     20  C   UNL     1      -2.851  -2.587  -0.110  0.00  0.00    -0.017 C 
ATOM     21  C   UNL     1      -2.840  -4.095  -0.369  0.00  0.00    +0.007 C 
ATOM     22  C   UNL     1      -3.487  -2.308   1.253  0.00  0.00    +0.007 C 
ENDBRANCH  19  20
ENDBRANCH  18  19
ENDBRANCH  17  18
ENDBRANCH  14  17
ENDBRANCH   1  14
TORSDOF 5
