REMARK  Name = ZINC20530264
REMARK  5 active torsions:
REMARK  status: ('A' for Active; 'I' for Inactive)
REMARK    1  A    between atoms: C_4  and  C_7
REMARK    2  A    between atoms: C_9  and  C_13
REMARK    3  A    between atoms: N_14  and  N_15
REMARK    4  A    between atoms: C_16  and  C_18
REMARK    5  A    between atoms: C_22  and  O_24
REMARK                            x       y       z     vdW  Elec       q    Type
REMARK                         _______ _______ _______ _____ _____    ______ ____
ROOT
ATOM      1  C   UNL     1       2.198   8.074   0.024  0.00  0.00    +0.143 C 
ATOM      2  N   UNL     1       1.081   7.413   0.031  0.00  0.00    -0.187 NA
ENDROOT
BRANCH   1   5
ATOM      3  C   UNL     1       2.835  11.680   0.037  0.00  0.00    +0.138 A 
ATOM      4  C   UNL     1       3.313  10.411   0.027  0.00  0.00    +0.061 A 
ATOM      5  C   UNL     1       2.183   9.549   0.032  0.00  0.00    +0.052 A 
ATOM      6  C   UNL     1       1.080  10.353   0.041  0.00  0.00    +0.203 A 
ATOM      7  O   UNL     1       1.488  11.631   0.049  0.00  0.00    -0.443 OA
ATOM      8 CL   UNL     1      -0.570   9.815   0.044  0.00  0.00    -0.042 Cl
BRANCH   3  12
ATOM      9  C   UNL     1       5.188  15.215   0.036  0.00  0.00    +0.000 A 
ATOM     10  C   UNL     1       3.807  15.307   0.048  0.00  0.00    +0.001 A 
ATOM     11  C   UNL     1       3.037  14.162   0.048  0.00  0.00    +0.011 A 
ATOM     12  C   UNL     1       3.654  12.910   0.036  0.00  0.00    +0.017 A 
ATOM     13  C   UNL     1       5.047  12.825   0.030  0.00  0.00    +0.011 A 
ATOM     14  C   UNL     1       5.805  13.977   0.025  0.00  0.00    +0.001 A 
ENDBRANCH   3  12
ENDBRANCH   1   5
BRANCH   2  15
ATOM     15  N   UNL     1       1.096   6.013   0.023  0.00  0.00    -0.203 N 
ATOM     16  C   UNL     1      -0.064   5.326   0.030  0.00  0.00    +0.263 C 
ATOM     17  O   UNL     1      -1.124   5.923   0.043  0.00  0.00    -0.268 OA
ATOM     18  H   UNL     1       2.054   5.473   0.012  0.00  0.00    +0.178 HD
BRANCH  16  19
ATOM     19  C   UNL     1      -0.049   3.848   0.022  0.00  0.00    +0.042 A 
ATOM     20  C   UNL     1       1.166   3.160   0.007  0.00  0.00    +0.013 A 
ATOM     21  C   UNL     1       1.177   1.781   0.000  0.00  0.00    +0.004 A 
ATOM     22  C   UNL     1      -0.013   1.076   0.008  0.00  0.00    +0.045 A 
ATOM     23  C   UNL     1      -1.226   1.751   0.017  0.00  0.00    +0.118 A 
ATOM     24  C   UNL     1      -1.248   3.136   0.030  0.00  0.00    +0.058 A 
BRANCH  23  25
ATOM     25  O   UNL     1      -2.392   1.053   0.019  0.00  0.00    -0.507 OA
ATOM     26  H   UNL     1      -3.353   1.587   0.027  0.00  0.00    +0.292 HD
ENDBRANCH  23  25
ENDBRANCH  16  19
ENDBRANCH   2  15
TORSDOF 5
