REMARK  Name = ZINC18088312
REMARK  8 active torsions:
REMARK  status: ('A' for Active; 'I' for Inactive)
REMARK    1  A    between atoms: C_1  and  C_2
REMARK    2  A    between atoms: C_2  and  C_13
REMARK    3  A    between atoms: N_3  and  C_4
REMARK    4  A    between atoms: C_4  and  C_5
REMARK    5  A    between atoms: C_8  and  O_11
REMARK    6  A    between atoms: O_11  and  C_12
REMARK    7  A    between atoms: C_14  and  C_28
REMARK    8  A    between atoms: C_17  and  O_18
REMARK                            x       y       z     vdW  Elec       q    Type
REMARK                         _______ _______ _______ _____ _____    ______ ____
ROOT
ATOM      1  C   UNL     1      -0.198  -0.750  -1.258  0.00  0.00    +0.089 A 
ATOM      2  C   UNL     1       0.857  -1.103  -2.133  0.00  0.00    +0.178 A 
ATOM      3  N   UNL     1       0.349  -1.749  -3.145  0.00  0.00    -0.157 NA
ATOM      4  N   UNL     1      -1.037  -1.845  -2.979  0.00  0.00    -0.175 N 
ATOM      5  C   UNL     1      -1.372  -1.237  -1.818  0.00  0.00    +0.227 A 
ATOM      6  C   UNL     1      -1.920  -2.466  -3.855  0.00  0.00    +0.198 A 
ATOM      7  N   UNL     1      -3.223  -2.585  -3.763  0.00  0.00    -0.221 NA
ATOM      8  C   UNL     1      -3.962  -3.219  -4.699  0.00  0.00    +0.081 A 
ATOM      9  C   UNL     1      -5.362  -3.417  -4.719  0.00  0.00    +0.029 A 
ATOM     10  C   UNL     1      -5.959  -4.089  -5.753  0.00  0.00    +0.002 A 
ATOM     11  C   UNL     1      -5.219  -4.597  -6.811  0.00  0.00    +0.001 A 
ATOM     12  C   UNL     1      -3.848  -4.423  -6.824  0.00  0.00    +0.017 A 
ATOM     13  C   UNL     1      -3.240  -3.750  -5.792  0.00  0.00    +0.041 A 
ATOM     14  S   UNL     1      -1.569  -3.296  -5.399  0.00  0.00    -0.048 S 
ENDROOT
BRANCH   2  15
ATOM     15  C   UNL     1       2.316  -0.785  -1.930  0.00  0.00    +0.437 C 
ATOM     16  F   UNL     1       2.925  -1.825  -1.219  0.00  0.00    -0.164 F 
ATOM     17  F   UNL     1       2.940  -0.643  -3.174  0.00  0.00    -0.164 F 
ATOM     18  F   UNL     1       2.438   0.407  -1.208  0.00  0.00    -0.164 F 
ENDBRANCH   2  15
BRANCH   1  20
ATOM     19  C   UNL     1      -0.172   1.491   0.016  0.00  0.00    +0.066 C 
ATOM     20  C   UNL     1      -0.074  -0.013   0.007  0.00  0.00    +0.047 C 
ATOM     21  N   UNL     1       0.119  -0.657   1.116  0.00  0.00    -0.283 NA
BRANCH  21  22
ATOM     22  C   UNL     1       0.122   0.064   2.391  0.00  0.00    +0.177 C 
BRANCH  22  23
ATOM     23  C   UNL     1      -1.028  -0.413   3.241  0.00  0.00    -0.026 A 
ATOM     24  C   UNL     1      -2.259   0.209   3.149  0.00  0.00    +0.009 A 
ATOM     25  C   UNL     1      -3.314  -0.226   3.927  0.00  0.00    +0.046 A 
ATOM     26  C   UNL     1      -3.138  -1.289   4.801  0.00  0.00    +0.120 A 
ATOM     27  C   UNL     1      -1.901  -1.913   4.891  0.00  0.00    +0.046 A 
ATOM     28  C   UNL     1      -0.851  -1.477   4.106  0.00  0.00    +0.009 A 
BRANCH  26  29
ATOM     29  O   UNL     1      -4.174  -1.720   5.567  0.00  0.00    -0.495 OA
ATOM     30  C   UNL     1      -3.920  -2.819   6.444  0.00  0.00    +0.277 C 
ENDBRANCH  26  29
ENDBRANCH  22  23
ENDBRANCH  21  22
ENDBRANCH   1  20
BRANCH   5  31
ATOM     31  O   UNL     1      -2.618  -1.122  -1.300  0.00  0.00    -0.492 OA
ATOM     32  H   UNL     1      -3.089  -0.326  -1.583  0.00  0.00    +0.294 HD
ENDBRANCH   5  31
TORSDOF 6
