REMARK  Name = ZINC25515994
REMARK  10 active torsions:
REMARK  status: ('A' for Active; 'I' for Inactive)
REMARK    1  A    between atoms: C_1  and  C_2
REMARK    2  A    between atoms: C_2  and  C_3
REMARK    3  A    between atoms: C_2  and  C_4
REMARK    4  A    between atoms: C_4  and  C_6
REMARK    5  A    between atoms: C_4  and  N_21
REMARK    6  A    between atoms: N_8  and  C_9
REMARK    7  A    between atoms: C_13  and  N_15
REMARK    8  A    between atoms: N_15  and  S_16
REMARK    9  A    between atoms: S_16  and  C_19
REMARK   10  A    between atoms: C_22  and  C_24
REMARK                            x       y       z     vdW  Elec       q    Type
REMARK                         _______ _______ _______ _____ _____    ______ ____
ROOT
ATOM      1  C   UNL     1      -1.817   6.774  -3.369  0.00  0.00    +0.162 C 
ENDROOT
BRANCH   1   2
ATOM      2  C   UNL     1      -3.064   7.454  -3.874  0.00  0.00    +0.238 C 
ATOM      3  O   UNL     1      -3.782   6.888  -4.671  0.00  0.00    -0.273 OA
ATOM      4  N   UNL     1      -3.381   8.690  -3.440  0.00  0.00    -0.284 N 
ATOM      5  H   UNL     1      -2.745   9.190  -2.694  0.00  0.00    +0.155 HD
BRANCH   4   6
ATOM      6  C   UNL     1      -4.518   9.337  -3.938  0.00  0.00    +0.035 A 
ATOM      7  C   UNL     1      -5.612   8.592  -4.361  0.00  0.00    +0.026 A 
ATOM      8  C   UNL     1      -6.737   9.229  -4.848  0.00  0.00    +0.042 A 
ATOM      9  C   UNL     1      -6.774  10.610  -4.925  0.00  0.00    +0.146 A 
ATOM     10  C   UNL     1      -5.680  11.360  -4.508  0.00  0.00    +0.085 A 
ATOM     11  C   UNL     1      -4.551  10.722  -4.014  0.00  0.00    +0.050 A 
ATOM     12  F   UNL     1      -7.874  11.229  -5.406  0.00  0.00    -0.204 F 
BRANCH  10  13
ATOM     13  N   UNL     1      -5.717  12.756  -4.586  0.00  0.00    -0.218 N 
ATOM     14  H   UNL     1      -6.661  13.291  -4.407  0.00  0.00    +0.173 HD
BRANCH  13  15
ATOM     15  S   UNL     1      -4.340  13.602  -4.948  0.00  0.00    +0.040 S 
ATOM     16  O   UNL     1      -4.780  14.936  -5.160  0.00  0.00    -0.155 OA
ATOM     17  O   UNL     1      -3.438  13.295  -3.894  0.00  0.00    -0.155 OA
ATOM     18  C   UNL     1      -3.748  12.884  -6.506  0.00  0.00    +0.218 C 
ENDBRANCH  13  15
ENDBRANCH  10  13
ENDBRANCH   4   6
ENDBRANCH   1   2
BRANCH   1  19
ATOM     19  N   UNL     1      -2.008   5.322  -3.395  0.00  0.00    -0.303 N 
ATOM     20  C   UNL     1      -1.297   4.534  -2.565  0.00  0.00    +0.220 C 
ATOM     21  O   UNL     1      -0.498   5.027  -1.796  0.00  0.00    -0.275 OA
ATOM     22  H   UNL     1      -2.732   4.875  -4.092  0.00  0.00    +0.149 HD
BRANCH  20  23
ATOM     23  C   UNL     1      -1.493   3.040  -2.591  0.00  0.00    +0.048 C 
ATOM     24  C   UNL     1      -1.157   2.506  -3.986  0.00  0.00    +0.019 C 
ATOM     25  C   UNL     1      -1.357   0.990  -4.013  0.00  0.00    -0.009 C 
ATOM     26  C   UNL     1      -0.435   0.336  -2.981  0.00  0.00    +0.007 C 
ATOM     27  C   UNL     1      -0.771   0.869  -1.587  0.00  0.00    -0.009 C 
ATOM     28  C   UNL     1      -0.572   2.386  -1.560  0.00  0.00    +0.019 C 
ATOM     29  C   UNL     1      -2.227   0.540  -1.252  0.00  0.00    +0.007 C 
ATOM     30  C   UNL     1      -3.148   1.194  -2.283  0.00  0.00    -0.009 C 
ATOM     31  C   UNL     1      -2.813   0.660  -3.677  0.00  0.00    +0.007 C 
ATOM     32  C   UNL     1      -2.949   2.711  -2.256  0.00  0.00    +0.019 C 
ENDBRANCH  20  23
ENDBRANCH   1  19
BRANCH   1  34
ATOM     33  C   UNL     1       0.649   6.540  -3.695  0.00  0.00    +0.009 C 
ATOM     34  C   UNL     1      -0.634   7.149  -4.264  0.00  0.00    +0.012 C 
ATOM     35  C   UNL     1      -0.872   6.610  -5.676  0.00  0.00    +0.009 C 
ENDBRANCH   1  34
TORSDOF 7
