REMARK  Name = ZINC39914294
REMARK  9 active torsions:
REMARK  status: ('A' for Active; 'I' for Inactive)
REMARK    1  A    between atoms: C_1  and  C_2
REMARK    2  A    between atoms: C_2  and  C_3
REMARK    3  A    between atoms: C_3  and  N_4
REMARK    4  A    between atoms: C_5  and  C_24
REMARK    5  A    between atoms: C_8  and  C_15
REMARK    6  A    between atoms: C_18  and  C_22
REMARK    7  A    between atoms: C_20  and  O_21
REMARK    8  A    between atoms: C_27  and  S_30
REMARK    9  A    between atoms: S_30  and  C_31
REMARK                            x       y       z     vdW  Elec       q    Type
REMARK                         _______ _______ _______ _____ _____    ______ ____
ROOT
ATOM      1  N   UNL     1      -1.413  -1.998   0.005  0.00  0.00    -0.285 N 
ATOM      2  C   UNL     1      -1.407  -2.852  -1.190  0.00  0.00    +0.141 C 
ATOM      3  C   UNL     1      -1.386  -4.270  -0.689  0.00  0.00    +0.035 A 
ATOM      4  C   UNL     1      -1.369  -5.633  -1.005  0.00  0.00    +0.102 A 
ATOM      5  N   UNL     1      -1.354  -6.302   0.131  0.00  0.00    -0.173 NA
ATOM      6  N   UNL     1      -1.361  -5.496   1.133  0.00  0.00    -0.272 N 
ATOM      7  H   UNL     1      -1.352  -5.766   2.065  0.00  0.00    +0.189 HD
ATOM      8  C   UNL     1      -1.380  -4.204   0.691  0.00  0.00    +0.126 A 
ATOM      9  C   UNL     1      -1.392  -2.792   1.091  0.00  0.00    +0.265 C 
ATOM     10  O   UNL     1      -1.386  -2.396   2.240  0.00  0.00    -0.268 OA
ENDROOT
BRANCH   4  11
ATOM     11  C   UNL     1      -1.367  -6.218  -2.369  0.00  0.00    +0.045 A 
ATOM     12  C   UNL     1      -1.378  -5.388  -3.486  0.00  0.00    +0.034 A 
ATOM     13  C   UNL     1      -1.377  -5.937  -4.754  0.00  0.00    +0.045 A 
ATOM     14  C   UNL     1      -1.364  -7.312  -4.917  0.00  0.00    -0.029 A 
ATOM     15  C   UNL     1      -1.353  -8.145  -3.814  0.00  0.00    +0.050 A 
ATOM     16  C   UNL     1      -1.349  -7.606  -2.537  0.00  0.00    +0.126 A 
ATOM     17  C   UNL     1      -1.363  -7.903  -6.303  0.00  0.00    +0.045 C 
ATOM     18 CL   UNL     1      -1.390  -4.901  -6.146  0.00  0.00    -0.083 Cl
BRANCH  16  19
ATOM     19  O   UNL     1      -1.333  -8.423  -1.452  0.00  0.00    -0.506 OA
ATOM     20  H   UNL     1      -2.211  -8.672  -1.134  0.00  0.00    +0.292 HD
ENDBRANCH  16  19
ENDBRANCH   4  11
BRANCH   2  21
ATOM     21  C   UNL     1      -2.649  -2.609  -2.008  0.00  0.00    -0.022 A 
ATOM     22  C   UNL     1      -3.865  -2.421  -1.377  0.00  0.00    +0.007 A 
ATOM     23  C   UNL     1      -5.005  -2.198  -2.123  0.00  0.00    +0.015 A 
ATOM     24  C   UNL     1      -4.930  -2.162  -3.510  0.00  0.00    +0.008 A 
ATOM     25  C   UNL     1      -3.706  -2.351  -4.141  0.00  0.00    +0.015 A 
ATOM     26  C   UNL     1      -2.569  -2.568  -3.388  0.00  0.00    +0.007 A 
BRANCH  24  27
ATOM     27  S   UNL     1      -6.382  -1.878  -4.466  0.00  0.00    -0.129 S 
ATOM     28  C   UNL     1      -5.793  -1.919  -6.182  0.00  0.00    +0.090 C 
ENDBRANCH  24  27
ENDBRANCH   2  21
BRANCH   1  29
ATOM     29  C   UNL     1      -1.433  -0.534   0.013  0.00  0.00    +0.109 C 
BRANCH  29  31
ATOM     30  C   UNL     1      -0.019   1.526   0.010  0.00  0.00    +0.005 C 
ATOM     31  C   UNL     1       0.002  -0.004   0.002  0.00  0.00    +0.016 C 
ENDBRANCH  29  31
ENDBRANCH   1  29
TORSDOF 6
