REMARK  Name = ZINC39916790
REMARK  10 active torsions:
REMARK  status: ('A' for Active; 'I' for Inactive)
REMARK    1  A    between atoms: C_1  and  N_2
REMARK    2  A    between atoms: N_2  and  C_3
REMARK    3  A    between atoms: N_2  and  C_4
REMARK    4  A    between atoms: C_4  and  C_5
REMARK    5  A    between atoms: C_5  and  C_6
REMARK    6  A    between atoms: C_6  and  N_7
REMARK    7  A    between atoms: N_7  and  C_8
REMARK    8  A    between atoms: C_8  and  C_10
REMARK    9  A    between atoms: C_8  and  N_14
REMARK   10  A    between atoms: C_15  and  C_17
REMARK                            x       y       z     vdW  Elec       q    Type
REMARK                         _______ _______ _______ _____ _____    ______ ____
ROOT
ATOM      1  N   UNL     1       5.854  -1.739  -3.215  0.00  0.00    -0.292 N 
ATOM      2  C   UNL     1       5.492  -2.984  -3.583  0.00  0.00    +0.252 C 
ATOM      3  O   UNL     1       4.462  -3.159  -4.204  0.00  0.00    -0.270 OA
ATOM      4  H   UNL     1       6.676  -1.600  -2.720  0.00  0.00    +0.151 HD
ENDROOT
BRANCH   2   5
ATOM      5  C   UNL     1       6.345  -4.133  -3.232  0.00  0.00    +0.122 A 
ATOM      6  C   UNL     1       6.001  -5.426  -3.602  0.00  0.00    +0.031 A 
ATOM      7  C   UNL     1       6.857  -6.485  -3.201  0.00  0.00    +0.018 A 
ATOM      8  C   UNL     1       6.674  -7.779  -3.709  0.00  0.00    +0.011 A 
ATOM      9  C   UNL     1       7.531  -8.778  -3.346  0.00  0.00    +0.001 A 
ATOM     10  C   UNL     1       8.579  -8.525  -2.471  0.00  0.00    +0.004 A 
ATOM     11  C   UNL     1       8.765  -7.264  -1.943  0.00  0.00    +0.047 A 
ATOM     12  C   UNL     1       7.902  -6.235  -2.293  0.00  0.00    +0.139 A 
ATOM     13  O   UNL     1       8.049  -5.003  -1.749  0.00  0.00    -0.422 OA
ATOM     14  C   UNL     1       7.600  -3.954  -2.480  0.00  0.00    +0.350 A 
ATOM     15  O   UNL     1       8.209  -2.901  -2.513  0.00  0.00    -0.244 OA
ENDBRANCH   2   5
BRANCH   1  16
ATOM     16  C   UNL     1       5.006  -0.597  -3.564  0.00  0.00    +0.193 C 
BRANCH  16  17
ATOM     17  C   UNL     1       5.878   0.540  -4.100  0.00  0.00    +0.222 C 
ATOM     18 CL   UNL     1       7.064   1.036  -2.836  0.00  0.00    -0.080 Cl
ATOM     19 CL   UNL     1       6.762  -0.021  -5.567  0.00  0.00    -0.080 Cl
ATOM     20 CL   UNL     1       4.834   1.946  -4.529  0.00  0.00    -0.080 Cl
ENDBRANCH  16  17
BRANCH  16  21
ATOM     21  N   UNL     1       4.285  -0.139  -2.368  0.00  0.00    -0.295 NA
ATOM     22  H   UNL     1       4.370   0.860  -2.256  0.00  0.00    +0.124 HD
BRANCH  21  23
ATOM     23  C   UNL     1       2.875  -0.547  -2.416  0.00  0.00    +0.081 C 
BRANCH  23  24
ATOM     24  C   UNL     1       2.159  -0.053  -1.157  0.00  0.00    -0.003 C 
BRANCH  24  25
ATOM     25  C   UNL     1       0.690  -0.478  -1.207  0.00  0.00    -0.078 C 
BRANCH  25  27
ATOM     26  C   UNL     1      -0.018   1.465   0.010  0.00  0.00    -0.097 C 
ATOM     27  N   UNL     1       0.002  -0.004   0.002  0.00  0.00    +0.376 N 
ATOM     28  C   UNL     1      -1.376  -0.512   0.012  0.00  0.00    -0.097 C 
ATOM     29  H   UNL     1       0.490  -0.338   0.820  0.00  0.00    -0.083 HD
ENDBRANCH  25  27
ENDBRANCH  24  25
ENDBRANCH  23  24
ENDBRANCH  21  23
ENDBRANCH  16  21
ENDBRANCH   1  16
TORSDOF 8
