REMARK  Name = ZINC08586256
REMARK  9 active torsions:
REMARK  status: ('A' for Active; 'I' for Inactive)
REMARK    1  A    between atoms: C_1  and  C_2
REMARK    2  A    between atoms: C_9  and  C_13
REMARK    3  A    between atoms: C_10  and  O_12
REMARK    4  A    between atoms: C_13  and  N_60
REMARK    5  A    between atoms: C_14  and  C_15
REMARK    6  A    between atoms: C_14  and  N_60
REMARK    7  A    between atoms: C_21  and  C_22
REMARK    8  A    between atoms: C_21  and  N_60
REMARK    9  A    between atoms: N_26  and  C_27
REMARK                            x       y       z     vdW  Elec       q    Type
REMARK                         _______ _______ _______ _____ _____    ______ ____
ROOT
ATOM      1  N   UNL     1       1.028  -2.336   1.508  0.00  0.00    +0.390 N 
ATOM      2  H   UNL     1       1.673  -1.671   1.951  0.00  0.00    -0.080 HD
ENDROOT
BRANCH   1   3
ATOM      3  C   UNL     1       1.003  -2.084   0.052  0.00  0.00    -0.037 C 
BRANCH   3  12
ATOM      4  C   UNL     1       4.381   4.382  -1.298  0.00  0.00    +0.044 C 
ATOM      5  C   UNL     1       3.136   3.570  -1.048  0.00  0.00    -0.050 A 
ATOM      6  C   UNL     1       1.895   4.203  -1.029  0.00  0.00    +0.005 A 
ATOM      7  C   UNL     1       0.751   3.500  -0.807  0.00  0.00    +0.029 A 
ATOM      8  C   UNL     1       0.817   2.112  -0.592  0.00  0.00    +0.075 A 
ATOM      9  C   UNL     1       2.079   1.470  -0.613  0.00  0.00    +0.001 A 
ATOM     10  C   UNL     1       3.238   2.228  -0.846  0.00  0.00    +0.013 A 
ATOM     11  C   UNL     1       2.144   0.079  -0.400  0.00  0.00    +0.017 A 
ATOM     12  C   UNL     1       0.980  -0.596  -0.180  0.00  0.00    -0.002 A 
ATOM     13  C   UNL     1      -0.236   0.097  -0.172  0.00  0.00    +0.214 A 
ATOM     14  N   UNL     1      -0.292   1.396  -0.372  0.00  0.00    -0.213 NA
BRANCH  13  15
ATOM     15  O   UNL     1      -1.386  -0.588   0.048  0.00  0.00    -0.492 OA
ATOM     16  H   UNL     1      -1.803  -0.924  -0.757  0.00  0.00    +0.294 HD
ENDBRANCH  13  15
ENDBRANCH   3  12
ENDBRANCH   1   3
BRANCH   1  17
ATOM     17  C   UNL     1      -0.324  -2.144   2.077  0.00  0.00    -0.042 C 
BRANCH  17  18
ATOM     18  C   UNL     1      -0.252  -2.314   3.572  0.00  0.00    -0.064 A 
ATOM     19  C   UNL     1      -0.576  -3.529   4.147  0.00  0.00    +0.002 A 
ATOM     20  C   UNL     1      -0.506  -3.686   5.518  0.00  0.00    +0.000 A 
ATOM     21  C   UNL     1      -0.122  -2.624   6.317  0.00  0.00    +0.000 A 
ATOM     22  C   UNL     1       0.197  -1.408   5.743  0.00  0.00    +0.000 A 
ATOM     23  C   UNL     1       0.132  -1.253   4.371  0.00  0.00    +0.002 A 
ENDBRANCH  17  18
ENDBRANCH   1  17
BRANCH   1  24
ATOM     24  C   UNL     1       1.498  -3.711   1.776  0.00  0.00    +0.001 C 
BRANCH  24  25
ATOM     25  C   UNL     1       2.981  -3.775   1.514  0.00  0.00    +0.135 A 
ATOM     26  N   UNL     1       3.562  -4.085   0.381  0.00  0.00    -0.115 NA
ATOM     27  N   UNL     1       4.837  -4.026   0.559  0.00  0.00    -0.023 NA
ATOM     28  N   UNL     1       5.083  -3.695   1.779  0.00  0.00    -0.044 NA
ATOM     29  N   UNL     1       3.964  -3.531   2.400  0.00  0.00    -0.228 N 
BRANCH  29  30
ATOM     30  C   UNL     1       3.796  -3.151   3.804  0.00  0.00    +0.111 C 
ATOM     31  C   UNL     1       4.412  -1.758   4.052  0.00  0.00    +0.027 C 
ATOM     32  C   UNL     1       5.038  -1.867   5.465  0.00  0.00    +0.002 C 
ATOM     33  C   UNL     1       5.605  -3.308   5.479  0.00  0.00    +0.002 C 
ATOM     34  C   UNL     1       4.554  -4.136   4.712  0.00  0.00    +0.027 C 
ENDBRANCH  29  30
ENDBRANCH  24  25
ENDBRANCH   1  24
TORSDOF 8
