REMARK  Name = ZINC01858628
REMARK  9 active torsions:
REMARK  status: ('A' for Active; 'I' for Inactive)
REMARK    1  A    between atoms: C_1  and  O_2
REMARK    2  A    between atoms: O_2  and  C_3
REMARK    3  A    between atoms: C_5  and  C_11
REMARK    4  A    between atoms: C_8  and  O_9
REMARK    5  A    between atoms: N_12  and  N_13
REMARK    6  A    between atoms: C_14  and  C_16
REMARK    7  A    between atoms: C_16  and  S_17
REMARK    8  A    between atoms: S_17  and  C_18
REMARK    9  A    between atoms: N_31  and  C_32
REMARK                            x       y       z     vdW  Elec       q    Type
REMARK                         _______ _______ _______ _____ _____    ______ ____
ROOT
ATOM      1  C   UNL     1     -12.691   0.493  -0.582  0.00  0.00    +0.178 A 
ATOM      2  N   UNL     1     -12.519   1.800  -0.605  0.00  0.00    -0.215 NA
ATOM      3  C   UNL     1     -13.351   2.607   0.043  0.00  0.00    +0.117 A 
ATOM      4  C   UNL     1     -14.445   2.120   0.777  0.00  0.00    +0.076 A 
ATOM      5  C   UNL     1     -15.273   3.131   1.438  0.00  0.00    -0.023 A 
ATOM      6  C   UNL     1     -14.908   4.420   1.278  0.00  0.00    -0.004 A 
ATOM      7  S   UNL     1     -13.463   4.366   0.254  0.00  0.00    -0.073 S 
ATOM      8  C   UNL     1     -15.583   5.631   1.845  0.00  0.00    +0.043 C 
ATOM      9  C   UNL     1     -16.978   5.222   2.339  0.00  0.00    +0.005 C 
ATOM     10  C   UNL     1     -16.848   3.946   3.178  0.00  0.00    +0.005 C 
ATOM     11  C   UNL     1     -16.496   2.765   2.273  0.00  0.00    +0.037 C 
ATOM     12  C   UNL     1     -14.608   0.699   0.785  0.00  0.00    +0.268 A 
ATOM     13  O   UNL     1     -15.530   0.186   1.396  0.00  0.00    -0.267 OA
ATOM     14  N   UNL     1     -13.733  -0.064   0.105  0.00  0.00    -0.255 N 
ENDROOT
BRANCH  14  15
ATOM     15  C   UNL     1     -13.890  -1.456   0.104  0.00  0.00    +0.052 A 
ATOM     16  C   UNL     1     -14.656  -2.070  -0.879  0.00  0.00    +0.026 A 
ATOM     17  C   UNL     1     -14.808  -3.443  -0.877  0.00  0.00    +0.002 A 
ATOM     18  C   UNL     1     -14.200  -4.206   0.103  0.00  0.00    +0.000 A 
ATOM     19  C   UNL     1     -13.437  -3.598   1.083  0.00  0.00    +0.002 A 
ATOM     20  C   UNL     1     -13.276  -2.226   1.083  0.00  0.00    +0.026 A 
ENDBRANCH  14  15
BRANCH   1  21
ATOM     21  S   UNL     1     -11.567  -0.547  -1.452  0.00  0.00    -0.078 S 
BRANCH  21  22
ATOM     22  C   UNL     1     -10.381   0.609  -2.191  0.00  0.00    +0.174 C 
BRANCH  22  24
ATOM     23  N   UNL     1      -8.361   0.494  -3.616  0.00  0.00    -0.206 N 
ATOM     24  C   UNL     1      -9.350  -0.162  -2.975  0.00  0.00    +0.242 C 
ATOM     25  O   UNL     1      -9.409  -1.372  -3.030  0.00  0.00    -0.273 OA
ATOM     26  H   UNL     1      -8.314   1.462  -3.572  0.00  0.00    +0.177 HD
BRANCH  23  28
ATOM     27  C   UNL     1      -6.452   0.409  -4.961  0.00  0.00    +0.138 C 
ATOM     28  N   UNL     1      -7.403  -0.223  -4.344  0.00  0.00    -0.188 NA
BRANCH  27  31
ATOM     29  C   UNL     1      -3.474  -0.379  -7.110  0.00  0.00    +0.163 A 
ATOM     30  C   UNL     1      -4.418   0.333  -6.392  0.00  0.00    +0.059 A 
ATOM     31  C   UNL     1      -5.443  -0.345  -5.728  0.00  0.00    -0.001 A 
ATOM     32  C   UNL     1      -5.510  -1.739  -5.792  0.00  0.00    +0.028 A 
ATOM     33  C   UNL     1      -4.565  -2.443  -6.509  0.00  0.00    +0.063 A 
ATOM     34  C   UNL     1      -3.550  -1.768  -7.174  0.00  0.00    +0.173 A 
ATOM     35 BR   UNL     1      -4.657  -4.330  -6.595  0.00  0.00    -0.046 Br
BRANCH  29  37
ATOM     36  C   UNL     1      -2.459   1.703  -7.649  0.00  0.00    +0.277 C 
ATOM     37  O   UNL     1      -2.475   0.279  -7.757  0.00  0.00    -0.491 OA
ENDBRANCH  29  37
BRANCH  34  38
ATOM     38  O   UNL     1      -2.624  -2.465  -7.885  0.00  0.00    -0.503 OA
ATOM     39  H   UNL     1      -1.849  -2.728  -7.370  0.00  0.00    +0.292 HD
ENDBRANCH  34  38
ENDBRANCH  27  31
ENDBRANCH  23  28
ENDBRANCH  22  24
ENDBRANCH  21  22
ENDBRANCH   1  21
TORSDOF 8
