REMARK  Name = ZINC34945783
REMARK  10 active torsions:
REMARK  status: ('A' for Active; 'I' for Inactive)
REMARK    1  A    between atoms: C_1  and  C_2
REMARK    2  A    between atoms: C_2  and  C_4
REMARK    3  A    between atoms: C_2  and  N_10
REMARK    4  A    between atoms: C_11  and  C_13
REMARK    5  A    between atoms: C_13  and  C_14
REMARK    6  A    between atoms: C_14  and  N_15
REMARK    7  A    between atoms: N_15  and  C_16
REMARK    8  A    between atoms: C_16  and  C_18
REMARK    9  A    between atoms: C_16  and  C_19
REMARK   10  A    between atoms: N_27  and  C_28
REMARK                            x       y       z     vdW  Elec       q    Type
REMARK                         _______ _______ _______ _____ _____    ______ ____
ROOT
ATOM      1  N   UNL     1       0.219  -1.608  -6.214  0.00  0.00    -0.278 N 
ATOM      2  C   UNL     1       0.797  -0.786  -7.112  0.00  0.00    +0.307 C 
ATOM      3  O   UNL     1       0.579   0.410  -7.071  0.00  0.00    -0.252 OA
ATOM      4  N   UNL     1       1.615  -1.289  -8.058  0.00  0.00    -0.268 N 
ATOM      5  H   UNL     1       1.726  -2.249  -8.142  0.00  0.00    +0.156 HD
ENDROOT
BRANCH   4   6
ATOM      6  C   UNL     1       2.305  -0.427  -8.917  0.00  0.00    +0.049 A 
ATOM      7  C   UNL     1       2.427   0.920  -8.601  0.00  0.00    +0.024 A 
ATOM      8  C   UNL     1       3.110   1.768  -9.451  0.00  0.00    +0.002 A 
ATOM      9  C   UNL     1       3.671   1.278 -10.616  0.00  0.00    +0.001 A 
ATOM     10  C   UNL     1       3.552  -0.062 -10.934  0.00  0.00    +0.017 A 
ATOM     11  C   UNL     1       2.875  -0.917 -10.085  0.00  0.00    +0.039 A 
ATOM     12 BR   UNL     1       2.718  -2.752 -10.518  0.00  0.00    -0.048 Br
ENDBRANCH   4   6
BRANCH   1  13
ATOM     13  C   UNL     1       0.570  -3.030  -6.191  0.00  0.00    +0.105 C 
ATOM     14  C   UNL     1      -0.124  -3.707  -5.007  0.00  0.00    +0.033 C 
BRANCH  13  15
ATOM     15  C   UNL     1       0.120  -3.679  -7.474  0.00  0.00    -0.027 A 
ATOM     16  C   UNL     1      -1.105  -3.347  -8.024  0.00  0.00    +0.005 A 
ATOM     17  C   UNL     1      -1.518  -3.942  -9.202  0.00  0.00    +0.000 A 
ATOM     18  C   UNL     1      -0.706  -4.869  -9.830  0.00  0.00    +0.000 A 
ATOM     19  C   UNL     1       0.519  -5.199  -9.280  0.00  0.00    +0.000 A 
ATOM     20  C   UNL     1       0.934  -4.601  -8.105  0.00  0.00    +0.005 A 
ENDBRANCH  13  15
ENDBRANCH   1  13
BRANCH   1  21
ATOM     21  C   UNL     1      -0.758  -1.079  -5.259  0.00  0.00    +0.119 C 
BRANCH  21  22
ATOM     22  C   UNL     1      -0.027  -0.523  -4.036  0.00  0.00    +0.115 C 
BRANCH  22  24
ATOM     23  N   UNL     1      -0.615   0.565  -1.893  0.00  0.00    -0.309 N 
ATOM     24  C   UNL     1      -1.033   0.021  -3.054  0.00  0.00    +0.215 C 
ATOM     25  O   UNL     1      -2.217  -0.030  -3.308  0.00  0.00    -0.276 OA
ATOM     26  H   UNL     1       0.332   0.607  -1.690  0.00  0.00    +0.149 HD
BRANCH  23  28
ATOM     27  C   UNL     1      -1.947   2.534  -1.317  0.00  0.00    +0.033 C 
ATOM     28  C   UNL     1      -1.593   1.095  -0.939  0.00  0.00    +0.100 C 
BRANCH  28  29
ATOM     29  C   UNL     1      -1.005   1.069   0.448  0.00  0.00    -0.027 A 
ATOM     30  C   UNL     1       0.319   1.415   0.644  0.00  0.00    +0.005 A 
ATOM     31  C   UNL     1       0.858   1.392   1.917  0.00  0.00    +0.000 A 
ATOM     32  C   UNL     1       0.074   1.024   2.993  0.00  0.00    +0.000 A 
ATOM     33  C   UNL     1      -1.250   0.679   2.797  0.00  0.00    +0.000 A 
ATOM     34  C   UNL     1      -1.791   0.706   1.526  0.00  0.00    +0.005 A 
ENDBRANCH  28  29
ENDBRANCH  23  28
ENDBRANCH  22  24
ENDBRANCH  21  22
ENDBRANCH   1  21
TORSDOF 8
