REMARK  Name = ZINC03225898
REMARK  6 active torsions:
REMARK  status: ('A' for Active; 'I' for Inactive)
REMARK    1  A    between atoms: C_1  and  O_2
REMARK    2  A    between atoms: O_2  and  C_3
REMARK    3  A    between atoms: C_8  and  C_9
REMARK    4  A    between atoms: C_14  and  C_26
REMARK    5  A    between atoms: C_15  and  S_22
REMARK    6  A    between atoms: S_22  and  N_25
REMARK                            x       y       z     vdW  Elec       q    Type
REMARK                         _______ _______ _______ _____ _____    ______ ____
ROOT
ATOM      1  C   UNL     1      -1.306   1.641   0.017  0.00  0.00    +0.194 C 
ATOM      2  N   UNL     1      -0.011   0.966   0.007  0.00  0.00    -0.322 N 
ATOM      3  C   UNL     1       1.205   1.643  -0.001  0.00  0.00    +0.056 A 
ATOM      4  C   UNL     1       2.340   0.982  -0.468  0.00  0.00    +0.039 A 
ATOM      5  C   UNL     1       3.562   1.619  -0.474  0.00  0.00    +0.083 A 
ATOM      6  C   UNL     1       3.673   2.919  -0.013  0.00  0.00    +0.119 A 
ATOM      7  C   UNL     1       2.551   3.584   0.447  0.00  0.00    +0.059 A 
ATOM      8  C   UNL     1       1.325   2.953   0.445  0.00  0.00    +0.128 A 
ATOM      9  S   UNL     1      -0.113   3.820   0.996  0.00  0.00    +0.062 S 
ATOM     10  O   UNL     1       0.151   4.263   2.320  0.00  0.00    -0.153 OA
ATOM     11  O   UNL     1      -0.491   4.704  -0.050  0.00  0.00    -0.153 OA
ATOM     12  N   UNL     1      -1.300   2.652   1.101  0.00  0.00    -0.166 NA
ATOM     13  H   UNL     1       0.002  -0.004   0.002  0.00  0.00    +0.148 HD
ATOM     14  H   UNL     1      -1.946   2.638   1.824  0.00  0.00    +0.150 HD
ENDROOT
BRANCH   1  20
ATOM     15  C   UNL     1      -2.383   3.411  -1.395  0.00  0.00    +0.126 A 
ATOM     16  C   UNL     1      -2.591   4.032  -2.618  0.00  0.00    +0.047 A 
ATOM     17  C   UNL     1      -1.951   3.561  -3.748  0.00  0.00    +0.019 A 
ATOM     18  C   UNL     1      -1.105   2.470  -3.661  0.00  0.00    +0.018 A 
ATOM     19  C   UNL     1      -0.892   1.853  -2.442  0.00  0.00    +0.025 A 
ATOM     20  C   UNL     1      -1.534   2.318  -1.310  0.00  0.00    +0.031 A 
ATOM     21 BR   UNL     1      -0.231   1.827  -5.210  0.00  0.00    -0.050 Br
BRANCH  15  23
ATOM     22  C   UNL     1      -3.872   5.003  -0.444  0.00  0.00    +0.277 C 
ATOM     23  O   UNL     1      -3.011   3.873  -0.282  0.00  0.00    -0.495 OA
ENDBRANCH  15  23
ENDBRANCH   1  20
BRANCH   5  24
ATOM     24  C   UNL     1       4.783   0.897  -0.982  0.00  0.00    +0.419 C 
ATOM     25  F   UNL     1       4.426  -0.393  -1.390  0.00  0.00    -0.166 F 
ATOM     26  F   UNL     1       5.321   1.597  -2.068  0.00  0.00    -0.166 F 
ATOM     27  F   UNL     1       5.737   0.817   0.038  0.00  0.00    -0.166 F 
ENDBRANCH   5  24
BRANCH   6  28
ATOM     28  S   UNL     1       5.240   3.725  -0.012  0.00  0.00    +0.057 S 
ATOM     29  O   UNL     1       5.800   3.526  -1.303  0.00  0.00    -0.153 OA
ATOM     30  O   UNL     1       5.031   5.019   0.536  0.00  0.00    -0.153 OA
BRANCH  28  31
ATOM     31  N   UNL     1       6.209   2.910   1.055  0.00  0.00    -0.203 NA
ATOM     32  H   UNL     1       5.863   2.141   1.535  0.00  0.00    +0.144 HD
ATOM     33  H   UNL     1       7.123   3.201   1.201  0.00  0.00    +0.144 HD
ENDBRANCH  28  31
ENDBRANCH   6  28
TORSDOF 5
