REMARK  Name = ZINC11867323
REMARK  8 active torsions:
REMARK  status: ('A' for Active; 'I' for Inactive)
REMARK    1  A    between atoms: C_1  and  C_2
REMARK    2  A    between atoms: C_2  and  C_3
REMARK    3  A    between atoms: C_8  and  C_28
REMARK    4  A    between atoms: C_12  and  C_15
REMARK    5  A    between atoms: C_13  and  O_14
REMARK    6  A    between atoms: C_15  and  N_60
REMARK    7  A    between atoms: C_19  and  C_22
REMARK    8  A    between atoms: C_30  and  C_33
REMARK                            x       y       z     vdW  Elec       q    Type
REMARK                         _______ _______ _______ _____ _____    ______ ____
ROOT
ATOM      1  C   UNL     1      -3.799   5.082   2.396  0.00  0.00    -0.005 A 
ATOM      2  C   UNL     1      -2.771   5.687   3.061  0.00  0.00    +0.022 A 
ATOM      3  C   UNL     1      -1.724   4.916   3.567  0.00  0.00    +0.065 A 
ATOM      4  C   UNL     1      -0.598   5.535   4.290  0.00  0.00    +0.202 A 
ATOM      5  O   UNL     1      -0.540   6.739   4.471  0.00  0.00    -0.286 OA
ATOM      6  C   UNL     1       0.454   4.627   4.782  0.00  0.00    +0.089 A 
ATOM      7  C   UNL     1       0.328   3.293   4.546  0.00  0.00    +0.210 A 
ATOM      8  O   UNL     1      -0.711   2.776   3.887  0.00  0.00    -0.462 OA
ATOM      9  C   UNL     1      -1.724   3.519   3.401  0.00  0.00    +0.143 A 
ATOM     10  C   UNL     1      -2.774   2.921   2.718  0.00  0.00    +0.021 A 
ATOM     11  C   UNL     1      -3.806   3.700   2.221  0.00  0.00    +0.125 A 
ENDROOT
BRANCH   6  12
ATOM     12  C   UNL     1       1.621   5.156   5.517  0.00  0.00    +0.115 A 
ATOM     13  N   UNL     1       2.654   4.505   6.037  0.00  0.00    -0.244 NA
ATOM     14  C   UNL     1       3.616   5.144   6.662  0.00  0.00    +0.046 A 
ATOM     15  C   UNL     1       3.558   6.495   6.795  0.00  0.00    +0.070 A 
ATOM     16  S   UNL     1       2.019   6.843   5.953  0.00  0.00    -0.075 S 
ATOM     17  C   UNL     1       4.780   4.379   7.238  0.00  0.00    +0.066 C 
ENDBRANCH   6  12
BRANCH   1  19
ATOM     18  C   UNL     1      -6.080   5.937   2.858  0.00  0.00    +0.009 C 
ATOM     19  C   UNL     1      -4.930   5.913   1.849  0.00  0.00    +0.035 C 
ENDBRANCH   1  19
BRANCH  11  20
ATOM     20  O   UNL     1      -4.834   3.111   1.559  0.00  0.00    -0.506 OA
ATOM     21  H   UNL     1      -5.569   2.847   2.128  0.00  0.00    +0.292 HD
ENDBRANCH  11  20
BRANCH  10  22
ATOM     22  C   UNL     1      -2.794   1.427   2.523  0.00  0.00    -0.036 C 
BRANCH  22  28
ATOM     23  C   UNL     1      -2.861   1.601   0.109  0.00  0.00    -0.078 C 
ATOM     24  C   UNL     1      -2.206   1.108  -1.183  0.00  0.00    -0.018 C 
ATOM     25  C   UNL     1      -0.755   1.594  -1.231  0.00  0.00    +0.004 C 
ATOM     26  C   UNL     1      -0.013   1.086   0.008  0.00  0.00    +0.004 C 
ATOM     27  C   UNL     1      -0.731   1.580   1.266  0.00  0.00    -0.070 C 
ATOM     28  N   UNL     1      -2.114   1.058   1.264  0.00  0.00    +0.383 N 
ATOM     29  H   UNL     1      -2.084   0.034   1.189  0.00  0.00    -0.081 HD
BRANCH  26  30
ATOM     30  C   UNL     1       1.401   1.608  -0.003  0.00  0.00    -0.028 A 
ATOM     31  C   UNL     1       2.474   0.730  -0.018  0.00  0.00    +0.007 A 
ATOM     32  C   UNL     1       3.757   1.256  -0.027  0.00  0.00    +0.020 A 
ATOM     33  C   UNL     1       3.922   2.628  -0.021  0.00  0.00    +0.111 A 
ATOM     34  N   UNL     1       2.878   3.433  -0.007  0.00  0.00    -0.263 NA
ATOM     35  C   UNL     1       1.644   2.969  -0.003  0.00  0.00    +0.114 A 
ENDBRANCH  26  30
ENDBRANCH  22  28
ENDBRANCH  10  22
TORSDOF 6
