REMARK  Name = ZINC39534112
REMARK  8 active torsions:
REMARK  status: ('A' for Active; 'I' for Inactive)
REMARK    1  A    between atoms: C_4  and  C_7
REMARK    2  A    between atoms: C_7  and  N_8
REMARK    3  A    between atoms: N_8  and  C_9
REMARK    4  A    between atoms: C_9  and  C_10
REMARK    5  A    between atoms: C_10  and  C_12
REMARK    6  A    between atoms: C_10  and  N_25
REMARK    7  A    between atoms: C_15  and  C_18
REMARK    8  A    between atoms: C_23  and  O_24
REMARK                            x       y       z     vdW  Elec       q    Type
REMARK                         _______ _______ _______ _____ _____    ______ ____
ROOT
ATOM      1  C   UNL     1       5.862  -1.907   2.814  0.00  0.00    -0.023 C 
ENDROOT
BRANCH   1   2
ATOM      2  N   UNL     1       4.744  -2.497   3.563  0.00  0.00    +0.387 N 
ATOM      3  C   UNL     1       3.560  -1.638   3.432  0.00  0.00    -0.062 C 
ATOM      4  C   UNL     1       2.390  -2.262   4.197  0.00  0.00    +0.063 C 
ATOM      5  N   UNL     1       2.756  -2.408   5.612  0.00  0.00    -0.308 NA
ATOM      6  C   UNL     1       3.955  -3.246   5.757  0.00  0.00    +0.105 C 
ATOM      7  C   UNL     1       5.112  -2.614   4.980  0.00  0.00    -0.047 C 
ATOM      8 BR   UNL     1       4.437  -3.379   7.659  0.00  0.00    -0.073 Br
ATOM      9  H   UNL     1       2.890  -1.508   6.047  0.00  0.00    +0.123 HD
ATOM     10  H   UNL     1       4.537  -3.413   3.192  0.00  0.00    -0.081 HD
ENDBRANCH   1   2
BRANCH   1  11
ATOM     11  C   UNL     1       7.114  -2.705   3.070  0.00  0.00    -0.060 A 
ATOM     12  C   UNL     1       7.052  -4.085   3.132  0.00  0.00    +0.002 A 
ATOM     13  C   UNL     1       8.196  -4.821   3.367  0.00  0.00    +0.009 A 
ATOM     14  C   UNL     1       9.416  -4.170   3.542  0.00  0.00    -0.014 A 
ATOM     15  C   UNL     1       9.473  -2.779   3.478  0.00  0.00    +0.009 A 
ATOM     16  C   UNL     1       8.323  -2.054   3.237  0.00  0.00    +0.002 A 
BRANCH  14  17
ATOM     17  C   UNL     1      10.649  -4.955   3.795  0.00  0.00    +0.024 A 
ATOM     18  C   UNL     1      10.663  -5.936   4.783  0.00  0.00    +0.012 A 
ATOM     19  C   UNL     1      11.812  -6.664   5.015  0.00  0.00    +0.001 A 
ATOM     20  C   UNL     1      12.952  -6.422   4.269  0.00  0.00    +0.004 A 
ATOM     21  C   UNL     1      12.950  -5.450   3.287  0.00  0.00    +0.046 A 
ATOM     22  C   UNL     1      11.800  -4.716   3.039  0.00  0.00    +0.125 A 
BRANCH  22  23
ATOM     23  O   UNL     1      11.795  -3.765   2.070  0.00  0.00    -0.506 OA
ATOM     24  H   UNL     1      12.056  -2.886   2.379  0.00  0.00    +0.292 HD
ENDBRANCH  22  23
ENDBRANCH  14  17
ENDBRANCH   1  11
BRANCH   1  25
ATOM     25  C   UNL     1       5.541  -1.929   1.318  0.00  0.00    +0.070 C 
BRANCH  25  26
ATOM     26  N   UNL     1       4.422  -1.017   1.044  0.00  0.00    -0.313 NA
ATOM     27  H   UNL     1       4.627  -0.085   1.371  0.00  0.00    +0.122 HD
BRANCH  26  28
ATOM     28  C   UNL     1       4.085  -1.011  -0.386  0.00  0.00    +0.116 C 
BRANCH  28  32
ATOM     29  C   UNL     1       0.828   1.665  -1.073  0.00  0.00    +0.000 A 
ATOM     30  C   UNL     1       2.128   2.128  -1.139  0.00  0.00    +0.000 A 
ATOM     31  C   UNL     1       3.182   1.262  -0.917  0.00  0.00    +0.005 A 
ATOM     32  C   UNL     1       2.936  -0.067  -0.627  0.00  0.00    -0.034 A 
ATOM     33  C   UNL     1       1.635  -0.530  -0.560  0.00  0.00    +0.005 A 
ATOM     34  C   UNL     1       0.581   0.336  -0.784  0.00  0.00    +0.000 A 
ENDBRANCH  28  32
ENDBRANCH  26  28
ENDBRANCH  25  26
ENDBRANCH   1  25
TORSDOF 8
