REMARK  Name = ZINC13417646
REMARK  6 active torsions:
REMARK  status: ('A' for Active; 'I' for Inactive)
REMARK    1  A    between atoms: C_1  and  C_2
REMARK    2  A    between atoms: N_7  and  C_10
REMARK    3  A    between atoms: C_10  and  C_11
REMARK    4  A    between atoms: C_11  and  O_12
REMARK    5  A    between atoms: O_12  and  C_13
REMARK    6  A    between atoms: C_21  and  C_22
REMARK                            x       y       z     vdW  Elec       q    Type
REMARK                         _______ _______ _______ _____ _____    ______ ____
ROOT
ATOM      1  C   UNL     1       0.374   4.410   0.021  0.00  0.00    +0.046 C 
ATOM      2  C   UNL     1       1.524   3.437   0.005  0.00  0.00    -0.015 A 
ATOM      3  C   UNL     1       1.278   2.062   0.001  0.00  0.00    +0.076 A 
ATOM      4  C   UNL     1       2.422   1.232  -0.015  0.00  0.00    +0.116 A 
ATOM      5  N   UNL     1       2.327  -0.091  -0.021  0.00  0.00    -0.230 NA
ATOM      6  C   UNL     1       1.169  -0.694  -0.013  0.00  0.00    +0.203 A 
ATOM      7  N   UNL     1       0.002  -0.004   0.002  0.00  0.00    -0.295 N 
ATOM      8  C   UNL     1      -0.016   1.343   0.009  0.00  0.00    +0.263 A 
ATOM      9  O   UNL     1      -1.070   1.954   0.018  0.00  0.00    -0.267 OA
ATOM     10  S   UNL     1       3.767   2.391  -0.021  0.00  0.00    -0.062 S 
ATOM     11  C   UNL     1       2.809   3.897  -0.005  0.00  0.00    +0.106 A 
ENDROOT
BRANCH  11  12
ATOM     12  C   UNL     1       3.284   5.282  -0.003  0.00  0.00    +0.393 C 
ATOM     13  O   UNL     1       2.485   6.199   0.009  0.00  0.00    -0.240 OA
ATOM     14  O   UNL     1       4.608   5.541  -0.014  0.00  0.00    -0.240 OA
ENDBRANCH  11  12
BRANCH   7  15
ATOM     15  C   UNL     1      -1.265  -0.739   0.011  0.00  0.00    +0.167 C 
BRANCH  15  16
ATOM     16  C   UNL     1      -1.721  -0.987  -1.429  0.00  0.00    +0.250 C 
BRANCH  16  17
ATOM     17  O   UNL     1      -0.788  -1.850  -2.082  0.00  0.00    -0.490 OA
BRANCH  17  18
ATOM     18  C   UNL     1      -1.047  -2.172  -3.376  0.00  0.00    +0.121 A 
ATOM     19  C   UNL     1      -2.179  -1.673  -4.003  0.00  0.00    +0.047 A 
ATOM     20  C   UNL     1      -2.438  -1.996  -5.321  0.00  0.00    +0.019 A 
ATOM     21  C   UNL     1      -1.575  -2.828  -6.012  0.00  0.00    +0.018 A 
ATOM     22  C   UNL     1      -0.448  -3.333  -5.387  0.00  0.00    +0.019 A 
ATOM     23  C   UNL     1      -0.183  -3.006  -4.071  0.00  0.00    +0.047 A 
ATOM     24 BR   UNL     1      -1.934  -3.276  -7.814  0.00  0.00    -0.050 Br
ENDBRANCH  17  18
ENDBRANCH  16  17
ENDBRANCH  15  16
ENDBRANCH   7  15
TORSDOF 5
