REMARK  Name = ZINC38934584
REMARK  4 active torsions:
REMARK  status: ('A' for Active; 'I' for Inactive)
REMARK    1  A    between atoms: C_5  and  C_6
REMARK    2  A    between atoms: C_12  and  C_14
REMARK    3  A    between atoms: N_19  and  S_20
REMARK    4  A    between atoms: S_20  and  C_23
REMARK                            x       y       z     vdW  Elec       q    Type
REMARK                         _______ _______ _______ _____ _____    ______ ____
ROOT
ATOM      1  C   UNL     1      -1.176  -0.883   0.009  0.00  0.00    +0.285 A 
ATOM      2  N   UNL     1      -2.433  -0.501   0.018  0.00  0.00    -0.103 NA
ATOM      3  N   UNL     1      -3.194  -1.538   0.022  0.00  0.00    -0.092 NA
ATOM      4  C   UNL     1      -2.457  -2.622   0.016  0.00  0.00    +0.315 A 
ATOM      5  O   UNL     1      -1.167  -2.235   0.002  0.00  0.00    -0.402 OA
ATOM      6  N   UNL     1      -2.920  -3.928   0.018  0.00  0.00    -0.237 N 
ATOM      7  C   UNL     1      -4.245  -4.173   0.026  0.00  0.00    +0.239 C 
ATOM      8  O   UNL     1      -5.032  -3.251   0.031  0.00  0.00    -0.274 OA
ATOM      9  H   UNL     1      -2.291  -4.666   0.013  0.00  0.00    +0.159 HD
ENDROOT
BRANCH   1  14
ATOM     10  C   UNL     1      -0.016   1.359   0.009  0.00  0.00    +0.056 A 
ATOM     11  C   UNL     1       1.326   1.783  -0.001  0.00  0.00    +0.058 A 
ATOM     12  C   UNL     1       2.092   0.672  -0.014  0.00  0.00    +0.171 A 
ATOM     13  O   UNL     1       1.289  -0.405  -0.012  0.00  0.00    -0.443 OA
ATOM     14  C   UNL     1       0.002  -0.004   0.002  0.00  0.00    +0.192 A 
ATOM     15 BR   UNL     1       3.982   0.637  -0.034  0.00  0.00    -0.008 Br
ENDBRANCH   1  14
BRANCH   7  16
ATOM     16  C   UNL     1      -4.749  -5.593   0.028  0.00  0.00    +0.166 C 
ATOM     17  C   UNL     1      -4.285  -6.317  -1.254  0.00  0.00    +0.031 C 
ATOM     18  C   UNL     1      -5.513  -7.190  -1.625  0.00  0.00    +0.019 C 
ATOM     19  C   UNL     1      -6.686  -6.271  -1.203  0.00  0.00    +0.110 C 
ATOM     20  N   UNL     1      -6.219  -5.603   0.029  0.00  0.00    -0.164 NA
BRANCH  20  21
ATOM     21  S   UNL     1      -7.187  -4.969   1.214  0.00  0.00    +0.068 S 
ATOM     22  O   UNL     1      -8.432  -5.649   1.129  0.00  0.00    -0.152 OA
ATOM     23  O   UNL     1      -6.411  -4.947   2.404  0.00  0.00    -0.152 OA
BRANCH  21  24
ATOM     24  C   UNL     1      -7.502  -3.289   0.787  0.00  0.00    +0.144 A 
ATOM     25  C   UNL     1      -8.511  -2.771   0.046  0.00  0.00    +0.038 A 
ATOM     26  C   UNL     1      -8.559  -1.405  -0.162  0.00  0.00    +0.030 A 
ATOM     27  C   UNL     1      -7.593  -0.624   0.383  0.00  0.00    +0.080 A 
ATOM     28  S   UNL     1      -6.577  -1.826   1.226  0.00  0.00    -0.057 S 
ATOM     29 CL   UNL     1      -7.398   1.099   0.289  0.00  0.00    -0.076 Cl
ENDBRANCH  21  24
ENDBRANCH  20  21
ENDBRANCH   7  16
TORSDOF 4
