REMARK  Name = ZINC63552665
REMARK  7 active torsions:
REMARK  status: ('A' for Active; 'I' for Inactive)
REMARK    1  A    between atoms: C_6  and  S_10
REMARK    2  A    between atoms: S_10  and  C_11
REMARK    3  A    between atoms: C_11  and  C_12
REMARK    4  A    between atoms: N_14  and  C_15
REMARK    5  A    between atoms: C_15  and  C_16
REMARK    6  A    between atoms: C_19  and  S_22
REMARK    7  A    between atoms: S_22  and  N_25
REMARK                            x       y       z     vdW  Elec       q    Type
REMARK                         _______ _______ _______ _____ _____    ______ ____
ROOT
ATOM      1  C   UNL     1       3.395  -2.604   4.122  0.00  0.00    +0.223 C 
ATOM      2  O   UNL     1       4.085  -3.602   4.121  0.00  0.00    -0.275 OA
ATOM      3  N   UNL     1       3.003  -2.057   5.289  0.00  0.00    -0.311 N 
ATOM      4  H   UNL     1       2.452  -1.259   5.290  0.00  0.00    +0.149 HD
ENDROOT
BRANCH   1   5
ATOM      5  C   UNL     1       2.977  -1.976   2.817  0.00  0.00    +0.168 C 
BRANCH   5   6
ATOM      6  S   UNL     1       3.658  -2.937   1.437  0.00  0.00    -0.106 S 
BRANCH   6  12
ATOM      7  C   UNL     1      -0.016   1.344   0.009  0.00  0.00    +0.002 A 
ATOM      8  C   UNL     1       1.158   2.118   0.002  0.00  0.00    +0.002 A 
ATOM      9  C   UNL     1       2.389   1.570  -0.013  0.00  0.00    +0.027 A 
ATOM     10  C   UNL     1       2.533   0.108  -0.022  0.00  0.00    +0.061 A 
ATOM     11  N   UNL     1       3.569  -0.680  -0.036  0.00  0.00    -0.355 N 
ATOM     12  C   UNL     1       3.071  -2.062  -0.039  0.00  0.00    +0.236 C 
ATOM     13  N   UNL     1       1.606  -1.974  -0.024  0.00  0.00    -0.355 N 
ATOM     14  C   UNL     1       1.290  -0.712  -0.014  0.00  0.00    +0.061 A 
ATOM     15  C   UNL     1       0.002  -0.004   0.002  0.00  0.00    +0.027 A 
ATOM     16  H   UNL     1       4.499  -0.405  -0.045  0.00  0.00    +0.162 HD
ATOM     17  H   UNL     1       0.987  -2.721  -0.022  0.00  0.00    +0.162 HD
ENDBRANCH   6  12
ENDBRANCH   5   6
ENDBRANCH   1   5
BRANCH   3  18
ATOM     18  C   UNL     1       3.409  -2.668   6.557  0.00  0.00    +0.139 C 
BRANCH  18  19
ATOM     19  C   UNL     1       2.844  -1.870   7.703  0.00  0.00    -0.030 A 
ATOM     20  C   UNL     1       3.567  -0.820   8.238  0.00  0.00    +0.007 A 
ATOM     21  C   UNL     1       3.048  -0.087   9.289  0.00  0.00    +0.029 A 
ATOM     22  C   UNL     1       1.806  -0.405   9.806  0.00  0.00    +0.105 A 
ATOM     23  C   UNL     1       1.082  -1.455   9.271  0.00  0.00    +0.029 A 
ATOM     24  C   UNL     1       1.599  -2.184   8.217  0.00  0.00    +0.007 A 
BRANCH  22  25
ATOM     25  S   UNL     1       1.145   0.528  11.147  0.00  0.00    +0.056 S 
ATOM     26  O   UNL     1       0.207  -0.314  11.804  0.00  0.00    -0.153 OA
ATOM     27  O   UNL     1       2.252   1.108  11.822  0.00  0.00    -0.153 OA
BRANCH  25  28
ATOM     28  N   UNL     1       0.280   1.780  10.493  0.00  0.00    -0.204 NA
ATOM     29  H   UNL     1      -0.486   2.139  10.967  0.00  0.00    +0.144 HD
ATOM     30  H   UNL     1       0.539   2.153   9.636  0.00  0.00    +0.144 HD
ENDBRANCH  25  28
ENDBRANCH  22  25
ENDBRANCH  18  19
ENDBRANCH   3  18
TORSDOF 7
