REMARK  Name = ZINC47772479
REMARK  9 active torsions:
REMARK  status: ('A' for Active; 'I' for Inactive)
REMARK    1  A    between atoms: C_1  and  C_2
REMARK    2  A    between atoms: N_4  and  C_5
REMARK    3  A    between atoms: C_5  and  C_6
REMARK    4  A    between atoms: N_9  and  C_12
REMARK    5  A    between atoms: C_12  and  C_13
REMARK    6  A    between atoms: N_18  and  C_19
REMARK    7  A    between atoms: C_19  and  C_20
REMARK    8  A    between atoms: C_19  and  C_21
REMARK    9  A    between atoms: C_19  and  C_22
REMARK                            x       y       z     vdW  Elec       q    Type
REMARK                         _______ _______ _______ _____ _____    ______ ____
ROOT
ATOM      1  C   UNL     1       0.013  -2.639  -2.622  0.00  0.00    +0.003 C 
ATOM      2  C   UNL     1      -1.311  -2.257  -3.291  0.00  0.00    -0.014 C 
ATOM      3  C   UNL     1      -1.344  -2.831  -4.709  0.00  0.00    -0.078 C 
ATOM      4  N   UNL     1      -1.226  -4.293  -4.652  0.00  0.00    +0.385 N 
ATOM      5  C   UNL     1       0.072  -4.666  -4.078  0.00  0.00    -0.078 C 
ATOM      6  C   UNL     1       0.160  -4.163  -2.635  0.00  0.00    -0.014 C 
ATOM      7  H   UNL     1      -1.967  -4.667  -4.078  0.00  0.00    -0.081 HD
ENDROOT
BRANCH   1   8
ATOM      8  C   UNL     1       0.020  -2.136  -1.177  0.00  0.00    +0.107 C 
BRANCH   8  12
ATOM      9  C   UNL     1      -0.018   1.503   0.010  0.00  0.00    +0.109 C 
ATOM     10  C   UNL     1       0.002  -0.004   0.002  0.00  0.00    +0.210 C 
ATOM     11  O   UNL     1       0.020  -0.616   1.049  0.00  0.00    -0.276 OA
ATOM     12  N   UNL     1       0.000  -0.672  -1.169  0.00  0.00    -0.315 N 
ATOM     13  H   UNL     1      -0.015  -0.182  -2.006  0.00  0.00    +0.149 HD
ENDBRANCH   8  12
ENDBRANCH   1   8
BRANCH   4  14
ATOM     14  C   UNL     1      -1.336  -4.844  -6.009  0.00  0.00    +0.019 C 
BRANCH  14  15
ATOM     15  C   UNL     1      -1.339  -6.350  -5.941  0.00  0.00    +0.204 C 
ATOM     16  O   UNL     1      -1.257  -6.908  -4.868  0.00  0.00    -0.277 OA
ATOM     17  N   UNL     1      -1.432  -7.075  -7.072  0.00  0.00    -0.242 N 
ATOM     18  C   UNL     1      -1.435  -8.422  -7.011  0.00  0.00    +0.306 C 
ATOM     19  O   UNL     1      -1.353  -8.982  -5.936  0.00  0.00    -0.252 OA
ATOM     20  N   UNL     1      -1.528  -9.148  -8.143  0.00  0.00    -0.294 N 
ATOM     21  H   UNL     1      -1.498  -6.629  -7.931  0.00  0.00    +0.159 HD
ATOM     22  H   UNL     1      -1.594  -8.701  -9.002  0.00  0.00    +0.151 HD
BRANCH  20  23
ATOM     23  C   UNL     1      -1.531 -10.611  -8.077  0.00  0.00    +0.028 C 
ATOM     24  C   UNL     1      -2.720 -11.082  -7.237  0.00  0.00    +0.031 C 
ATOM     25  C   UNL     1      -1.646 -11.186  -9.490  0.00  0.00    +0.031 C 
ATOM     26  C   UNL     1      -0.229 -11.095  -7.434  0.00  0.00    +0.031 C 
ENDBRANCH  20  23
ENDBRANCH  14  15
ENDBRANCH   4  14
TORSDOF 5
