REMARK  Name = ZINC01565327
REMARK  15 active torsions:
REMARK  status: ('A' for Active; 'I' for Inactive)
REMARK    1  A    between atoms: C_1  and  C_2
REMARK    2  A    between atoms: C_2  and  O_4
REMARK    3  A    between atoms: O_4  and  C_5
REMARK    4  A    between atoms: C_8  and  O_31
REMARK    5  A    between atoms: C_11  and  O_27
REMARK    6  A    between atoms: C_13  and  C_19
REMARK    7  A    between atoms: C_14  and  O_15
REMARK    8  A    between atoms: O_15  and  C_16
REMARK    9  A    between atoms: C_16  and  C_18
REMARK   10  A    between atoms: C_23  and  C_25
REMARK   11  A    between atoms: C_23  and  C_26
REMARK   12  A    between atoms: O_27  and  C_28
REMARK   13  A    between atoms: C_28  and  C_30
REMARK   14  A    between atoms: O_31  and  C_32
REMARK   15  A    between atoms: C_32  and  C_34
REMARK                            x       y       z     vdW  Elec       q    Type
REMARK                         _______ _______ _______ _____ _____    ______ ____
ROOT
ATOM      1  C   UNL     1       0.209  -3.186  -0.341  0.00  0.00    +0.143 A 
ATOM      2  C   UNL     1       1.313  -2.370  -0.237  0.00  0.00    +0.051 A 
ATOM      3  C   UNL     1       1.173  -1.012   0.032  0.00  0.00    +0.051 A 
ATOM      4  C   UNL     1      -0.073  -0.454   0.212  0.00  0.00    +0.143 A 
ATOM      5  C   UNL     1      -1.222  -1.263   0.112  0.00  0.00    +0.074 A 
ATOM      6  C   UNL     1      -1.079  -2.643  -0.168  0.00  0.00    +0.074 A 
ATOM      7  C   UNL     1      -2.228  -3.452  -0.267  0.00  0.00    +0.144 A 
ATOM      8  C   UNL     1      -3.473  -2.893  -0.092  0.00  0.00    +0.057 A 
ATOM      9  C   UNL     1      -3.614  -1.536   0.182  0.00  0.00    +0.028 A 
ATOM     10  C   UNL     1      -2.510  -0.720   0.286  0.00  0.00    +0.149 A 
ENDROOT
BRANCH   9  11
ATOM     11  C   UNL     1      -4.991  -0.953   0.370  0.00  0.00    +0.153 C 
ATOM     12  C   UNL     1      -5.409  -1.010   1.861  0.00  0.00    +0.039 C 
ATOM     13  C   UNL     1      -6.955  -1.000   1.764  0.00  0.00    +0.037 C 
ATOM     14  C   UNL     1      -7.246  -1.475   0.328  0.00  0.00    +0.065 C 
ATOM     15  O   UNL     1      -5.982  -1.769  -0.290  0.00  0.00    -0.366 OA
ATOM     16  C   UNL     1      -7.961  -0.369  -0.451  0.00  0.00    +0.041 C 
ATOM     17  C   UNL     1      -8.114  -2.735   0.363  0.00  0.00    +0.041 C 
ENDBRANCH   9  11
BRANCH   1  18
ATOM     18  O   UNL     1       0.362  -4.509  -0.610  0.00  0.00    -0.425 OA
BRANCH  18  20
ATOM     19  C   UNL     1       0.589  -6.308  -2.286  0.00  0.00    +0.136 C 
ATOM     20  C   UNL     1       0.312  -4.878  -1.900  0.00  0.00    +0.309 C 
ATOM     21  O   UNL     1       0.044  -4.064  -2.752  0.00  0.00    -0.251 OA
ENDBRANCH  18  20
ENDBRANCH   1  18
BRANCH  10  22
ATOM     22  O   UNL     1      -2.663   0.603   0.555  0.00  0.00    -0.425 OA
BRANCH  22  23
ATOM     23  C   UNL     1      -2.792   1.428  -0.496  0.00  0.00    +0.309 C 
ATOM     24  O   UNL     1      -2.770   0.983  -1.619  0.00  0.00    -0.251 OA
ATOM     25  C   UNL     1      -2.966   2.909  -0.275  0.00  0.00    +0.136 C 
ENDBRANCH  22  23
ENDBRANCH  10  22
BRANCH   7  26
ATOM     26  O   UNL     1      -2.107  -4.779  -0.536  0.00  0.00    -0.425 OA
BRANCH  26  27
ATOM     27  C   UNL     1      -1.927  -5.599   0.512  0.00  0.00    +0.309 C 
ATOM     28  O   UNL     1      -1.954  -5.157   1.636  0.00  0.00    -0.251 OA
ATOM     29  C   UNL     1      -1.692  -7.070   0.286  0.00  0.00    +0.136 C 
ENDBRANCH  26  27
ENDBRANCH   7  26
BRANCH   4  30
ATOM     30  O   UNL     1      -0.194   0.873   0.480  0.00  0.00    -0.425 OA
BRANCH  30  31
ATOM     31  C   UNL     1      -0.231   1.233   1.773  0.00  0.00    +0.309 C 
ATOM     32  O   UNL     1      -0.154   0.392   2.637  0.00  0.00    -0.251 OA
ATOM     33  C   UNL     1      -0.369   2.686   2.147  0.00  0.00    +0.136 C 
ENDBRANCH  30  31
ENDBRANCH   4  30
TORSDOF 9
