REMARK  Name = ZINC15300374
REMARK  11 active torsions:
REMARK  status: ('A' for Active; 'I' for Inactive)
REMARK    1  A    between atoms: C_1  and  C_2
REMARK    2  A    between atoms: C_2  and  C_3
REMARK    3  A    between atoms: C_2  and  C_4
REMARK    4  A    between atoms: C_2  and  C_5
REMARK    5  A    between atoms: C_8  and  C_11
REMARK    6  A    between atoms: C_11  and  N_12
REMARK    7  A    between atoms: N_12  and  C_13
REMARK    8  A    between atoms: N_12  and  C_14
REMARK    9  A    between atoms: C_14  and  C_15
REMARK   10  A    between atoms: N_17  and  C_18
REMARK   11  A    between atoms: N_17  and  C_26
REMARK                            x       y       z     vdW  Elec       q    Type
REMARK                         _______ _______ _______ _____ _____    ______ ____
ROOT
ATOM      1  C   UNL     1       3.096  -1.429  -7.078  0.00  0.00    +0.019 C 
ENDROOT
BRANCH   1   2
ATOM      2  N   UNL     1       2.534  -0.888  -5.834  0.00  0.00    +0.386 N 
ATOM      3  C   UNL     1       3.226   0.361  -5.487  0.00  0.00    -0.095 C 
ATOM      4  H   UNL     1       1.551  -0.704  -5.961  0.00  0.00    -0.081 HD
BRANCH   2   5
ATOM      5  C   UNL     1       2.714  -1.864  -4.750  0.00  0.00    -0.043 C 
BRANCH   5   9
ATOM      6  C   UNL     1       0.776  -0.444  -1.218  0.00  0.00    -0.042 A 
ATOM      7  C   UNL     1       0.081  -1.226  -2.121  0.00  0.00    +0.004 A 
ATOM      8  C   UNL     1       0.707  -1.685  -3.264  0.00  0.00    +0.002 A 
ATOM      9  C   UNL     1       2.030  -1.362  -3.504  0.00  0.00    -0.064 A 
ATOM     10  C   UNL     1       2.725  -0.580  -2.602  0.00  0.00    +0.002 A 
ATOM     11  C   UNL     1       2.097  -0.117  -1.460  0.00  0.00    +0.004 A 
BRANCH   6  13
ATOM     12  C   UNL     1       0.102   1.587   0.036  0.00  0.00    +0.015 C 
ATOM     13  C   UNL     1       0.093   0.057   0.029  0.00  0.00    -0.013 C 
ATOM     14  C   UNL     1       0.835  -0.464   1.261  0.00  0.00    +0.015 C 
ATOM     15  C   UNL     1      -1.353  -0.445   0.054  0.00  0.00    +0.015 C 
ENDBRANCH   6  13
ENDBRANCH   5   9
ENDBRANCH   2   5
ENDBRANCH   1   2
BRANCH   1  16
ATOM     16  C   UNL     1       2.804  -0.483  -8.214  0.00  0.00    +0.200 C 
ATOM     17  O   UNL     1       2.096   0.484  -8.031  0.00  0.00    -0.278 OA
ATOM     18  N   UNL     1       3.330  -0.713  -9.434  0.00  0.00    -0.295 N 
BRANCH  18  19
ATOM     19  C   UNL     1       3.131   0.259 -10.512  0.00  0.00    +0.099 C 
ATOM     20  C   UNL     1       1.625   0.433 -10.771  0.00  0.00    +0.046 C 
ATOM     21  C   UNL     1       1.431   1.679 -11.682  0.00  0.00    +0.168 C 
ATOM     22  S   UNL     1       2.662   2.833 -10.941  0.00  0.00    -0.029 S 
ATOM     23  O   UNL     1       2.015   3.628  -9.956  0.00  0.00    -0.174 OA
ATOM     24  O   UNL     1       3.388   3.467 -11.985  0.00  0.00    -0.174 OA
ATOM     25  C   UNL     1       3.755   1.615 -10.103  0.00  0.00    +0.188 C 
ENDBRANCH  18  19
BRANCH  18  26
ATOM     26  C   UNL     1       4.101  -1.934  -9.682  0.00  0.00    +0.076 C 
ATOM     27  C   UNL     1       5.551  -1.575 -10.065  0.00  0.00    +0.022 C 
ATOM     28  C   UNL     1       5.931  -2.623 -11.140  0.00  0.00    +0.002 C 
ATOM     29  C   UNL     1       4.617  -2.777 -11.946  0.00  0.00    +0.002 C 
ATOM     30  C   UNL     1       3.507  -2.698 -10.878  0.00  0.00    +0.022 C 
ENDBRANCH  18  26
ENDBRANCH   1  16
TORSDOF 7
