REMARK  Name = ZINC14531948
REMARK  10 active torsions:
REMARK  status: ('A' for Active; 'I' for Inactive)
REMARK    1  A    between atoms: C_1  and  C_2
REMARK    2  A    between atoms: C_2  and  O_3
REMARK    3  A    between atoms: O_3  and  C_4
REMARK    4  A    between atoms: C_9  and  N_67
REMARK    5  A    between atoms: C_12  and  N_67
REMARK    6  A    between atoms: C_18  and  C_28
REMARK    7  A    between atoms: N_20  and  C_21
REMARK    8  A    between atoms: C_21  and  C_22
REMARK    9  A    between atoms: N_30  and  C_31
REMARK   10  A    between atoms: N_30  and  C_32
REMARK                            x       y       z     vdW  Elec       q    Type
REMARK                         _______ _______ _______ _____ _____    ______ ____
ROOT
ATOM      1  C   UNL     1      -0.736   5.213   4.174  0.00  0.00    -0.067 C 
ATOM      2  C   UNL     1      -0.886   5.751   2.748  0.00  0.00    -0.009 C 
ATOM      3  C   UNL     1      -0.612   4.626   1.742  0.00  0.00    +0.054 C 
ATOM      4  C   UNL     1      -1.435   3.426   2.135  0.00  0.00    +0.043 A 
ATOM      5  C   UNL     1      -2.005   3.268   3.355  0.00  0.00    +0.004 A 
ATOM      6  C   UNL     1      -2.678   2.036   3.309  0.00  0.00    +0.151 A 
ATOM      7  N   UNL     1      -2.483   1.542   2.098  0.00  0.00    -0.166 NA
ATOM      8  N   UNL     1      -1.752   2.345   1.404  0.00  0.00    -0.263 N 
ATOM      9  C   UNL     1      -1.893   4.254   4.484  0.00  0.00    +0.023 C 
ENDROOT
BRANCH   6  10
ATOM     10  C   UNL     1      -3.458   1.415   4.399  0.00  0.00    +0.267 C 
ATOM     11  O   UNL     1      -3.562   1.982   5.470  0.00  0.00    -0.268 OA
ATOM     12  N   UNL     1      -4.052   0.221   4.208  0.00  0.00    -0.302 N 
ATOM     13  C   UNL     1      -4.825  -0.394   5.289  0.00  0.00    +0.132 C 
ATOM     14  C   UNL     1      -3.926  -0.461   2.917  0.00  0.00    +0.132 C 
ENDBRANCH   6  10
BRANCH   1  15
ATOM     15  N   UNL     1      -0.768   6.336   5.129  0.00  0.00    +0.383 N 
ATOM     16  H   UNL     1      -1.417   7.054   4.786  0.00  0.00    -0.085 HD
ATOM     17  H   UNL     1      -1.088   5.995   6.043  0.00  0.00    -0.085 HD
BRANCH  15  23
ATOM     18  C   UNL     1       3.274   8.714   7.803  0.00  0.00    +0.403 C 
ATOM     19  O   UNL     1       3.164   9.903   8.031  0.00  0.00    -0.226 OA
ATOM     20  N   UNL     1       2.650   8.173   6.737  0.00  0.00    -0.268 N 
ATOM     21  C   UNL     1       1.835   9.007   5.844  0.00  0.00    +0.109 C 
ATOM     22  C   UNL     1       0.441   8.382   5.723  0.00  0.00    +0.003 C 
ATOM     23  C   UNL     1       0.576   6.925   5.274  0.00  0.00    -0.069 C 
ATOM     24  C   UNL     1       1.369   6.139   6.320  0.00  0.00    +0.003 C 
ATOM     25  C   UNL     1       2.773   6.738   6.448  0.00  0.00    +0.109 C 
BRANCH  18  26
ATOM     26  O   UNL     1       4.018   7.939   8.613  0.00  0.00    -0.451 OA
BRANCH  26  28
ATOM     27  C   UNL     1       5.456   7.556  10.541  0.00  0.00    +0.048 C 
ATOM     28  C   UNL     1       4.660   8.589   9.741  0.00  0.00    +0.230 C 
ENDBRANCH  26  28
ENDBRANCH  18  26
ENDBRANCH  15  23
ENDBRANCH   1  15
BRANCH   8  29
ATOM     29  C   UNL     1      -1.332   2.114   0.020  0.00  0.00    +0.179 C 
BRANCH  29  30
ATOM     30  C   UNL     1      -0.017   1.378   0.010  0.00  0.00    -0.026 A 
ATOM     31  C   UNL     1       1.171   2.086   0.002  0.00  0.00    +0.005 A 
ATOM     32  C   UNL     1       2.377   1.411  -0.014  0.00  0.00    +0.000 A 
ATOM     33  C   UNL     1       2.396   0.029  -0.022  0.00  0.00    +0.000 A 
ATOM     34  C   UNL     1       1.208  -0.679  -0.014  0.00  0.00    +0.000 A 
ATOM     35  C   UNL     1       0.002  -0.004   0.002  0.00  0.00    +0.005 A 
ENDBRANCH  29  30
ENDBRANCH   8  29
TORSDOF 7
