REMARK  Name = ZINC11885637
REMARK  4 active torsions:
REMARK  status: ('A' for Active; 'I' for Inactive)
REMARK    1  A    between atoms: C_6  and  C_7
REMARK    2  A    between atoms: C_7  and  C_17
REMARK    3  A    between atoms: C_19  and  C_22
REMARK    4  A    between atoms: C_22  and  C_23
REMARK                            x       y       z     vdW  Elec       q    Type
REMARK                         _______ _______ _______ _____ _____    ______ ____
ROOT
ATOM      1  C   UNL     1      -1.157  -0.967   0.007  0.00  0.00    +0.053 C 
ATOM      2  C   UNL     1      -2.164  -0.988  -1.145  0.00  0.00    +0.033 C 
ATOM      3  C   UNL     1      -2.520  -0.288   0.158  0.00  0.00    +0.033 C 
ATOM      4  C   UNL     1      -3.612  -1.022   0.969  0.00  0.00    +0.171 C 
ATOM      5  S   UNL     1      -4.438  -2.011  -0.352  0.00  0.00    -0.030 S 
ATOM      6  O   UNL     1      -4.858  -3.257   0.187  0.00  0.00    -0.174 OA
ATOM      7  O   UNL     1      -5.370  -1.190  -1.042  0.00  0.00    -0.174 OA
ATOM      8  C   UNL     1      -2.951  -2.275  -1.414  0.00  0.00    +0.171 C 
ENDROOT
BRANCH   1  14
ATOM      9  C   UNL     1      -1.970  -3.152   0.918  0.00  0.00    +0.007 A 
ATOM     10  C   UNL     1      -1.764  -4.333   1.605  0.00  0.00    +0.038 A 
ATOM     11  C   UNL     1      -0.520  -4.610   2.146  0.00  0.00    +0.123 A 
ATOM     12  C   UNL     1       0.518  -3.706   1.993  0.00  0.00    +0.038 A 
ATOM     13  C   UNL     1       0.310  -2.528   1.301  0.00  0.00    +0.007 A 
ATOM     14  C   UNL     1      -0.932  -2.252   0.761  0.00  0.00    -0.034 A 
ATOM     15  F   UNL     1      -0.318  -5.763   2.821  0.00  0.00    -0.205 F 
ENDBRANCH   1  14
BRANCH   1  16
ATOM     16  C   UNL     1       0.051  -0.078  -0.139  0.00  0.00    +0.090 A 
ATOM     17  N   UNL     1       1.312  -0.417  -0.281  0.00  0.00    -0.247 NA
ATOM     18  C   UNL     1       2.258   0.491  -0.397  0.00  0.00    +0.060 A 
ATOM     19  C   UNL     1       1.903   1.801  -0.369  0.00  0.00    +0.070 A 
ATOM     20  S   UNL     1       0.133   1.656  -0.164  0.00  0.00    -0.079 S 
BRANCH  18  21
ATOM     21  C   UNL     1       3.700   0.086  -0.560  0.00  0.00    +0.181 C 
BRANCH  21  22
ATOM     22  C   UNL     1       4.376   0.082   0.787  0.00  0.00    +0.362 C 
ATOM     23  O   UNL     1       3.750   0.379   1.778  0.00  0.00    -0.246 OA
ATOM     24  O   UNL     1       5.673  -0.250   0.887  0.00  0.00    -0.246 OA
ENDBRANCH  21  22
ENDBRANCH  18  21
ENDBRANCH   1  16
TORSDOF 4
