REMARK  Name = ZINC19941931
REMARK  7 active torsions:
REMARK  status: ('A' for Active; 'I' for Inactive)
REMARK    1  A    between atoms: C_1  and  C_2
REMARK    2  A    between atoms: N_6  and  C_15
REMARK    3  A    between atoms: C_11  and  N_14
REMARK    4  A    between atoms: C_15  and  C_16
REMARK    5  A    between atoms: C_16  and  C_18
REMARK    6  A    between atoms: C_16  and  O_20
REMARK    7  A    between atoms: C_18  and  O_19
REMARK                            x       y       z     vdW  Elec       q    Type
REMARK                         _______ _______ _______ _____ _____    ______ ____
ROOT
ATOM      1  C   UNL     1       1.050   7.335   0.349  0.00  0.00    +0.062 C 
ATOM      2  C   UNL     1       1.022   5.851   0.719  0.00  0.00    +0.256 C 
ATOM      3  C   UNL     1       2.327   5.209   0.321  0.00  0.00    +0.260 C 
ATOM      4  O   UNL     1       3.345   5.867   0.291  0.00  0.00    -0.271 OA
ATOM      5  N   UNL     1       2.357   3.898  -0.001  0.00  0.00    -0.263 N 
ATOM      6  C   UNL     1       1.160   3.167   0.008  0.00  0.00    +0.080 A 
ATOM      7  C   UNL     1       1.177   1.781   0.000  0.00  0.00    +0.027 A 
ATOM      8  C   UNL     1      -0.013   1.076   0.008  0.00  0.00    +0.004 A 
ATOM      9  C   UNL     1      -1.221   1.748   0.017  0.00  0.00    +0.026 A 
ATOM     10  C   UNL     1      -1.247   3.137   0.032  0.00  0.00    +0.069 A 
ATOM     11  C   UNL     1      -0.053   3.849   0.024  0.00  0.00    +0.163 A 
ATOM     12  O   UNL     1      -0.057   5.210   0.034  0.00  0.00    -0.476 OA
ENDROOT
BRANCH  10  13
ATOM     13  N   UNL     1      -2.470   3.816   0.047  0.00  0.00    -0.355 N 
ATOM     14  H   UNL     1      -2.489   4.916   0.058  0.00  0.00    +0.142 HD
ATOM     15  H   UNL     1      -3.414   3.250   0.048  0.00  0.00    +0.142 HD
ENDBRANCH  10  13
BRANCH   5  16
ATOM     16  C   UNL     1       3.621   3.248  -0.355  0.00  0.00    +0.147 C 
BRANCH  16  17
ATOM     17  C   UNL     1       3.846   3.357  -1.864  0.00  0.00    +0.157 C 
BRANCH  17  18
ATOM     18  O   UNL     1       4.013   4.731  -2.223  0.00  0.00    -0.388 OA
ATOM     19  H   UNL     1       4.187   5.008  -3.273  0.00  0.00    +0.210 HD
ENDBRANCH  17  18
BRANCH  17  20
ATOM     20  C   UNL     1       5.101   2.573  -2.251  0.00  0.00    +0.188 C 
BRANCH  20  21
ATOM     21  O   UNL     1       5.247   2.578  -3.673  0.00  0.00    -0.392 OA
ATOM     22  H   UNL     1       6.098   2.060  -4.140  0.00  0.00    +0.210 HD
ENDBRANCH  20  21
ENDBRANCH  17  20
ENDBRANCH  16  17
ENDBRANCH   5  16
TORSDOF 6
