REMARK  Name = ZINC38776225
REMARK  6 active torsions:
REMARK  status: ('A' for Active; 'I' for Inactive)
REMARK    1  A    between atoms: C_10  and  C_11
REMARK    2  A    between atoms: C_11  and  N_12
REMARK    3  A    between atoms: C_18  and  C_20
REMARK    4  A    between atoms: C_20  and  S_21
REMARK    5  A    between atoms: S_21  and  C_22
REMARK    6  A    between atoms: C_26  and  C_28
REMARK                            x       y       z     vdW  Elec       q    Type
REMARK                         _______ _______ _______ _____ _____    ______ ____
ROOT
ATOM      1  N   UNL     1       5.270   0.612   1.317  0.00  0.00    -0.295 NA
ATOM      2  C   UNL     1       5.545  -0.529   2.200  0.00  0.00    +0.103 C 
ATOM      3  C   UNL     1       5.684  -0.032   3.643  0.00  0.00    +0.123 C 
ATOM      4  N   UNL     1       6.694   1.036   3.675  0.00  0.00    -0.298 N 
ATOM      5  C   UNL     1       6.561   2.148   2.721  0.00  0.00    +0.123 C 
ATOM      6  C   UNL     1       6.388   1.566   1.315  0.00  0.00    +0.103 C 
ATOM      7  C   UNL     1       7.715   0.997   4.553  0.00  0.00    +0.226 C 
ATOM      8  O   UNL     1       7.809   0.072   5.333  0.00  0.00    -0.275 OA
ENDROOT
BRANCH   1   9
ATOM      9  C   UNL     1       4.960   0.161  -0.046  0.00  0.00    +0.120 C 
BRANCH   9  19
ATOM     10  C   UNL     1      -0.016   1.357   0.009  0.00  0.00    +0.001 A 
ATOM     11  C   UNL     1       1.169   2.091   0.002  0.00  0.00    +0.001 A 
ATOM     12  C   UNL     1       2.378   1.468  -0.013  0.00  0.00    +0.009 A 
ATOM     13  C   UNL     1       2.438   0.064  -0.021  0.00  0.00    -0.013 A 
ATOM     14  C   UNL     1       1.233  -0.683  -0.013  0.00  0.00    -0.018 A 
ATOM     15  C   UNL     1       0.002  -0.004   0.002  0.00  0.00    +0.008 A 
ATOM     16  C   UNL     1       1.292  -2.087  -0.021  0.00  0.00    +0.008 A 
ATOM     17  C   UNL     1       2.502  -2.709  -0.036  0.00  0.00    +0.001 A 
ATOM     18  C   UNL     1       3.687  -1.976  -0.043  0.00  0.00    +0.005 A 
ATOM     19  C   UNL     1       3.668  -0.615  -0.037  0.00  0.00    -0.026 A 
ENDBRANCH   9  19
ENDBRANCH   1   9
BRANCH   7  20
ATOM     20  C   UNL     1       8.740   2.102   4.568  0.00  0.00    +0.170 C 
BRANCH  20  21
ATOM     21  S   UNL     1       9.975   1.764   5.853  0.00  0.00    -0.087 S 
BRANCH  21  22
ATOM     22  C   UNL     1      11.119   3.168   5.741  0.00  0.00    +0.339 C 
ATOM     23  N   UNL     1      10.399   4.436   5.949  0.00  0.00    -0.219 N 
ATOM     24  N   UNL     1      10.566   5.162   4.761  0.00  0.00    -0.145 NA
ATOM     25  C   UNL     1      11.283   4.475   3.911  0.00  0.00    +0.238 C 
ATOM     26  O   UNL     1      11.658   3.271   4.415  0.00  0.00    -0.443 OA
ATOM     27  H   UNL     1       9.912   4.711   6.741  0.00  0.00    +0.173 HD
BRANCH  25  28
ATOM     28  C   UNL     1      11.627   4.928   2.630  0.00  0.00    +0.043 C 
ATOM     29  C   UNL     1      11.287   6.150   2.047  0.00  0.00    +0.008 A 
ATOM     30  C   UNL     1      10.542   7.254   2.514  0.00  0.00    +0.010 A 
ATOM     31  C   UNL     1      10.367   8.336   1.713  0.00  0.00    +0.001 A 
ATOM     32  C   UNL     1      10.909   8.389   0.427  0.00  0.00    +0.002 A 
ATOM     33  C   UNL     1      11.635   7.365  -0.086  0.00  0.00    +0.026 A 
ATOM     34  C   UNL     1      11.860   6.200   0.693  0.00  0.00    +0.043 A 
ATOM     35  N   UNL     1      12.519   5.089   0.429  0.00  0.00    -0.380 N 
ATOM     36  C   UNL     1      12.449   4.197   1.591  0.00  0.00    +0.154 C 
ATOM     37  H   UNL     1      12.981   4.893  -0.401  0.00  0.00    +0.160 HD
ENDBRANCH  25  28
ENDBRANCH  21  22
ENDBRANCH  20  21
ENDBRANCH   7  20
TORSDOF 6
