REMARK  Name = ZINC23343405
REMARK  6 active torsions:
REMARK  status: ('A' for Active; 'I' for Inactive)
REMARK    1  A    between atoms: C_1  and  C_2
REMARK    2  A    between atoms: C_2  and  O_3
REMARK    3  A    between atoms: O_3  and  C_4
REMARK    4  A    between atoms: C_9  and  N_12
REMARK    5  A    between atoms: N_12  and  C_13
REMARK    6  A    between atoms: N_23  and  C_24
REMARK                            x       y       z     vdW  Elec       q    Type
REMARK                         _______ _______ _______ _____ _____    ______ ____
ROOT
ATOM      1  C   UNL     1       4.504  -0.222  -1.862  0.00  0.00    +0.052 C 
ATOM      2  C   UNL     1       5.279   0.331  -3.032  0.00  0.00    -0.032 A 
ATOM      3  C   UNL     1       5.229   1.522  -3.717  0.00  0.00    +0.004 A 
ATOM      4  C   UNL     1       6.091   1.747  -4.777  0.00  0.00    +0.000 A 
ATOM      5  C   UNL     1       7.006   0.777  -5.148  0.00  0.00    +0.001 A 
ATOM      6  C   UNL     1       7.066  -0.420  -4.466  0.00  0.00    +0.013 A 
ATOM      7  C   UNL     1       6.199  -0.655  -3.397  0.00  0.00    +0.040 A 
ATOM      8  C   UNL     1       6.024  -1.809  -2.494  0.00  0.00    +0.246 C 
ATOM      9  O   UNL     1       6.672  -2.836  -2.546  0.00  0.00    -0.270 OA
ATOM     10  N   UNL     1       5.045  -1.562  -1.606  0.00  0.00    -0.300 N 
ENDROOT
BRANCH  10  11
ATOM     11  C   UNL     1       4.594  -2.478  -0.556  0.00  0.00    +0.105 C 
ATOM     12  C   UNL     1       4.089  -3.769  -1.198  0.00  0.00    +0.027 C 
ATOM     13  C   UNL     1       3.826  -4.791  -0.085  0.00  0.00    +0.007 C 
ATOM     14  C   UNL     1       5.170  -5.227   0.495  0.00  0.00    +0.035 C 
ATOM     15  C   UNL     1       6.002  -4.027   0.865  0.00  0.00    -0.042 A 
ATOM     16  C   UNL     1       5.740  -2.765   0.378  0.00  0.00    -0.024 A 
ATOM     17  C   UNL     1       6.551  -1.702   0.753  0.00  0.00    +0.006 A 
ATOM     18  C   UNL     1       7.614  -1.899   1.610  0.00  0.00    +0.000 A 
ATOM     19  C   UNL     1       7.875  -3.164   2.101  0.00  0.00    +0.000 A 
ATOM     20  C   UNL     1       7.071  -4.222   1.729  0.00  0.00    +0.004 A 
ENDBRANCH  10  11
BRANCH   1  21
ATOM     21  N   UNL     1       3.077  -0.311  -2.200  0.00  0.00    +0.396 N 
ATOM     22  H   UNL     1       2.830  -1.361  -2.417  0.00  0.00    -0.082 HD
ATOM     23  H   UNL     1       2.886   0.303  -3.093  0.00  0.00    -0.082 HD
BRANCH  21  29
ATOM     24  C   UNL     1      -1.187   2.136   0.019  0.00  0.00    +0.403 C 
ATOM     25  O   UNL     1      -2.237   1.526   0.021  0.00  0.00    -0.226 OA
ATOM     26  N   UNL     1      -0.018   1.465   0.010  0.00  0.00    -0.268 N 
ATOM     27  C   UNL     1       1.261   2.189   0.002  0.00  0.00    +0.109 C 
ATOM     28  C   UNL     1       2.103   1.689  -1.177  0.00  0.00    +0.003 C 
ATOM     29  C   UNL     1       2.242   0.168  -1.090  0.00  0.00    -0.066 C 
ATOM     30  C   UNL     1       0.858  -0.479  -1.176  0.00  0.00    +0.003 C 
ATOM     31  C   UNL     1       0.002  -0.004   0.002  0.00  0.00    +0.109 C 
BRANCH  24  32
ATOM     32  O   UNL     1      -1.190   3.482   0.027  0.00  0.00    -0.451 OA
BRANCH  32  34
ATOM     33  C   UNL     1      -2.289   5.655   0.044  0.00  0.00    +0.048 C 
ATOM     34  C   UNL     1      -2.486   4.138   0.036  0.00  0.00    +0.230 C 
ENDBRANCH  32  34
ENDBRANCH  24  32
ENDBRANCH  21  29
ENDBRANCH   1  21
TORSDOF 5
