REMARK  Name = ZINC40982086
REMARK  8 active torsions:
REMARK  status: ('A' for Active; 'I' for Inactive)
REMARK    1  A    between atoms: C_1  and  C_2
REMARK    2  A    between atoms: C_2  and  C_3
REMARK    3  A    between atoms: C_3  and  S_4
REMARK    4  A    between atoms: S_4  and  C_5
REMARK    5  A    between atoms: C_10  and  C_20
REMARK    6  A    between atoms: C_24  and  O_26
REMARK    7  A    between atoms: O_26  and  C_27
REMARK    8  A    between atoms: C_27  and  C_28
REMARK                            x       y       z     vdW  Elec       q    Type
REMARK                         _______ _______ _______ _____ _____    ______ ____
ROOT
ATOM      1  C   UNL     1      -3.112  -2.797   0.017  0.00  0.00    +0.210 A 
ATOM      2  N   UNL     1      -4.144  -1.940   0.025  0.00  0.00    -0.187 NA
ATOM      3  C   UNL     1      -5.265  -2.608   0.032  0.00  0.00    +0.219 A 
ATOM      4  N   UNL     1      -4.969  -3.930   0.032  0.00  0.00    -0.220 N 
ATOM      5  N   UNL     1      -3.578  -4.028   0.015  0.00  0.00    -0.141 NA
ATOM      6  C   UNL     1      -5.981  -4.979   0.048  0.00  0.00    +0.176 C 
ATOM      7  C   UNL     1      -7.337  -4.395  -0.280  0.00  0.00    +0.041 C 
ATOM      8  C   UNL     1      -7.568  -3.064  -0.264  0.00  0.00    +0.020 C 
ATOM      9  N   UNL     1      -6.576  -2.161   0.035  0.00  0.00    -0.287 N 
ATOM     10  C   UNL     1      -8.939  -2.512  -0.572  0.00  0.00    +0.052 C 
ATOM     11  C   UNL     1      -9.648  -3.425  -1.575  0.00  0.00    +0.014 C 
ATOM     12  C   UNL     1      -9.743  -4.828  -0.966  0.00  0.00    +0.080 C 
ATOM     13  C   UNL     1      -8.361  -5.301  -0.609  0.00  0.00    +0.163 C 
ATOM     14  O   UNL     1      -8.124  -6.492  -0.606  0.00  0.00    -0.292 OA
ATOM     15  H   UNL     1      -6.788  -1.237   0.242  0.00  0.00    +0.155 HD
ENDROOT
BRANCH   6  16
ATOM     16  C   UNL     1      -6.027  -5.608   1.417  0.00  0.00    -0.015 A 
ATOM     17  C   UNL     1      -6.334  -4.836   2.522  0.00  0.00    +0.006 A 
ATOM     18  C   UNL     1      -6.378  -5.410   3.779  0.00  0.00    +0.004 A 
ATOM     19  C   UNL     1      -6.114  -6.758   3.934  0.00  0.00    +0.045 A 
ATOM     20  C   UNL     1      -5.807  -7.535   2.827  0.00  0.00    +0.121 A 
ATOM     21  C   UNL     1      -5.770  -6.957   1.566  0.00  0.00    +0.051 A 
BRANCH  20  22
ATOM     22  O   UNL     1      -5.548  -8.860   2.976  0.00  0.00    -0.487 OA
BRANCH  22  23
ATOM     23  C   UNL     1      -5.610  -9.388   4.303  0.00  0.00    +0.266 C 
BRANCH  23  24
ATOM     24  C   UNL     1      -5.297 -10.861   4.273  0.00  0.00    +0.008 A 
ATOM     25  C   UNL     1      -5.004 -11.481   3.072  0.00  0.00    +0.010 A 
ATOM     26  C   UNL     1      -4.716 -12.833   3.044  0.00  0.00    +0.020 A 
ATOM     27  C   UNL     1      -4.721 -13.566   4.217  0.00  0.00    +0.042 A 
ATOM     28  C   UNL     1      -5.013 -12.947   5.419  0.00  0.00    +0.040 A 
ATOM     29  C   UNL     1      -5.296 -11.593   5.447  0.00  0.00    +0.049 A 
ATOM     30 CL   UNL     1      -5.657 -10.813   6.955  0.00  0.00    -0.083 Cl
ATOM     31 CL   UNL     1      -4.360 -15.264   4.181  0.00  0.00    -0.083 Cl
ENDBRANCH  23  24
ENDBRANCH  22  23
ENDBRANCH  20  22
ENDBRANCH   6  16
BRANCH   1  32
ATOM     32  S   UNL     1      -1.409  -2.348   0.003  0.00  0.00    -0.084 S 
BRANCH  32  33
ATOM     33  C   UNL     1      -1.433  -0.534   0.013  0.00  0.00    +0.077 C 
BRANCH  33  35
ATOM     34  C   UNL     1      -0.019   1.526   0.010  0.00  0.00    +0.004 C 
ATOM     35  C   UNL     1       0.002  -0.004   0.002  0.00  0.00    +0.008 C 
ENDBRANCH  33  35
ENDBRANCH  32  33
ENDBRANCH   1  32
TORSDOF 7
