REMARK  Name = ZINC37626963
REMARK  7 active torsions:
REMARK  status: ('A' for Active; 'I' for Inactive)
REMARK    1  A    between atoms: C_1  and  C_2
REMARK    2  A    between atoms: C_2  and  C_3
REMARK    3  A    between atoms: C_2  and  C_4
REMARK    4  A    between atoms: C_2  and  C_5
REMARK    5  A    between atoms: C_11  and  N_13
REMARK    6  A    between atoms: C_14  and  C_16
REMARK    7  A    between atoms: C_19  and  N_22
REMARK                            x       y       z     vdW  Elec       q    Type
REMARK                         _______ _______ _______ _____ _____    ______ ____
ROOT
ATOM      1  N   UNL     1       2.163   1.387  -1.333  0.00  0.00    -0.312 N 
ATOM      2  C   UNL     1       3.323   1.978  -0.984  0.00  0.00    +0.216 C 
ATOM      3  O   UNL     1       4.293   1.300  -0.719  0.00  0.00    -0.276 OA
ATOM      4  H   UNL     1       1.387   1.930  -1.546  0.00  0.00    +0.149 HD
ENDROOT
BRANCH   1  10
ATOM      5  C   UNL     1       0.643  -0.511  -1.073  0.00  0.00    +0.015 C 
ATOM      6  C   UNL     1       0.550  -2.037  -1.135  0.00  0.00    +0.006 C 
ATOM      7  C   UNL     1       0.927  -2.514  -2.539  0.00  0.00    +0.000 C 
ATOM      8  C   UNL     1       2.358  -2.077  -2.859  0.00  0.00    +0.002 C 
ATOM      9  C   UNL     1       2.451  -0.551  -2.797  0.00  0.00    +0.022 C 
ATOM     10  C   UNL     1       2.074  -0.074  -1.393  0.00  0.00    +0.077 C 
BRANCH   5  12
ATOM     11  C   UNL     1       0.195   1.495   0.348  0.00  0.00    +0.011 C 
ATOM     12  C   UNL     1       0.266  -0.034   0.331  0.00  0.00    -0.033 C 
ATOM     13  C   UNL     1       1.322  -0.507   1.331  0.00  0.00    +0.011 C 
ATOM     14  C   UNL     1      -1.097  -0.611   0.717  0.00  0.00    +0.011 C 
ENDBRANCH   5  12
ENDBRANCH   1  10
BRANCH   2  15
ATOM     15  C   UNL     1       3.414   3.481  -0.923  0.00  0.00    +0.075 C 
ATOM     16  C   UNL     1       3.101   4.068  -2.301  0.00  0.00    +0.011 C 
ATOM     17  C   UNL     1       4.109   3.537  -3.322  0.00  0.00    -0.016 C 
ATOM     18  C   UNL     1       5.523   3.945  -2.904  0.00  0.00    -0.075 C 
ATOM     19  C   UNL     1       5.836   3.358  -1.526  0.00  0.00    -0.016 C 
ATOM     20  C   UNL     1       4.828   3.889  -0.504  0.00  0.00    +0.011 C 
BRANCH  18  21
ATOM     21  N   UNL     1       6.490   3.435  -3.885  0.00  0.00    +0.380 N 
ATOM     22  H   UNL     1       6.284   3.821  -4.793  0.00  0.00    -0.090 HD
ATOM     23  H   UNL     1       7.423   3.704  -3.608  0.00  0.00    -0.090 HD
ATOM     24  H   UNL     1       6.429   2.428  -3.925  0.00  0.00    -0.090 HD
ENDBRANCH  18  21
ENDBRANCH   2  15
TORSDOF 4
