REMARK  Name = ZINC63308265
REMARK  13 active torsions:
REMARK  status: ('A' for Active; 'I' for Inactive)
REMARK    1  A    between atoms: C_1  and  C_2
REMARK    2  A    between atoms: C_2  and  C_3
REMARK    3  A    between atoms: C_3  and  C_4
REMARK    4  A    between atoms: C_4  and  C_5
REMARK    5  A    between atoms: C_5  and  C_7
REMARK    6  A    between atoms: C_5  and  C_9
REMARK    7  A    between atoms: C_7  and  C_8
REMARK    8  A    between atoms: C_9  and  N_11
REMARK    9  A    between atoms: N_13  and  C_14
REMARK   10  A    between atoms: C_14  and  C_15
REMARK   11  A    between atoms: C_15  and  C_16
REMARK   12  A    between atoms: C_28  and  C_33
REMARK   13  A    between atoms: C_30  and  C_32
REMARK                            x       y       z     vdW  Elec       q    Type
REMARK                         _______ _______ _______ _____ _____    ______ ____
ROOT
ATOM      1  N   UNL     1       2.140  -4.261   4.378  0.00  0.00    -0.147 NA
ATOM      2  C   UNL     1       2.555  -5.521   4.389  0.00  0.00    +0.196 C 
ATOM      3  N   UNL     1       2.461  -6.279   3.261  0.00  0.00    -0.357 N 
ATOM      4  N   UNL     1       3.076  -6.058   5.532  0.00  0.00    -0.297 N 
ATOM      5  C   UNL     1       3.249  -5.263   6.657  0.00  0.00    +0.231 A 
ATOM      6  N   UNL     1       2.874  -3.994   6.615  0.00  0.00    -0.217 NA
ATOM      7  C   UNL     1       3.025  -3.209   7.669  0.00  0.00    +0.044 A 
ATOM      8  C   UNL     1       3.583  -3.730   8.826  0.00  0.00    +0.046 A 
ATOM      9  C   UNL     1       3.964  -5.063   8.835  0.00  0.00    +0.044 A 
ATOM     10  N   UNL     1       3.781  -5.794   7.748  0.00  0.00    -0.217 NA
ATOM     11  C   UNL     1       4.575  -5.673  10.070  0.00  0.00    +0.066 C 
ATOM     12  C   UNL     1       2.596  -1.765   7.612  0.00  0.00    +0.066 C 
ATOM     13  H   UNL     1       3.325  -6.996   5.558  0.00  0.00    +0.171 HD
ATOM     14  H   UNL     1       2.183  -5.872   2.425  0.00  0.00    +0.162 HD
ENDROOT
BRANCH   1  15
ATOM     15  C   UNL     1       1.419  -3.807   3.355  0.00  0.00    +0.242 C 
ATOM     16  O   UNL     1       1.213  -4.519   2.392  0.00  0.00    -0.273 OA
BRANCH  15  17
ATOM     17  C   UNL     1       0.858  -2.408   3.390  0.00  0.00    +0.077 C 
BRANCH  17  18
ATOM     18  C   UNL     1      -0.394  -2.383   4.269  0.00  0.00    +0.009 C 
ATOM     19  C   UNL     1      -0.031  -2.828   5.687  0.00  0.00    +0.004 C 
ENDBRANCH  17  18
BRANCH  17  20
ATOM     20  C   UNL     1       0.494  -1.968   1.971  0.00  0.00    +0.013 C 
BRANCH  20  21
ATOM     21  C   UNL     1       0.042  -0.507   1.990  0.00  0.00    +0.000 C 
BRANCH  21  23
ATOM     22  C   UNL     1      -0.774   1.395   0.590  0.00  0.00    +0.004 C 
ATOM     23  C   UNL     1      -0.322  -0.067   0.571  0.00  0.00    -0.003 C 
ENDBRANCH  21  23
ENDBRANCH  20  21
ENDBRANCH  17  20
ENDBRANCH  15  17
ENDBRANCH   1  15
BRANCH   3  24
ATOM     24  C   UNL     1       2.781  -7.708   3.310  0.00  0.00    +0.120 C 
BRANCH  24  25
ATOM     25  C   UNL     1       2.710  -8.295   1.899  0.00  0.00    +0.054 C 
BRANCH  25  26
ATOM     26  C   UNL     1       2.920  -9.786   1.964  0.00  0.00    -0.040 C 
ATOM     27  C   UNL     1       1.966 -10.736   2.098  0.00  0.00    -0.001 A 
ATOM     28  C   UNL     1       0.505 -10.668   2.219  0.00  0.00    +0.010 A 
ATOM     29  C   UNL     1      -0.197 -11.817   2.342  0.00  0.00    +0.001 A 
ATOM     30  C   UNL     1       0.434 -13.068   2.359  0.00  0.00    +0.002 A 
ATOM     31  C   UNL     1       1.772 -13.211   2.252  0.00  0.00    +0.026 A 
ATOM     32  C   UNL     1       2.608 -12.069   2.117  0.00  0.00    +0.043 A 
ATOM     33  N   UNL     1       3.909 -11.948   2.000  0.00  0.00    -0.380 N 
ATOM     34  C   UNL     1       4.238 -10.523   1.887  0.00  0.00    +0.144 C 
ATOM     35  H   UNL     1       4.546 -12.679   1.986  0.00  0.00    +0.160 HD
ENDBRANCH  25  26
ENDBRANCH  24  25
ENDBRANCH   3  24
TORSDOF 9
