REMARK  Name = ZINC43409855
REMARK  7 active torsions:
REMARK  status: ('A' for Active; 'I' for Inactive)
REMARK    1  A    between atoms: C_1  and  C_2
REMARK    2  A    between atoms: C_2  and  C_3
REMARK    3  A    between atoms: C_2  and  N_4
REMARK    4  A    between atoms: N_4  and  C_5
REMARK    5  A    between atoms: C_5  and  C_6
REMARK    6  A    between atoms: C_10  and  C_19
REMARK    7  A    between atoms: C_19  and  N_20
REMARK                            x       y       z     vdW  Elec       q    Type
REMARK                         _______ _______ _______ _____ _____    ______ ____
ROOT
ATOM      1  N   UNL     1      -1.480  -0.471   0.069  0.00  0.00    -0.305 N 
ATOM      2  C   UNL     1      -2.279  -0.210   1.176  0.00  0.00    +0.101 A 
ATOM      3  C   UNL     1      -3.532  -0.806   1.281  0.00  0.00    -0.027 A 
ATOM      4  C   UNL     1      -4.309  -0.530   2.388  0.00  0.00    +0.010 A 
ATOM      5  C   UNL     1      -3.812   0.333   3.364  0.00  0.00    -0.028 A 
ATOM      6  C   UNL     1      -2.563   0.884   3.202  0.00  0.00    +0.021 A 
ATOM      7  N   UNL     1      -1.841   0.597   2.125  0.00  0.00    -0.346 N 
ATOM      8  C   UNL     1      -1.952   1.811   4.222  0.00  0.00    +0.053 C 
ATOM      9  C   UNL     1      -3.028   2.373   5.149  0.00  0.00    +0.006 C 
ATOM     10  C   UNL     1      -3.853   1.205   5.699  0.00  0.00    +0.005 C 
ATOM     11  C   UNL     1      -4.684   0.623   4.556  0.00  0.00    +0.037 C 
ATOM     12  H   UNL     1      -0.963   0.997   2.030  0.00  0.00    +0.167 HD
ENDROOT
BRANCH   1  14
ATOM     13  C   UNL     1      -2.911   0.648  -1.569  0.00  0.00    +0.028 C 
ATOM     14  C   UNL     1      -1.478   0.454  -1.067  0.00  0.00    +0.069 C 
ATOM     15  C   UNL     1      -0.905   1.802  -0.627  0.00  0.00    +0.028 C 
ENDBRANCH   1  14
BRANCH   1  16
ATOM     16  C   UNL     1      -0.640  -1.671   0.038  0.00  0.00    +0.202 C 
BRANCH  16  17
ATOM     17  C   UNL     1       0.754  -1.320   0.490  0.00  0.00    +0.228 C 
ATOM     18  O   UNL     1       0.997  -0.202   0.895  0.00  0.00    -0.274 OA
ATOM     19  N   UNL     1       1.731  -2.247   0.446  0.00  0.00    -0.328 N 
ATOM     20  H   UNL     1       1.537  -3.141   0.122  0.00  0.00    +0.145 HD
ATOM     21  H   UNL     1       2.628  -2.021   0.737  0.00  0.00    +0.145 HD
ENDBRANCH  16  17
ENDBRANCH   1  16
BRANCH   3  22
ATOM     22  C   UNL     1      -4.032  -1.736   0.205  0.00  0.00    -0.047 C 
BRANCH  22  23
ATOM     23  N   UNL     1      -3.520  -3.090   0.451  0.00  0.00    +0.381 N 
ATOM     24  H   UNL     1      -2.514  -3.062   0.521  0.00  0.00    -0.090 HD
ATOM     25  H   UNL     1      -3.907  -3.445   1.313  0.00  0.00    -0.090 HD
ATOM     26  H   UNL     1      -3.787  -3.695  -0.312  0.00  0.00    -0.090 HD
ENDBRANCH  22  23
ENDBRANCH   3  22
TORSDOF 5
