REMARK  Name = ZINC50394415
REMARK  6 active torsions:
REMARK  status: ('A' for Active; 'I' for Inactive)
REMARK    1  A    between atoms: C_1  and  C_2
REMARK    2  A    between atoms: C_2  and  C_4
REMARK    3  A    between atoms: C_2  and  N_12
REMARK    4  A    between atoms: C_7  and  O_11
REMARK    5  A    between atoms: C_9  and  O_10
REMARK    6  A    between atoms: N_12  and  C_13
REMARK                            x       y       z     vdW  Elec       q    Type
REMARK                         _______ _______ _______ _____ _____    ______ ____
ROOT
ATOM      1  C   UNL     1      -0.019   1.526   0.010  0.00  0.00    +0.029 C 
ATOM      2  C   UNL     1       0.002  -0.004   0.002  0.00  0.00    +0.085 C 
ENDROOT
BRANCH   2   3
ATOM      3  C   UNL     1       0.731  -0.503   1.223  0.00  0.00    +0.011 A 
ATOM      4  C   UNL     1       0.017  -0.951   2.318  0.00  0.00    +0.012 A 
ATOM      5  C   UNL     1       0.682  -1.409   3.439  0.00  0.00    +0.046 A 
ATOM      6  C   UNL     1       2.070  -1.421   3.467  0.00  0.00    +0.120 A 
ATOM      7  C   UNL     1       2.788  -0.973   2.370  0.00  0.00    +0.091 A 
ATOM      8  C   UNL     1       2.118  -0.519   1.244  0.00  0.00    +0.125 A 
BRANCH   8   9
ATOM      9  O   UNL     1       2.820  -0.085   0.164  0.00  0.00    -0.506 OA
ATOM     10  H   UNL     1       3.027   0.860   0.183  0.00  0.00    +0.292 HD
ENDBRANCH   8   9
BRANCH   6  11
ATOM     11  O   UNL     1       2.724  -1.871   4.570  0.00  0.00    -0.507 OA
ATOM     12  H   UNL     1       2.913  -2.820   4.556  0.00  0.00    +0.292 HD
ENDBRANCH   6  11
ENDBRANCH   2   3
BRANCH   2  13
ATOM     13  N   UNL     1      -1.376  -0.512   0.012  0.00  0.00    -0.299 NA
ATOM     14  H   UNL     1      -1.426  -1.413   0.464  0.00  0.00    +0.123 HD
BRANCH  13  15
ATOM     15  C   UNL     1      -1.924  -0.575  -1.349  0.00  0.00    +0.141 C 
ATOM     16  C   UNL     1      -3.451  -0.486  -1.287  0.00  0.00    +0.029 C 
ATOM     17  C   UNL     1      -4.013  -0.828  -2.672  0.00  0.00    +0.021 C 
ATOM     18  C   UNL     1      -3.740  -2.304  -2.961  0.00  0.00    +0.104 C 
ATOM     19  N   UNL     1      -2.335  -2.618  -2.729  0.00  0.00    -0.314 N 
ATOM     20  C   UNL     1      -1.515  -1.869  -1.992  0.00  0.00    +0.230 C 
ATOM     21  O   UNL     1      -0.376  -2.253  -1.835  0.00  0.00    -0.274 OA
ATOM     22  H   UNL     1      -1.976  -3.422  -3.134  0.00  0.00    +0.149 HD
ENDBRANCH  13  15
ENDBRANCH   2  13
TORSDOF 5
