REMARK  Name = ZINC08698215
REMARK  1 active torsions:
REMARK  status: ('A' for Active; 'I' for Inactive)
REMARK    1  A    between atoms: C_2  and  N_9
REMARK                            x       y       z     vdW  Elec       q    Type
REMARK                         _______ _______ _______ _____ _____    ______ ____
ROOT
ATOM      1  C   UNL     1       2.372   1.362  -0.013  0.00  0.00    +0.053 A 
ATOM      2  C   UNL     1       1.161   2.039   0.002  0.00  0.00    +0.145 A 
ATOM      3  C   UNL     1      -0.016   1.315   0.009  0.00  0.00    +0.146 A 
ATOM      4  N   UNL     1       0.002  -0.004   0.002  0.00  0.00    -0.224 NA
ATOM      5  C   UNL     1       1.135  -0.682  -0.013  0.00  0.00    +0.227 A 
ATOM      6  C   UNL     1       2.354  -0.023  -0.021  0.00  0.00    +0.070 A 
ATOM      7  I   UNL     1       4.146  -1.107  -0.043  0.00  0.00    -0.039 I 
ATOM      8  F   UNL     1       1.105  -2.033  -0.019  0.00  0.00    -0.183 F 
ENDROOT
BRANCH   2   9
ATOM      9  N   UNL     1       1.129   3.518   0.010  0.00  0.00    +0.058 N 
ATOM     10  O   UNL     1       0.062   4.105   0.024  0.00  0.00    -0.126 OA
ATOM     11  O   UNL     1       2.171   4.149   0.004  0.00  0.00    -0.126 OA
ENDBRANCH   2   9
TORSDOF 1
