REMARK  Name = ZINC40170154
REMARK  10 active torsions:
REMARK  status: ('A' for Active; 'I' for Inactive)
REMARK    1  A    between atoms: C_1  and  C_2
REMARK    2  A    between atoms: C_2  and  C_3
REMARK    3  A    between atoms: C_3  and  C_5
REMARK    4  A    between atoms: C_3  and  S_18
REMARK    5  A    between atoms: N_7  and  C_8
REMARK    6  A    between atoms: C_9  and  C_15
REMARK    7  A    between atoms: C_10  and  C_14
REMARK    8  A    between atoms: C_11  and  C_13
REMARK    9  A    between atoms: S_18  and  C_19
REMARK   10  A    between atoms: C_30  and  C_32
REMARK                            x       y       z     vdW  Elec       q    Type
REMARK                         _______ _______ _______ _____ _____    ______ ____
ROOT
ATOM      1  C   UNL     1       0.849  -0.512   1.171  0.00  0.00    +0.140 C 
ENDROOT
BRANCH   1   2
ATOM      2  C   UNL     1       0.851  -2.008   0.984  0.00  0.00    +0.231 C 
ATOM      3  O   UNL     1       1.779  -2.547   0.420  0.00  0.00    -0.274 OA
ATOM      4  N   UNL     1      -0.179  -2.746   1.443  0.00  0.00    -0.278 N 
ATOM      5  H   UNL     1      -0.922  -2.314   1.894  0.00  0.00    +0.155 HD
BRANCH   4   6
ATOM      6  C   UNL     1      -0.177  -4.122   1.270  0.00  0.00    +0.084 A 
ATOM      7  C   UNL     1      -1.145  -5.032   1.668  0.00  0.00    +0.068 A 
ATOM      8  C   UNL     1      -0.891  -6.421   1.361  0.00  0.00    -0.027 A 
ATOM      9  C   UNL     1       0.264  -6.678   0.719  0.00  0.00    -0.008 A 
ATOM     10  S   UNL     1       0.993  -5.066   0.526  0.00  0.00    -0.078 S 
ATOM     11  C   UNL     1       0.806  -8.009   0.267  0.00  0.00    +0.052 C 
ATOM     12  C   UNL     1      -1.858  -7.514   1.737  0.00  0.00    +0.045 C 
BRANCH   7  13
ATOM     13  C   UNL     1      -2.363  -4.607   2.365  0.00  0.00    +0.244 C 
ATOM     14  O   UNL     1      -3.359  -4.316   1.729  0.00  0.00    -0.270 OA
ATOM     15  N   UNL     1      -2.381  -4.540   3.712  0.00  0.00    -0.325 N 
ATOM     16  H   UNL     1      -1.587  -4.772   4.219  0.00  0.00    +0.145 HD
ATOM     17  H   UNL     1      -3.186  -4.259   4.173  0.00  0.00    +0.145 HD
ENDBRANCH   7  13
ENDBRANCH   4   6
ENDBRANCH   1   2
BRANCH   1  19
ATOM     18  C   UNL     1      -0.154   1.635   0.379  0.00  0.00    +0.005 C 
ATOM     19  C   UNL     1      -0.040   0.134   0.106  0.00  0.00    +0.020 C 
ENDBRANCH   1  19
BRANCH   1  20
ATOM     20  S   UNL     1       2.541   0.119   1.011  0.00  0.00    -0.073 S 
BRANCH  20  21
ATOM     21  C   UNL     1       3.377  -0.541   2.415  0.00  0.00    +0.197 A 
ATOM     22  N   UNL     1       2.835  -1.238   3.389  0.00  0.00    -0.122 NA
ATOM     23  N   UNL     1       3.729  -1.565   4.253  0.00  0.00    -0.129 NA
ATOM     24  C   UNL     1       4.905  -1.093   3.881  0.00  0.00    +0.162 A 
ATOM     25  N   UNL     1       4.708  -0.429   2.691  0.00  0.00    -0.270 N 
ATOM     26  C   UNL     1       5.765   0.180   2.036  0.00  0.00    +0.058 A 
ATOM     27  C   UNL     1       5.569   0.853   0.837  0.00  0.00    +0.027 A 
ATOM     28  C   UNL     1       6.637   1.453   0.202  0.00  0.00    +0.002 A 
ATOM     29  C   UNL     1       7.910   1.392   0.749  0.00  0.00    +0.001 A 
ATOM     30  C   UNL     1       8.126   0.730   1.937  0.00  0.00    +0.010 A 
ATOM     31  C   UNL     1       7.054   0.117   2.592  0.00  0.00    +0.002 A 
ATOM     32  C   UNL     1       7.253  -0.595   3.859  0.00  0.00    -0.038 A 
ATOM     33  C   UNL     1       6.191  -1.169   4.466  0.00  0.00    +0.052 A 
ATOM     34  C   UNL     1       8.624  -0.680   4.479  0.00  0.00    +0.044 C 
ENDBRANCH  20  21
ENDBRANCH   1  20
TORSDOF 6
