REMARK  Name = ZINC14076060
REMARK  8 active torsions:
REMARK  status: ('A' for Active; 'I' for Inactive)
REMARK    1  A    between atoms: C_4  and  N_7
REMARK    2  A    between atoms: N_10  and  C_13
REMARK    3  A    between atoms: C_13  and  C_14
REMARK    4  A    between atoms: C_14  and  C_16
REMARK    5  A    between atoms: C_14  and  O_26
REMARK    6  A    between atoms: C_16  and  O_17
REMARK    7  A    between atoms: O_17  and  C_18
REMARK    8  A    between atoms: C_21  and  C_24
REMARK                            x       y       z     vdW  Elec       q    Type
REMARK                         _______ _______ _______ _____ _____    ______ ____
ROOT
ATOM      1  C   UNL     1      -2.517   5.561   0.170  0.00  0.00    +0.185 C 
ENDROOT
BRANCH   1   5
ATOM      2  N   UNL     1      -5.760   6.780   1.109  0.00  0.00    -0.161 N 
ATOM      3  C   UNL     1      -4.555   6.275   1.452  0.00  0.00    +0.369 A 
ATOM      4  O   UNL     1      -4.158   6.037   2.579  0.00  0.00    -0.243 OA
ATOM      5  N   UNL     1      -3.877   6.089   0.299  0.00  0.00    -0.191 N 
ATOM      6  N   UNL     1      -4.713   6.489  -0.750  0.00  0.00    -0.042 NA
ATOM      7  N   UNL     1      -5.790   6.883  -0.287  0.00  0.00    -0.038 NA
BRANCH   2  11
ATOM      8  C   UNL     1      -8.834   7.820   3.724  0.00  0.00    +0.000 A 
ATOM      9  C   UNL     1      -9.005   7.978   2.361  0.00  0.00    +0.002 A 
ATOM     10  C   UNL     1      -7.988   7.634   1.492  0.00  0.00    +0.028 A 
ATOM     11  C   UNL     1      -6.793   7.130   1.988  0.00  0.00    +0.072 A 
ATOM     12  C   UNL     1      -6.626   6.968   3.357  0.00  0.00    +0.028 A 
ATOM     13  C   UNL     1      -7.645   7.318   4.222  0.00  0.00    +0.002 A 
ENDBRANCH   2  11
ENDBRANCH   1   5
BRANCH   1  14
ATOM     14  C   UNL     1      -2.572   4.037   0.036  0.00  0.00    +0.173 C 
BRANCH  14  15
ATOM     15  O   UNL     1      -3.230   3.690  -1.184  0.00  0.00    -0.387 OA
ATOM     16  H   UNL     1      -2.794   4.030  -1.977  0.00  0.00    +0.210 HD
ENDBRANCH  14  15
BRANCH  14  17
ATOM     17  C   UNL     1      -1.150   3.474   0.026  0.00  0.00    +0.262 C 
BRANCH  17  18
ATOM     18  O   UNL     1      -1.203   2.046   0.019  0.00  0.00    -0.489 OA
BRANCH  18  19
ATOM     19  C   UNL     1      -0.017   1.385   0.010  0.00  0.00    +0.121 A 
ATOM     20  C   UNL     1       1.175   2.100   0.002  0.00  0.00    +0.047 A 
ATOM     21  C   UNL     1       2.380   1.434  -0.013  0.00  0.00    +0.022 A 
ATOM     22  C   UNL     1       2.404   0.037  -0.020  0.00  0.00    +0.052 A 
ATOM     23  C   UNL     1       1.203  -0.678  -0.013  0.00  0.00    +0.022 A 
ATOM     24  C   UNL     1       0.002  -0.004   0.002  0.00  0.00    +0.047 A 
BRANCH  22  25
ATOM     25  C   UNL     1       3.655  -0.660  -0.035  0.00  0.00    +0.099 C 
ATOM     26  N   UNL     1       4.647  -1.213  -0.047  0.00  0.00    -0.191 NA
ENDBRANCH  22  25
ENDBRANCH  18  19
ENDBRANCH  17  18
ENDBRANCH  14  17
ENDBRANCH   1  14
TORSDOF 8
