REMARK  Name = ZINC36496871
REMARK  13 active torsions:
REMARK  status: ('A' for Active; 'I' for Inactive)
REMARK    1  A    between atoms: C_1  and  C_2
REMARK    2  A    between atoms: C_2  and  C_3
REMARK    3  A    between atoms: C_3  and  C_5
REMARK    4  A    between atoms: C_3  and  C_11
REMARK    5  A    between atoms: N_13  and  C_14
REMARK    6  A    between atoms: N_13  and  C_20
REMARK    7  A    between atoms: C_14  and  C_15
REMARK    8  A    between atoms: C_20  and  C_22
REMARK    9  A    between atoms: C_20  and  C_31
REMARK   10  A    between atoms: C_23  and  O_30
REMARK   11  A    between atoms: C_25  and  O_29
REMARK   12  A    between atoms: C_27  and  O_28
REMARK   13  A    between atoms: N_33  and  C_34
REMARK                            x       y       z     vdW  Elec       q    Type
REMARK                         _______ _______ _______ _____ _____    ______ ____
ROOT
ATOM      1  C   UNL     1      -0.219   0.758   3.336  0.00  0.00    +0.200 C 
ENDROOT
BRANCH   1   2
ATOM      2  C   UNL     1       0.680   1.249   4.440  0.00  0.00    +0.065 A 
ATOM      3  C   UNL     1       1.244   2.514   4.364  0.00  0.00    +0.129 A 
ATOM      4  C   UNL     1       2.072   2.966   5.381  0.00  0.00    +0.091 A 
ATOM      5  C   UNL     1       2.335   2.155   6.473  0.00  0.00    +0.124 A 
ATOM      6  C   UNL     1       1.770   0.890   6.550  0.00  0.00    +0.091 A 
ATOM      7  C   UNL     1       0.939   0.439   5.536  0.00  0.00    +0.129 A 
BRANCH   7   8
ATOM      8  O   UNL     1       0.382  -0.798   5.613  0.00  0.00    -0.506 OA
ATOM      9  H   UNL     1       0.921  -1.497   5.218  0.00  0.00    +0.292 HD
ENDBRANCH   7   8
BRANCH   5  10
ATOM     10  O   UNL     1       3.147   2.598   7.469  0.00  0.00    -0.507 OA
ATOM     11  H   UNL     1       2.682   3.064   8.177  0.00  0.00    +0.292 HD
ENDBRANCH   5  10
BRANCH   3  12
ATOM     12  O   UNL     1       0.986   3.310   3.293  0.00  0.00    -0.506 OA
ATOM     13  H   UNL     1       0.265   3.938   3.435  0.00  0.00    +0.292 HD
ENDBRANCH   3  12
ENDBRANCH   1   2
BRANCH   1  14
ATOM     14  C   UNL     1      -1.560   1.437   3.439  0.00  0.00    +0.239 C 
ATOM     15  O   UNL     1      -2.137   1.797   2.435  0.00  0.00    -0.273 OA
ATOM     16  N   UNL     1      -2.118   1.645   4.648  0.00  0.00    -0.311 N 
ATOM     17  H   UNL     1      -1.657   1.358   5.452  0.00  0.00    +0.149 HD
BRANCH  16  18
ATOM     18  C   UNL     1      -3.422   2.306   4.749  0.00  0.00    +0.073 C 
ATOM     19  C   UNL     1      -3.227   3.824   4.742  0.00  0.00    +0.022 C 
ATOM     20  C   UNL     1      -4.588   4.514   4.847  0.00  0.00    +0.002 C 
ATOM     21  C   UNL     1      -5.273   4.095   6.149  0.00  0.00    +0.000 C 
ATOM     22  C   UNL     1      -5.468   2.577   6.157  0.00  0.00    +0.002 C 
ATOM     23  C   UNL     1      -4.107   1.887   6.052  0.00  0.00    +0.022 C 
ENDBRANCH  16  18
ENDBRANCH   1  14
BRANCH   1  26
ATOM     24  C   UNL     1       1.296   0.230   1.501  0.00  0.00    +0.224 C 
ATOM     25  O   UNL     1       1.660  -0.747   2.120  0.00  0.00    -0.275 OA
ATOM     26  N   UNL     1       0.386   1.068   2.038  0.00  0.00    -0.278 N 
BRANCH  24  27
ATOM     27  C   UNL     1       1.859   0.508   0.132  0.00  0.00    +0.105 C 
BRANCH  27  28
ATOM     28  C   UNL     1       3.171   1.238   0.267  0.00  0.00    -0.036 A 
ATOM     29  C   UNL     1       4.223   0.650   0.943  0.00  0.00    +0.004 A 
ATOM     30  C   UNL     1       5.426   1.320   1.067  0.00  0.00    +0.000 A 
ATOM     31  C   UNL     1       5.576   2.578   0.514  0.00  0.00    +0.000 A 
ATOM     32  C   UNL     1       4.524   3.166  -0.163  0.00  0.00    +0.000 A 
ATOM     33  C   UNL     1       3.323   2.494  -0.291  0.00  0.00    +0.004 A 
ENDBRANCH  27  28
BRANCH  27  35
ATOM     34  C   UNL     1       0.741  -1.507  -0.833  0.00  0.00    +0.005 C 
ATOM     35  C   UNL     1       2.086  -0.814  -0.604  0.00  0.00    +0.014 C 
ENDBRANCH  27  35
ENDBRANCH  24  27
BRANCH  26  36
ATOM     36  C   UNL     1       0.004   2.289   1.324  0.00  0.00    +0.183 C 
BRANCH  36  37
ATOM     37  C   UNL     1      -0.954   1.942   0.214  0.00  0.00    +0.122 A 
ATOM     38  C   UNL     1      -2.142   2.531  -0.014  0.00  0.00    +0.046 A 
ATOM     39  C   UNL     1      -2.702   1.899  -1.148  0.00  0.00    +0.041 A 
ATOM     40  C   UNL     1      -1.823   0.962  -1.545  0.00  0.00    +0.195 A 
ATOM     41  O   UNL     1      -0.764   0.996  -0.721  0.00  0.00    -0.466 OA
ENDBRANCH  36  37
ENDBRANCH  26  36
ENDBRANCH   1  26
TORSDOF 12
