REMARK  Name = ZINC16571108
REMARK  13 active torsions:
REMARK  status: ('A' for Active; 'I' for Inactive)
REMARK    1  A    between atoms: C_1  and  C_2
REMARK    2  A    between atoms: C_2  and  C_3
REMARK    3  A    between atoms: N_7  and  C_9
REMARK    4  A    between atoms: C_10  and  C_20
REMARK    5  A    between atoms: N_13  and  C_16
REMARK    6  A    between atoms: C_16  and  C_17
REMARK    7  A    between atoms: C_17  and  C_18
REMARK    8  A    between atoms: C_17  and  C_19
REMARK    9  A    between atoms: C_21  and  C_33
REMARK   10  A    between atoms: N_23  and  C_26
REMARK   11  A    between atoms: C_24  and  O_25
REMARK   12  A    between atoms: C_33  and  C_34
REMARK   13  A    between atoms: C_33  and  C_35
REMARK                            x       y       z     vdW  Elec       q    Type
REMARK                         _______ _______ _______ _____ _____    ______ ____
ROOT
ATOM      1  C   UNL     1      -2.342  -1.234  -2.836  0.00  0.00    +0.122 C 
ATOM      2  C   UNL     1      -1.226  -1.839  -2.276  0.00  0.00    +0.080 C 
ATOM      3  C   UNL     1      -1.698  -3.127  -1.711  0.00  0.00    +0.256 C 
ATOM      4  O   UNL     1      -1.011  -3.943  -1.131  0.00  0.00    -0.269 OA
ATOM      5  N   UNL     1      -3.017  -3.238  -1.948  0.00  0.00    -0.233 N 
ATOM      6  C   UNL     1      -3.467  -2.160  -2.611  0.00  0.00    +0.271 C 
ATOM      7  O   UNL     1      -4.615  -1.976  -2.965  0.00  0.00    -0.268 OA
ENDROOT
BRANCH   1  12
ATOM      8  C   UNL     1      -3.161   2.201  -3.548  0.00  0.00    -0.031 A 
ATOM      9  C   UNL     1      -2.481   2.402  -4.742  0.00  0.00    +0.006 A 
ATOM     10  C   UNL     1      -1.753   1.349  -5.277  0.00  0.00    +0.018 A 
ATOM     11  C   UNL     1      -1.727   0.141  -4.612  0.00  0.00    +0.091 A 
ATOM     12  N   UNL     1      -2.388  -0.020  -3.472  0.00  0.00    -0.318 N 
ATOM     13  C   UNL     1      -3.098   0.967  -2.936  0.00  0.00    +0.095 A 
BRANCH   8  15
ATOM     14  C   UNL     1      -5.400   3.264  -3.459  0.00  0.00    +0.009 C 
ATOM     15  C   UNL     1      -3.965   3.317  -2.931  0.00  0.00    +0.033 C 
ENDBRANCH   8  15
ENDBRANCH   1  12
BRANCH   2  16
ATOM     16  C   UNL     1       0.145  -1.309  -2.245  0.00  0.00    +0.074 A 
ATOM     17  C   UNL     1       0.707  -0.490  -1.238  0.00  0.00    +0.078 A 
ATOM     18  N   UNL     1       1.940  -0.224  -1.570  0.00  0.00    -0.167 NA
ATOM     19  N   UNL     1       2.236  -0.853  -2.784  0.00  0.00    -0.200 N 
ATOM     20  C   UNL     1       1.136  -1.517  -3.202  0.00  0.00    +0.224 A 
BRANCH  19  21
ATOM     21  C   UNL     1       3.466  -0.800  -3.456  0.00  0.00    +0.069 A 
ATOM     22  C   UNL     1       3.922  -1.906  -4.160  0.00  0.00    +0.029 A 
ATOM     23  C   UNL     1       5.131  -1.849  -4.824  0.00  0.00    +0.022 A 
ATOM     24  C   UNL     1       5.892  -0.694  -4.781  0.00  0.00    +0.041 A 
ATOM     25  C   UNL     1       5.442   0.408  -4.075  0.00  0.00    +0.022 A 
ATOM     26  C   UNL     1       4.231   0.358  -3.413  0.00  0.00    +0.029 A 
ATOM     27 CL   UNL     1       7.415  -0.628  -5.612  0.00  0.00    -0.084 Cl
ENDBRANCH  19  21
BRANCH  17  28
ATOM     28  C   UNL     1       0.002  -0.004   0.002  0.00  0.00    +0.034 C 
ATOM     29  C   UNL     1      -0.019   1.526   0.010  0.00  0.00    +0.014 C 
ATOM     30  C   UNL     1       0.742  -0.511   1.242  0.00  0.00    +0.014 C 
ENDBRANCH  17  28
BRANCH  20  31
ATOM     31  O   UNL     1       1.019  -2.246  -4.336  0.00  0.00    -0.492 OA
ATOM     32  H   UNL     1       0.716  -1.738  -5.101  0.00  0.00    +0.294 HD
ENDBRANCH  20  31
ENDBRANCH   2  16
BRANCH   5  33
ATOM     33  C   UNL     1      -3.846  -4.375  -1.541  0.00  0.00    +0.120 C 
BRANCH  33  34
ATOM     34  C   UNL     1      -4.416  -4.117  -0.145  0.00  0.00    +0.001 C 
ATOM     35  C   UNL     1      -5.367  -2.919  -0.196  0.00  0.00    +0.009 C 
ATOM     36  C   UNL     1      -5.179  -5.354   0.332  0.00  0.00    +0.009 C 
ENDBRANCH  33  34
ENDBRANCH   5  33
TORSDOF 8
