REMARK  Name = ZINC21318870
REMARK  10 active torsions:
REMARK  status: ('A' for Active; 'I' for Inactive)
REMARK    1  A    between atoms: C_1  and  O_2
REMARK    2  A    between atoms: O_2  and  C_3
REMARK    3  A    between atoms: C_7  and  C_10
REMARK    4  A    between atoms: C_8  and  O_9
REMARK    5  A    between atoms: N_11  and  N_12
REMARK    6  A    between atoms: C_16  and  S_19
REMARK    7  A    between atoms: N_17  and  N_18
REMARK    8  A    between atoms: S_19  and  C_20
REMARK    9  A    between atoms: C_20  and  C_21
REMARK   10  A    between atoms: C_21  and  C_23
REMARK                            x       y       z     vdW  Elec       q    Type
REMARK                         _______ _______ _______ _____ _____    ______ ____
ROOT
ATOM      1  N   UNL     1      -2.939   1.588   0.045  0.00  0.00    -0.204 N 
ATOM      2  C   UNL     1      -2.081   1.760  -1.031  0.00  0.00    +0.254 A 
ATOM      3  N   UNL     1      -2.412   2.210  -2.217  0.00  0.00    -0.109 NA
ATOM      4  N   UNL     1      -1.258   2.230  -3.010  0.00  0.00    -0.119 NA
ATOM      5  C   UNL     1      -0.257   1.797  -2.281  0.00  0.00    +0.210 A 
ATOM      6  N   UNL     1      -0.741   1.490  -1.041  0.00  0.00    -0.211 N 
ATOM      7  H   UNL     1      -2.554   1.202   1.000  0.00  0.00    +0.177 HD
ENDROOT
BRANCH   6   8
ATOM      8  N   UNL     1      -0.012   1.005   0.008  0.00  0.00    -0.294 N 
ATOM      9  H   UNL     1       1.067   0.823  -0.110  0.00  0.00    +0.163 HD
ATOM     10  H   UNL     1      -0.503   0.796   0.969  0.00  0.00    +0.163 HD
ENDBRANCH   6   8
BRANCH   1  12
ATOM     11  C   UNL     1      -5.101   1.746   0.923  0.00  0.00    +0.142 C 
ATOM     12  N   UNL     1      -4.298   1.907  -0.085  0.00  0.00    -0.187 NA
BRANCH  11  17
ATOM     13  C   UNL     1      -8.373   2.885  -0.546  0.00  0.00    +0.162 A 
ATOM     14  C   UNL     1      -9.223   2.709   0.536  0.00  0.00    +0.049 A 
ATOM     15  C   UNL     1      -8.734   2.223   1.736  0.00  0.00    +0.004 A 
ATOM     16  C   UNL     1      -7.398   1.909   1.868  0.00  0.00    +0.013 A 
ATOM     17  C   UNL     1      -6.530   2.081   0.786  0.00  0.00    +0.040 A 
ATOM     18  C   UNL     1      -7.024   2.578  -0.426  0.00  0.00    +0.167 A 
BRANCH  13  20
ATOM     19  C   UNL     1     -10.256   3.663  -1.773  0.00  0.00    +0.277 C 
ATOM     20  O   UNL     1      -8.860   3.362  -1.723  0.00  0.00    -0.491 OA
ENDBRANCH  13  20
BRANCH  18  21
ATOM     21  O   UNL     1      -6.187   2.755  -1.483  0.00  0.00    -0.503 OA
ATOM     22  H   UNL     1      -5.119   2.511  -1.385  0.00  0.00    +0.292 HD
ENDBRANCH  18  21
ENDBRANCH  11  17
ENDBRANCH   1  12
BRANCH   5  23
ATOM     23  S   UNL     1       1.416   1.635  -2.810  0.00  0.00    -0.076 S 
BRANCH  23  24
ATOM     24  C   UNL     1       1.388   2.201  -4.533  0.00  0.00    +0.157 C 
BRANCH  24  25
ATOM     25  C   UNL     1       2.776   2.112  -5.113  0.00  0.00    +0.173 C 
ATOM     26  O   UNL     1       3.694   1.707  -4.431  0.00  0.00    -0.291 OA
BRANCH  25  27
ATOM     27  C   UNL     1       3.018   2.517  -6.506  0.00  0.00    +0.018 A 
ATOM     28  C   UNL     1       1.962   2.979  -7.298  0.00  0.00    +0.012 A 
ATOM     29  C   UNL     1       2.197   3.363  -8.601  0.00  0.00    +0.016 A 
ATOM     30  C   UNL     1       3.474   3.280  -9.130  0.00  0.00    +0.018 A 
ATOM     31  C   UNL     1       4.525   2.817  -8.355  0.00  0.00    +0.016 A 
ATOM     32  C   UNL     1       4.306   2.436  -7.048  0.00  0.00    +0.012 A 
ATOM     33 BR   UNL     1       3.786   3.800 -10.921  0.00  0.00    -0.050 Br
ENDBRANCH  25  27
ENDBRANCH  24  25
ENDBRANCH  23  24
ENDBRANCH   5  23
TORSDOF 9
