REMARK  Name = ZINC20271450
REMARK  10 active torsions:
REMARK  status: ('A' for Active; 'I' for Inactive)
REMARK    1  A    between atoms: C_1  and  C_2
REMARK    2  A    between atoms: C_2  and  C_33
REMARK    3  A    between atoms: C_6  and  C_17
REMARK    4  A    between atoms: C_11  and  C_15
REMARK    5  A    between atoms: C_11  and  C_16
REMARK    6  A    between atoms: C_19  and  O_28
REMARK    7  A    between atoms: C_20  and  O_24
REMARK    8  A    between atoms: O_24  and  C_25
REMARK    9  A    between atoms: C_25  and  C_26
REMARK   10  A    between atoms: O_28  and  C_29
REMARK                            x       y       z     vdW  Elec       q    Type
REMARK                         _______ _______ _______ _____ _____    ______ ____
ROOT
ATOM      1  C   UNL     1       2.960   4.404  -3.500  0.00  0.00    +0.011 C 
ATOM      2  C   UNL     1       4.131   3.431  -3.644  0.00  0.00    -0.023 C 
ATOM      3  C   UNL     1       5.033   3.526  -2.411  0.00  0.00    +0.058 C 
ATOM      4  C   UNL     1       4.253   3.135  -1.181  0.00  0.00    +0.016 C 
ATOM      5  C   UNL     1       3.246   2.240  -1.250  0.00  0.00    +0.024 C 
ATOM      6  C   UNL     1       2.479   1.854  -0.012  0.00  0.00    +0.090 C 
ATOM      7  C   UNL     1       3.251   2.192   1.236  0.00  0.00    +0.024 C 
ATOM      8  C   UNL     1       4.258   3.090   1.197  0.00  0.00    +0.016 C 
ATOM      9  N   UNL     1       4.587   3.702   0.018  0.00  0.00    -0.320 N 
ATOM     10  C   UNL     1       5.042   3.436   2.438  0.00  0.00    +0.058 C 
ATOM     11  C   UNL     1       4.144   3.294   3.669  0.00  0.00    -0.023 C 
ATOM     12  C   UNL     1       3.616   1.857   3.723  0.00  0.00    +0.086 C 
ATOM     13  C   UNL     1       2.897   1.551   2.437  0.00  0.00    +0.162 C 
ATOM     14  O   UNL     1       1.995   0.737   2.435  0.00  0.00    -0.292 OA
ATOM     15  C   UNL     1       2.969   4.269   3.565  0.00  0.00    +0.011 C 
ATOM     16  C   UNL     1       4.949   3.593   4.935  0.00  0.00    +0.011 C 
ATOM     17  C   UNL     1       2.885   1.646  -2.473  0.00  0.00    +0.162 C 
ATOM     18  O   UNL     1       1.981   0.835  -2.499  0.00  0.00    -0.292 OA
ATOM     19  C   UNL     1       3.600   1.998  -3.749  0.00  0.00    +0.086 C 
ATOM     20  C   UNL     1       4.937   3.778  -4.897  0.00  0.00    +0.011 C 
ATOM     21  H   UNL     1       5.127   4.661   0.042  0.00  0.00    +0.152 HD
ENDROOT
BRANCH   6  22
ATOM     22  C   UNL     1       1.165   2.593   0.005  0.00  0.00    -0.018 A 
ATOM     23  C   UNL     1       1.151   3.976   0.012  0.00  0.00    +0.055 A 
ATOM     24  C   UNL     1      -0.055   4.656   0.028  0.00  0.00    +0.162 A 
ATOM     25  C   UNL     1      -1.252   3.946   0.035  0.00  0.00    +0.164 A 
ATOM     26  C   UNL     1      -1.232   2.561   0.022  0.00  0.00    +0.065 A 
ATOM     27  C   UNL     1      -0.024   1.887   0.012  0.00  0.00    +0.026 A 
ATOM     28 BR   UNL     1       0.002  -0.004   0.002  0.00  0.00    -0.050 Br
BRANCH  24  29
ATOM     29  O   UNL     1      -0.070   6.016   0.035  0.00  0.00    -0.491 OA
ATOM     30  C   UNL     1       1.196   6.679   0.026  0.00  0.00    +0.277 C 
ENDBRANCH  24  29
BRANCH  25  31
ATOM     31  O   UNL     1      -2.438   4.610   0.051  0.00  0.00    -0.474 OA
BRANCH  31  32
ATOM     32  C   UNL     1      -3.626   3.816   0.058  0.00  0.00    +0.347 C 
BRANCH  32  33
ATOM     33  C   UNL     1      -4.806   4.697   0.074  0.00  0.00    +0.104 C 
ATOM     34  N   UNL     1      -5.715   5.377   0.087  0.00  0.00    -0.193 NA
ENDBRANCH  32  33
ENDBRANCH  31  32
ENDBRANCH  25  31
ENDBRANCH   6  22
TORSDOF 5
