REMARK  Name = ZINC66885162
REMARK  8 active torsions:
REMARK  status: ('A' for Active; 'I' for Inactive)
REMARK    1  A    between atoms: C_1  and  C_2
REMARK    2  A    between atoms: C_2  and  C_4
REMARK    3  A    between atoms: C_2  and  O_14
REMARK    4  A    between atoms: O_14  and  C_15
REMARK    5  A    between atoms: C_15  and  C_17
REMARK    6  A    between atoms: C_18  and  C_19
REMARK    7  A    between atoms: C_22  and  N_25
REMARK    8  A    between atoms: C_26  and  C_28
REMARK                            x       y       z     vdW  Elec       q    Type
REMARK                         _______ _______ _______ _____ _____    ______ ____
ROOT
ATOM      1  C   UNL     1      -0.057  -0.479  -2.330  0.00  0.00    +0.333 C 
ATOM      2  O   UNL     1      -1.268  -0.422  -2.234  0.00  0.00    -0.246 OA
ENDROOT
BRANCH   1   3
ATOM      3  C   UNL     1       0.538  -0.941  -3.531  0.00  0.00    +0.092 C 
ATOM      4  C   UNL     1      -0.240  -1.319  -4.569  0.00  0.00    +0.015 C 
BRANCH   4   5
ATOM      5  C   UNL     1       0.377  -1.798  -5.813  0.00  0.00    -0.025 A 
ATOM      6  C   UNL     1       1.771  -1.870  -5.924  0.00  0.00    +0.010 A 
ATOM      7  C   UNL     1       2.344  -2.319  -7.092  0.00  0.00    +0.024 A 
ATOM      8  C   UNL     1       1.540  -2.702  -8.161  0.00  0.00    +0.033 A 
ATOM      9  C   UNL     1       0.154  -2.632  -8.056  0.00  0.00    +0.024 A 
ATOM     10  C   UNL     1      -0.428  -2.191  -6.890  0.00  0.00    +0.010 A 
BRANCH   8  11
ATOM     11  N   UNL     1       2.126  -3.156  -9.343  0.00  0.00    -0.286 N 
ATOM     12  C   UNL     1       3.278  -3.853  -9.299  0.00  0.00    +0.214 C 
ATOM     13  O   UNL     1       3.756  -4.169  -8.230  0.00  0.00    -0.276 OA
ATOM     14  C   UNL     1       3.973  -4.242 -10.579  0.00  0.00    +0.109 C 
ATOM     15  H   UNL     1       1.703  -2.970 -10.196  0.00  0.00    +0.155 HD
ENDBRANCH   8  11
ENDBRANCH   4   5
ENDBRANCH   1   3
BRANCH   1  16
ATOM     16  O   UNL     1       0.721  -0.102  -1.294  0.00  0.00    -0.454 OA
BRANCH  16  18
ATOM     17  C   UNL     1      -0.162   1.866  -0.202  0.00  0.00    +0.057 C 
ATOM     18  C   UNL     1       0.054   0.354  -0.115  0.00  0.00    +0.204 C 
BRANCH  18  19
ATOM     19  C   UNL     1       0.896   0.035   1.094  0.00  0.00    -0.004 A 
ATOM     20  C   UNL     1       2.268   0.199   1.041  0.00  0.00    +0.011 A 
ATOM     21  C   UNL     1       3.044  -0.093   2.146  0.00  0.00    +0.050 A 
ATOM     22  C   UNL     1       2.449  -0.551   3.312  0.00  0.00    +0.162 A 
ATOM     23  C   UNL     1       1.069  -0.713   3.366  0.00  0.00    +0.162 A 
ATOM     24  C   UNL     1       0.296  -0.414   2.254  0.00  0.00    +0.056 A 
ATOM     25  O   UNL     1       0.464  -1.153   4.503  0.00  0.00    -0.485 OA
ATOM     26  C   UNL     1       1.302  -1.790   5.473  0.00  0.00    +0.270 C 
ATOM     27  C   UNL     1       2.562  -0.934   5.656  0.00  0.00    +0.270 C 
ATOM     28  O   UNL     1       3.227  -0.838   4.392  0.00  0.00    -0.485 OA
ENDBRANCH  18  19
ENDBRANCH  16  18
ENDBRANCH   1  16
TORSDOF 6
