REMARK  Name = ZINC49060973
REMARK  5 active torsions:
REMARK  status: ('A' for Active; 'I' for Inactive)
REMARK    1  A    between atoms: C_4  and  S_7
REMARK    2  A    between atoms: S_7  and  N_10
REMARK    3  A    between atoms: N_10  and  C_11
REMARK    4  A    between atoms: N_10  and  C_15
REMARK    5  A    between atoms: C_11  and  C_12
REMARK                            x       y       z     vdW  Elec       q    Type
REMARK                         _______ _______ _______ _____ _____    ______ ____
ROOT
ATOM      1  N   UNL     1       3.173  -2.560  -0.043  0.00  0.00    -0.164 NA
ENDROOT
BRANCH   1   2
ATOM      2  C   UNL     1       3.889  -2.634  -1.320  0.00  0.00    +0.077 C 
ATOM      3  C   UNL     1       4.633  -3.969  -1.413  0.00  0.00    +0.001 C 
ATOM      4  C   UNL     1       5.441  -4.006  -2.712  0.00  0.00    -0.081 C 
ATOM      5  N   UNL     1       6.410  -2.903  -2.721  0.00  0.00    +0.379 N 
ATOM      6  C   UNL     1       5.701  -1.618  -2.704  0.00  0.00    -0.081 C 
ATOM      7  C   UNL     1       4.902  -1.489  -1.405  0.00  0.00    +0.001 C 
ATOM      8  H   UNL     1       7.002  -2.970  -1.907  0.00  0.00    -0.086 HD
ATOM      9  H   UNL     1       6.977  -2.962  -3.554  0.00  0.00    -0.086 HD
ENDBRANCH   1   2
BRANCH   1  10
ATOM     10  S   UNL     1       1.527  -2.376  -0.026  0.00  0.00    +0.069 S 
ATOM     11  O   UNL     1       1.075  -2.885   1.220  0.00  0.00    -0.152 OA
ATOM     12  O   UNL     1       1.050  -2.870  -1.270  0.00  0.00    -0.152 OA
BRANCH  10  16
ATOM     13  C   UNL     1      -0.017   1.379   0.010  0.00  0.00    +0.025 A 
ATOM     14  C   UNL     1       1.160   2.052   0.002  0.00  0.00    +0.048 A 
ATOM     15  S   UNL     1       2.348   0.720  -0.017  0.00  0.00    -0.076 S 
ATOM     16  C   UNL     1       1.197  -0.645  -0.013  0.00  0.00    +0.157 A 
ATOM     17  C   UNL     1       0.002  -0.004   0.002  0.00  0.00    +0.051 A 
ATOM     18 BR   UNL     1      -1.614  -0.986   0.013  0.00  0.00    -0.048 Br
ENDBRANCH  10  16
ENDBRANCH   1  10
BRANCH   1  19
ATOM     19  C   UNL     1       3.913  -2.649   1.218  0.00  0.00    +0.205 C 
BRANCH  19  20
ATOM     20  C   UNL     1       4.116  -4.097   1.580  0.00  0.00    +0.226 C 
ATOM     21  O   UNL     1       3.684  -4.970   0.856  0.00  0.00    -0.275 OA
ATOM     22  N   UNL     1       4.777  -4.423   2.709  0.00  0.00    -0.328 N 
ATOM     23  H   UNL     1       5.122  -3.726   3.288  0.00  0.00    +0.145 HD
ATOM     24  H   UNL     1       4.907  -5.356   2.942  0.00  0.00    +0.145 HD
ENDBRANCH  19  20
ENDBRANCH   1  19
TORSDOF 5
