REMARK  Name = ZINC19897238
REMARK  9 active torsions:
REMARK  status: ('A' for Active; 'I' for Inactive)
REMARK    1  A    between atoms: C_1  and  C_2
REMARK    2  A    between atoms: C_2  and  C_3
REMARK    3  A    between atoms: C_3  and  C_4
REMARK    4  A    between atoms: C_4  and  C_5
REMARK    5  A    between atoms: C_5  and  C_6
REMARK    6  A    between atoms: C_12  and  C_13
REMARK    7  A    between atoms: C_15  and  C_27
REMARK    8  A    between atoms: N_16  and  C_19
REMARK    9  A    between atoms: C_17  and  C_18
REMARK                            x       y       z     vdW  Elec       q    Type
REMARK                         _______ _______ _______ _____ _____    ______ ____
ROOT
ATOM      1  C   UNL     1      -2.429  -4.323   1.247  0.00  0.00    +0.100 C 
ATOM      2  N   UNL     1      -1.484  -5.207   1.105  0.00  0.00    -0.169 NA
ATOM      3  N   UNL     1      -1.761  -6.490   0.685  0.00  0.00    -0.154 N 
ATOM      4  C   UNL     1      -0.830  -7.546   0.585  0.00  0.00    +0.132 C 
ATOM      5  N   UNL     1       0.293  -7.578   1.253  0.00  0.00    -0.385 N 
ATOM      6  C   UNL     1      -1.252  -8.619  -0.357  0.00  0.00    +0.079 C 
ATOM      7  C   UNL     1      -0.337  -9.333  -1.103  0.00  0.00    +0.026 C 
ATOM      8  C   UNL     1      -2.709  -8.880  -0.451  0.00  0.00    +0.273 C 
ATOM      9  O   UNL     1      -3.130  -9.970  -0.803  0.00  0.00    -0.268 OA
ATOM     10  N   UNL     1      -3.554  -7.879  -0.135  0.00  0.00    -0.152 NA
ATOM     11  C   UNL     1      -3.073  -6.767   0.362  0.00  0.00    +0.181 C 
ATOM     12  S   UNL     1      -3.886  -5.247   0.778  0.00  0.00    -0.038 S 
ATOM     13  H   UNL     1       0.561  -6.815   1.788  0.00  0.00    +0.157 HD
ATOM     14  H   UNL     1       0.859  -8.365   1.213  0.00  0.00    +0.157 HD
ENDROOT
BRANCH   7  15
ATOM     15  C   UNL     1       1.026  -8.942  -1.117  0.00  0.00    -0.003 A 
ATOM     16  C   UNL     1       1.556  -7.575  -1.013  0.00  0.00    +0.031 A 
ATOM     17  C   UNL     1       2.894  -7.680  -1.070  0.00  0.00    +0.022 A 
ATOM     18  N   UNL     1       3.236  -8.998  -1.202  0.00  0.00    -0.317 N 
ATOM     19  C   UNL     1       2.131  -9.770  -1.226  0.00  0.00    +0.028 A 
ATOM     20  C   UNL     1       2.103 -11.271  -1.354  0.00  0.00    +0.064 C 
ATOM     21  C   UNL     1       3.864  -6.529  -1.001  0.00  0.00    +0.064 C 
BRANCH  18  22
ATOM     22  C   UNL     1       4.550  -9.478  -1.292  0.00  0.00    +0.048 A 
ATOM     23  C   UNL     1       4.988 -10.088  -2.461  0.00  0.00    +0.029 A 
ATOM     24  C   UNL     1       6.283 -10.560  -2.549  0.00  0.00    +0.042 A 
ATOM     25  C   UNL     1       7.145 -10.426  -1.474  0.00  0.00    +0.142 A 
ATOM     26  C   UNL     1       6.710  -9.818  -0.306  0.00  0.00    +0.078 A 
ATOM     27  C   UNL     1       5.417  -9.339  -0.217  0.00  0.00    +0.049 A 
ATOM     28 CL   UNL     1       7.792  -9.653   1.041  0.00  0.00    -0.081 Cl
ATOM     29  F   UNL     1       8.411 -10.889  -1.562  0.00  0.00    -0.204 F 
ENDBRANCH  18  22
ENDBRANCH   7  15
BRANCH   1  30
ATOM     30  C   UNL     1      -2.324  -2.889   1.697  0.00  0.00    +0.064 C 
BRANCH  30  31
ATOM     31  C   UNL     1      -0.860  -2.553   1.989  0.00  0.00    +0.007 C 
BRANCH  31  32
ATOM     32  C   UNL     1      -0.752  -1.097   2.446  0.00  0.00    +0.000 C 
BRANCH  32  34
ATOM     33  C   UNL     1       0.819   0.696   3.195  0.00  0.00    +0.004 C 
ATOM     34  C   UNL     1       0.712  -0.760   2.738  0.00  0.00    -0.003 C 
ENDBRANCH  32  34
ENDBRANCH  31  32
ENDBRANCH  30  31
ENDBRANCH   1  30
TORSDOF 6
