REMARK  Name = ZINC44170877
REMARK  9 active torsions:
REMARK  status: ('A' for Active; 'I' for Inactive)
REMARK    1  A    between atoms: C_1  and  C_2
REMARK    2  A    between atoms: C_2  and  C_35
REMARK    3  A    between atoms: C_5  and  C_33
REMARK    4  A    between atoms: C_5  and  C_34
REMARK    5  A    between atoms: C_10  and  C_12
REMARK    6  A    between atoms: C_18  and  C_21
REMARK    7  A    between atoms: N_23  and  C_24
REMARK    8  A    between atoms: C_24  and  C_25
REMARK    9  A    between atoms: C_25  and  C_26
REMARK                            x       y       z     vdW  Elec       q    Type
REMARK                         _______ _______ _______ _____ _____    ______ ____
ROOT
ATOM      1  C   UNL     1       2.711  -1.743   4.781  0.00  0.00    -0.027 C 
ATOM      2  C   UNL     1       1.751  -2.643   5.568  0.00  0.00    +0.092 C 
ATOM      3  S   UNL     1       2.622  -3.251   7.046  0.00  0.00    +0.020 S 
ATOM      4  O   UNL     1       1.683  -3.811   7.953  0.00  0.00    -0.257 OA
ATOM      5  C   UNL     1       3.315  -1.724   7.756  0.00  0.00    +0.097 C 
ATOM      6  C   UNL     1       4.041  -0.962   6.641  0.00  0.00    +0.029 C 
ATOM      7  N   UNL     1       3.087  -0.586   5.595  0.00  0.00    +0.392 N 
ATOM      8  H   UNL     1       3.506   0.114   5.002  0.00  0.00    -0.084 HD
ATOM      9  H   UNL     1       2.259  -0.201   6.024  0.00  0.00    -0.084 HD
ENDROOT
BRANCH   1  19
ATOM     10  C   UNL     1       0.065   1.633   0.001  0.00  0.00    +0.016 C 
ATOM     11  C   UNL     1       0.075   0.104  -0.026  0.00  0.00    -0.010 C 
ATOM     12  C   UNL     1       0.776  -0.373  -1.296  0.00  0.00    +0.012 C 
ATOM     13  C   UNL     1       0.970  -1.891  -1.201  0.00  0.00    +0.012 C 
ATOM     14  C   UNL     1       2.021  -2.176  -0.130  0.00  0.00    -0.010 C 
ATOM     15  C   UNL     1       1.680  -1.459   1.150  0.00  0.00    -0.038 A 
ATOM     16  C   UNL     1       0.789  -0.410   1.198  0.00  0.00    -0.038 A 
ATOM     17  C   UNL     1       0.523   0.213   2.410  0.00  0.00    +0.004 A 
ATOM     18  C   UNL     1       1.141  -0.214   3.568  0.00  0.00    +0.002 A 
ATOM     19  C   UNL     1       2.033  -1.270   3.521  0.00  0.00    -0.060 A 
ATOM     20  C   UNL     1       2.299  -1.888   2.317  0.00  0.00    +0.006 A 
ATOM     21  C   UNL     1       3.388  -1.700  -0.625  0.00  0.00    +0.016 C 
ATOM     22  C   UNL     1       2.077  -3.682   0.135  0.00  0.00    +0.016 C 
ATOM     23  C   UNL     1      -1.366  -0.411  -0.022  0.00  0.00    +0.016 C 
ENDBRANCH   1  19
BRANCH   6  24
ATOM     24  C   UNL     1       5.112  -1.841   6.049  0.00  0.00    +0.200 C 
ATOM     25  O   UNL     1       5.351  -1.789   4.861  0.00  0.00    -0.278 OA
ATOM     26  N   UNL     1       5.804  -2.686   6.839  0.00  0.00    -0.316 N 
ATOM     27  H   UNL     1       5.612  -2.728   7.789  0.00  0.00    +0.149 HD
BRANCH  26  28
ATOM     28  C   UNL     1       6.845  -3.540   6.263  0.00  0.00    +0.109 C 
BRANCH  28  29
ATOM     29  C   UNL     1       7.471  -4.396   7.367  0.00  0.00    +0.056 C 
BRANCH  29  30
ATOM     30  C   UNL     1       8.542  -5.275   6.774  0.00  0.00    -0.011 A 
ATOM     31  C   UNL     1       8.241  -6.568   6.391  0.00  0.00    +0.006 A 
ATOM     32  C   UNL     1       9.223  -7.375   5.847  0.00  0.00    +0.000 A 
ATOM     33  C   UNL     1      10.508  -6.889   5.687  0.00  0.00    +0.003 A 
ATOM     34  C   UNL     1      10.811  -5.596   6.069  0.00  0.00    +0.038 A 
ATOM     35  C   UNL     1       9.826  -4.785   6.609  0.00  0.00    +0.127 A 
ATOM     36  F   UNL     1      10.120  -3.520   6.979  0.00  0.00    -0.205 F 
ENDBRANCH  29  30
ENDBRANCH  28  29
ENDBRANCH  26  28
ENDBRANCH   6  24
TORSDOF 5
