REMARK  Name = ZINC55841993
REMARK  7 active torsions:
REMARK  status: ('A' for Active; 'I' for Inactive)
REMARK    1  A    between atoms: C_1  and  N_2
REMARK    2  A    between atoms: C_3  and  C_5
REMARK    3  A    between atoms: C_10  and  N_11
REMARK    4  A    between atoms: N_11  and  C_12
REMARK    5  A    between atoms: C_12  and  C_13
REMARK    6  A    between atoms: N_15  and  C_16
REMARK    7  A    between atoms: C_16  and  C_23
REMARK                            x       y       z     vdW  Elec       q    Type
REMARK                         _______ _______ _______ _____ _____    ______ ____
ROOT
ATOM      1  N   UNL     1       2.032  -2.160   2.964  0.00  0.00    -0.335 N 
ATOM      2  H   UNL     1       1.964  -1.194   3.018  0.00  0.00    +0.147 HD
ENDROOT
BRANCH   1   8
ATOM      3  C   UNL     1       0.632  -2.149   0.990  0.00  0.00    +0.059 A 
ATOM      4  C   UNL     1      -0.056  -2.856   0.000  0.00  0.00    +0.035 A 
ATOM      5  C   UNL     1      -0.041  -4.235   0.004  0.00  0.00    +0.042 A 
ATOM      6  C   UNL     1       0.654  -4.925   0.985  0.00  0.00    +0.022 A 
ATOM      7  C   UNL     1       1.338  -4.241   1.969  0.00  0.00    +0.025 A 
ATOM      8  C   UNL     1       1.339  -2.851   1.978  0.00  0.00    +0.040 A 
ATOM      9 CL   UNL     1      -0.896  -5.111  -1.227  0.00  0.00    -0.084 Cl
BRANCH   3  12
ATOM     10  C   UNL     1       0.033   1.461  -0.023  0.00  0.00    +0.128 C 
ATOM     11  N   UNL     1       0.045  -0.004  -0.025  0.00  0.00    -0.314 N 
ATOM     12  C   UNL     1       0.620  -0.675   0.993  0.00  0.00    +0.246 C 
ATOM     13  O   UNL     1       1.128  -0.065   1.913  0.00  0.00    -0.270 OA
ATOM     14  H   UNL     1      -0.361  -0.491  -0.759  0.00  0.00    +0.149 HD
ENDBRANCH   3  12
ENDBRANCH   1   8
BRANCH   1  15
ATOM     15  C   UNL     1       2.865  -2.891   3.923  0.00  0.00    +0.197 C 
BRANCH  15  16
ATOM     16  C   UNL     1       3.503  -1.916   4.879  0.00  0.00    +0.231 C 
ATOM     17  O   UNL     1       3.283  -0.728   4.771  0.00  0.00    -0.274 OA
ATOM     18  N   UNL     1       4.318  -2.364   5.855  0.00  0.00    -0.296 N 
ATOM     19  H   UNL     1       4.494  -3.314   5.941  0.00  0.00    +0.150 HD
BRANCH  18  20
ATOM     20  C   UNL     1       4.937  -1.417   6.785  0.00  0.00    +0.121 C 
ATOM     21  C   UNL     1       5.750  -0.384   5.977  0.00  0.00    +0.041 C 
ATOM     22  C   UNL     1       5.950   0.839   6.830  0.00  0.00    +0.003 C 
ATOM     23  C   UNL     1       7.286   0.812   7.596  0.00  0.00    +0.000 C 
ATOM     24  C   UNL     1       7.609  -0.575   8.185  0.00  0.00    +0.000 C 
ATOM     25  C   UNL     1       6.403  -1.238   8.792  0.00  0.00    +0.003 C 
ATOM     26  C   UNL     1       5.762  -2.155   7.730  0.00  0.00    +0.041 C 
BRANCH  20  27
ATOM     27  C   UNL     1       3.877  -0.713   7.524  0.00  0.00    +0.088 C 
ATOM     28  N   UNL     1       3.059  -0.170   8.095  0.00  0.00    -0.194 NA
ENDBRANCH  20  27
ENDBRANCH  18  20
ENDBRANCH  15  16
ENDBRANCH   1  15
TORSDOF 6
