REMARK  Name = ZINC02148183
REMARK  10 active torsions:
REMARK  status: ('A' for Active; 'I' for Inactive)
REMARK    1  A    between atoms: C_1  and  C_2
REMARK    2  A    between atoms: C_5  and  S_8
REMARK    3  A    between atoms: S_8  and  N_11
REMARK    4  A    between atoms: N_11  and  C_12
REMARK    5  A    between atoms: C_12  and  C_14
REMARK    6  A    between atoms: C_12  and  C_25
REMARK    7  A    between atoms: C_14  and  C_15
REMARK    8  A    between atoms: C_25  and  O_27
REMARK    9  A    between atoms: O_27  and  C_28
REMARK   10  A    between atoms: C_32  and  C_39
REMARK                            x       y       z     vdW  Elec       q    Type
REMARK                         _______ _______ _______ _____ _____    ______ ____
ROOT
ATOM      1  C   UNL     1       2.295   5.492   0.146  0.00  0.00    +0.189 C 
ENDROOT
BRANCH   1   2
ATOM      2  N   UNL     1       3.727   5.766   0.003  0.00  0.00    -0.176 NA
ATOM      3  H   UNL     1       4.284   5.856   0.792  0.00  0.00    +0.149 HD
BRANCH   2   4
ATOM      4  S   UNL     1       4.394   5.922  -1.504  0.00  0.00    +0.059 S 
ATOM      5  O   UNL     1       5.772   6.212  -1.311  0.00  0.00    -0.153 OA
ATOM      6  O   UNL     1       3.949   4.806  -2.263  0.00  0.00    -0.153 OA
BRANCH   4  11
ATOM      7  C   UNL     1       1.944  10.818  -4.041  0.00  0.00    +0.044 C 
ATOM      8  C   UNL     1       2.556   9.595  -3.408  0.00  0.00    -0.050 A 
ATOM      9  C   UNL     1       3.762   9.693  -2.739  0.00  0.00    +0.005 A 
ATOM     10  C   UNL     1       4.323   8.572  -2.158  0.00  0.00    +0.029 A 
ATOM     11  C   UNL     1       3.678   7.352  -2.245  0.00  0.00    +0.105 A 
ATOM     12  C   UNL     1       2.475   7.253  -2.918  0.00  0.00    +0.029 A 
ATOM     13  C   UNL     1       1.911   8.375  -3.495  0.00  0.00    +0.005 A 
ENDBRANCH   4  11
ENDBRANCH   2   4
ENDBRANCH   1   2
BRANCH   1  14
ATOM     14  C   UNL     1       2.081   4.010   0.316  0.00  0.00    +0.331 C 
ATOM     15  O   UNL     1       3.028   3.260   0.317  0.00  0.00    -0.249 OA
BRANCH  14  16
ATOM     16  O   UNL     1       0.838   3.524   0.465  0.00  0.00    -0.425 OA
BRANCH  16  17
ATOM     17  C   UNL     1       0.723   2.196   0.725  0.00  0.00    +0.135 A 
ATOM     18  C   UNL     1       1.159   1.691   1.948  0.00  0.00    +0.047 A 
ATOM     19  C   UNL     1       1.050   0.358   2.224  0.00  0.00    +0.015 A 
ATOM     20  C   UNL     1       0.497  -0.506   1.272  0.00  0.00    +0.021 A 
ATOM     21  C   UNL     1       0.367  -1.940   1.542  0.00  0.00    -0.033 A 
ATOM     22  C   UNL     1      -0.180  -2.726   0.579  0.00  0.00    +0.096 A 
ATOM     23  C   UNL     1      -0.602  -2.154  -0.639  0.00  0.00    +0.337 A 
ATOM     24  O   UNL     1      -1.090  -2.870  -1.494  0.00  0.00    -0.245 OA
ATOM     25  O   UNL     1      -0.480  -0.839  -0.879  0.00  0.00    -0.422 OA
ATOM     26  C   UNL     1       0.054  -0.002   0.036  0.00  0.00    +0.143 A 
ATOM     27  C   UNL     1       0.172   1.355  -0.228  0.00  0.00    +0.093 A 
ATOM     28  C   UNL     1       0.826  -2.526   2.852  0.00  0.00    +0.045 C 
ENDBRANCH  16  17
ENDBRANCH  14  16
ENDBRANCH   1  14
BRANCH   1  29
ATOM     29  C   UNL     1       1.754   6.229   1.373  0.00  0.00    +0.069 C 
BRANCH  29  30
ATOM     30  C   UNL     1       1.889   7.716   1.166  0.00  0.00    -0.020 A 
ATOM     31  C   UNL     1       2.893   8.495   1.599  0.00  0.00    +0.087 A 
ATOM     32  N   UNL     1       2.674   9.791   1.220  0.00  0.00    -0.360 N 
ATOM     33  H   UNL     1       3.263  10.536   1.417  0.00  0.00    +0.165 HD
ATOM     34  C   UNL     1       1.490   9.882   0.523  0.00  0.00    +0.047 A 
ATOM     35  C   UNL     1       0.946   8.586   0.459  0.00  0.00    +0.003 A 
ATOM     36  C   UNL     1      -0.267   8.371  -0.198  0.00  0.00    +0.010 A 
ATOM     37  C   UNL     1      -0.921   9.423  -0.775  0.00  0.00    +0.001 A 
ATOM     38  C   UNL     1      -0.390  10.704  -0.713  0.00  0.00    +0.002 A 
ATOM     39  C   UNL     1       0.807  10.938  -0.071  0.00  0.00    +0.026 A 
ENDBRANCH  29  30
ENDBRANCH   1  29
TORSDOF 8
