REMARK  Name = ZINC04085133
REMARK  5 active torsions:
REMARK  status: ('A' for Active; 'I' for Inactive)
REMARK    1  A    between atoms: C_4  and  C_7
REMARK    2  A    between atoms: C_7  and  C_8
REMARK    3  A    between atoms: C_8  and  N_9
REMARK    4  A    between atoms: C_14  and  C_30
REMARK    5  A    between atoms: C_30  and  C_31
REMARK                            x       y       z     vdW  Elec       q    Type
REMARK                         _______ _______ _______ _____ _____    ______ ____
ROOT
ATOM      1  N   UNL     1       2.470  -4.967   1.289  0.00  0.00    -0.241 N 
ATOM      2  C   UNL     1       2.579  -3.636   1.380  0.00  0.00    +0.224 C 
ATOM      3  O   UNL     1       2.793  -3.019   2.401  0.00  0.00    -0.275 OA
ATOM      4  C   UNL     1       2.393  -3.022   0.011  0.00  0.00    +0.073 C 
ATOM      5  C   UNL     1       1.058  -2.248  -0.020  0.00  0.00    -0.049 C 
ATOM      6  C   UNL     1       0.721  -4.093  -1.413  0.00  0.00    +0.050 C 
ATOM      7  C   UNL     1       2.159  -4.255  -0.906  0.00  0.00    +0.088 C 
ATOM      8  C   UNL     1       2.234  -5.422   0.053  0.00  0.00    +0.225 C 
ATOM      9  O   UNL     1       2.102  -6.588  -0.250  0.00  0.00    -0.275 OA
ATOM     10  C   UNL     1       0.577  -4.573  -2.829  0.00  0.00    -0.028 A 
ATOM     11  C   UNL     1       1.173  -4.213  -4.018  0.00  0.00    +0.004 A 
ATOM     12  C   UNL     1       0.822  -4.857  -5.191  0.00  0.00    +0.000 A 
ATOM     13  C   UNL     1      -0.128  -5.861  -5.168  0.00  0.00    +0.002 A 
ATOM     14  C   UNL     1      -0.728  -6.225  -3.980  0.00  0.00    +0.023 A 
ATOM     15  C   UNL     1      -0.380  -5.582  -2.794  0.00  0.00    +0.036 A 
ATOM     16  N   UNL     1      -0.838  -5.768  -1.487  0.00  0.00    -0.286 N 
ATOM     17  C   UNL     1      -0.240  -4.931  -0.616  0.00  0.00    +0.211 C 
ATOM     18  O   UNL     1      -0.439  -4.867   0.579  0.00  0.00    -0.277 OA
ATOM     19  H   UNL     1      -1.508  -6.423  -1.236  0.00  0.00    +0.155 HD
ATOM     20  N   UNL     1       0.429  -2.677  -1.271  0.00  0.00    +0.394 N 
ATOM     21  H   UNL     1       0.819  -2.153  -2.063  0.00  0.00    -0.083 HD
ATOM     22  H   UNL     1      -0.586  -2.527  -1.228  0.00  0.00    -0.083 HD
ENDROOT
BRANCH   1  23
ATOM     23  C   UNL     1       2.599  -5.853   2.448  0.00  0.00    +0.121 C 
BRANCH  23  24
ATOM     24  C   UNL     1       4.063  -6.262   2.618  0.00  0.00    +0.054 C 
BRANCH  24  28
ATOM     25  C   UNL     1       4.438  -8.846   5.999  0.00  0.00    +0.000 A 
ATOM     26  C   UNL     1       4.193  -9.378   4.746  0.00  0.00    +0.000 A 
ATOM     27  C   UNL     1       4.072  -8.541   3.652  0.00  0.00    +0.004 A 
ATOM     28  C   UNL     1       4.195  -7.174   3.811  0.00  0.00    -0.046 A 
ATOM     29  C   UNL     1       4.445  -6.643   5.062  0.00  0.00    +0.004 A 
ATOM     30  C   UNL     1       4.562  -7.479   6.157  0.00  0.00    +0.000 A 
ENDBRANCH  24  28
ENDBRANCH  23  24
ENDBRANCH   1  23
BRANCH   5  31
ATOM     31  C   UNL     1       1.317  -0.740  -0.015  0.00  0.00    +0.080 C 
BRANCH  31  32
ATOM     32  C   UNL     1       0.002  -0.004   0.002  0.00  0.00    +0.209 C 
ATOM     33  O   UNL     1      -1.040  -0.625   0.009  0.00  0.00    -0.276 OA
ATOM     34  N   UNL     1      -0.016   1.344   0.009  0.00  0.00    -0.329 N 
ATOM     35  H   UNL     1       0.817   1.840   0.004  0.00  0.00    +0.145 HD
ATOM     36  H   UNL     1      -0.863   1.817   0.016  0.00  0.00    +0.145 HD
ENDBRANCH  31  32
ENDBRANCH   5  31
TORSDOF 5
