REMARK  Name = ZINC50275093
REMARK  7 active torsions:
REMARK  status: ('A' for Active; 'I' for Inactive)
REMARK    1  A    between atoms: C_1  and  N_2
REMARK    2  A    between atoms: N_2  and  C_3
REMARK    3  A    between atoms: N_2  and  C_10
REMARK    4  A    between atoms: C_3  and  C_4
REMARK    5  A    between atoms: C_10  and  C_11
REMARK    6  A    between atoms: N_13  and  N_14
REMARK    7  A    between atoms: C_15  and  C_17
REMARK                            x       y       z     vdW  Elec       q    Type
REMARK                         _______ _______ _______ _____ _____    ______ ____
ROOT
ATOM      1  C   UNL     1      -0.106  -0.083  -2.424  0.00  0.00    +0.213 C 
ATOM      2  O   UNL     1      -1.143   0.532  -2.298  0.00  0.00    -0.276 OA
ATOM      3  N   UNL     1       0.336  -0.414  -3.654  0.00  0.00    -0.236 N 
ATOM      4  H   UNL     1       1.166  -0.906  -3.755  0.00  0.00    +0.173 HD
ENDROOT
BRANCH   3   5
ATOM      5  N   UNL     1      -0.403  -0.047  -4.786  0.00  0.00    -0.230 N 
ATOM      6  C   UNL     1       0.038  -0.378  -6.016  0.00  0.00    +0.267 C 
ATOM      7  O   UNL     1       1.079  -0.996  -6.143  0.00  0.00    -0.268 OA
ATOM      8  H   UNL     1      -1.233   0.445  -4.685  0.00  0.00    +0.173 HD
BRANCH   6   9
ATOM      9  C   UNL     1      -0.735   0.006  -7.200  0.00  0.00    +0.075 A 
ATOM     10  C   UNL     1      -0.464  -0.238  -8.538  0.00  0.00    +0.021 A 
ATOM     11  C   UNL     1      -1.385   0.251  -9.432  0.00  0.00    +0.008 A 
ATOM     12  C   UNL     1      -2.468   0.921  -8.964  0.00  0.00    +0.046 A 
ATOM     13  S   UNL     1      -2.274   0.901  -7.296  0.00  0.00    -0.092 S 
ENDBRANCH   6   9
ENDBRANCH   3   5
BRANCH   1  14
ATOM     14  C   UNL     1       0.690  -0.478  -1.207  0.00  0.00    +0.020 C 
BRANCH  14  16
ATOM     15  C   UNL     1      -0.018   1.465   0.010  0.00  0.00    -0.095 C 
ATOM     16  N   UNL     1       0.002  -0.004   0.002  0.00  0.00    +0.387 N 
ATOM     17  H   UNL     1      -0.945  -0.353   0.009  0.00  0.00    -0.081 HD
BRANCH  16  18
ATOM     18  C   UNL     1       0.713  -0.491   1.192  0.00  0.00    -0.035 C 
BRANCH  18  19
ATOM     19  C   UNL     1      -0.059  -0.109   2.429  0.00  0.00    -0.026 A 
ATOM     20  C   UNL     1      -1.025  -0.802   3.080  0.00  0.00    +0.010 A 
ATOM     21  C   UNL     1      -1.602  -0.250   4.208  0.00  0.00    +0.023 A 
ATOM     22  C   UNL     1      -1.184   0.969   4.631  0.00  0.00    +0.055 A 
ATOM     23  S   UNL     1       0.067   1.369   3.421  0.00  0.00    -0.088 S 
ATOM     24 BR   UNL     1      -1.768   1.979   6.119  0.00  0.00    -0.043 Br
ENDBRANCH  18  19
ENDBRANCH  16  18
ENDBRANCH  14  16
ENDBRANCH   1  14
TORSDOF 6
