REMARK  Name = ZINC04357814
REMARK  5 active torsions:
REMARK  status: ('A' for Active; 'I' for Inactive)
REMARK    1  A    between atoms: C_6  and  N_7
REMARK    2  A    between atoms: N_7  and  C_8
REMARK    3  A    between atoms: C_10  and  O_20
REMARK    4  A    between atoms: C_12  and  O_19
REMARK    5  A    between atoms: C_14  and  O_18
REMARK                            x       y       z     vdW  Elec       q    Type
REMARK                         _______ _______ _______ _____ _____    ______ ____
ROOT
ATOM      1  C   UNL     1      -3.714   3.075   0.054  0.00  0.00    +0.235 C 
ATOM      2  C   UNL     1      -4.748   3.827   0.896  0.00  0.00    +0.192 C 
ATOM      3  C   UNL     1      -6.080   3.070   0.851  0.00  0.00    +0.178 C 
ATOM      4  C   UNL     1      -6.518   2.918  -0.609  0.00  0.00    +0.171 C 
ATOM      5  C   UNL     1      -5.416   2.201  -1.392  0.00  0.00    +0.196 C 
ATOM      6  O   UNL     1      -4.198   2.941  -1.284  0.00  0.00    -0.354 OA
ENDROOT
BRANCH   1   7
ATOM      7  N   UNL     1      -2.454   3.822   0.046  0.00  0.00    -0.317 N 
ATOM      8  H   UNL     1      -2.466   4.792   0.051  0.00  0.00    +0.149 HD
BRANCH   7  14
ATOM      9  C   UNL     1      -1.218   1.749   0.017  0.00  0.00    +0.024 A 
ATOM     10  C   UNL     1      -0.013   1.076   0.008  0.00  0.00    +0.017 A 
ATOM     11  C   UNL     1       1.177   1.783   0.000  0.00  0.00    +0.018 A 
ATOM     12  C   UNL     1       1.162   3.167   0.007  0.00  0.00    +0.017 A 
ATOM     13  C   UNL     1      -0.041   3.846   0.023  0.00  0.00    +0.024 A 
ATOM     14  C   UNL     1      -1.236   3.138   0.031  0.00  0.00    +0.029 A 
ATOM     15 BR   UNL     1       2.825   0.857  -0.020  0.00  0.00    -0.050 Br
ENDBRANCH   7  14
ENDBRANCH   1   7
BRANCH   4  16
ATOM     16  O   UNL     1      -7.723   2.152  -0.668  0.00  0.00    -0.387 OA
ATOM     17  H   UNL     1      -8.059   2.015  -1.564  0.00  0.00    +0.210 HD
ENDBRANCH   4  16
BRANCH   3  18
ATOM     18  O   UNL     1      -7.071   3.803   1.574  0.00  0.00    -0.386 OA
ATOM     19  H   UNL     1      -7.941   3.381   1.586  0.00  0.00    +0.210 HD
ENDBRANCH   3  18
BRANCH   2  20
ATOM     20  O   UNL     1      -4.293   3.913   2.248  0.00  0.00    -0.385 OA
ATOM     21  H   UNL     1      -3.450   4.377   2.350  0.00  0.00    +0.210 HD
ENDBRANCH   2  20
TORSDOF 5
