REMARK  Name = ZINC38702152
REMARK  11 active torsions:
REMARK  status: ('A' for Active; 'I' for Inactive)
REMARK    1  A    between atoms: C_1  and  C_2
REMARK    2  A    between atoms: C_2  and  C_3
REMARK    3  A    between atoms: C_3  and  C_4
REMARK    4  A    between atoms: C_4  and  O_5
REMARK    5  A    between atoms: O_5  and  C_6
REMARK    6  A    between atoms: C_10  and  C_12
REMARK    7  A    between atoms: C_15  and  C_31
REMARK    8  A    between atoms: N_22  and  C_23
REMARK    9  A    between atoms: C_33  and  C_39
REMARK   10  A    between atoms: C_35  and  C_38
REMARK   11  A    between atoms: C_36  and  O_37
REMARK                            x       y       z     vdW  Elec       q    Type
REMARK                         _______ _______ _______ _____ _____    ______ ____
ROOT
ATOM      1  C   UNL     1       2.929  -6.290  -5.056  0.00  0.00    +0.142 C 
ATOM      2  C   UNL     1       1.940  -6.879  -6.025  0.00  0.00    +0.035 A 
ATOM      3  C   UNL     1       0.836  -6.668  -6.857  0.00  0.00    +0.102 A 
ATOM      4  N   UNL     1       0.543  -7.821  -7.425  0.00  0.00    -0.173 NA
ATOM      5  N   UNL     1       1.354  -8.739  -7.035  0.00  0.00    -0.272 N 
ATOM      6  H   UNL     1       1.327  -9.665  -7.323  0.00  0.00    +0.189 HD
ATOM      7  C   UNL     1       2.258  -8.217  -6.153  0.00  0.00    +0.126 A 
ATOM      8  C   UNL     1       3.416  -8.506  -5.300  0.00  0.00    +0.266 C 
ATOM      9  O   UNL     1       3.942  -9.597  -5.189  0.00  0.00    -0.268 OA
ATOM     10  N   UNL     1       3.815  -7.392  -4.658  0.00  0.00    -0.280 N 
ENDROOT
BRANCH   3  11
ATOM     11  C   UNL     1       0.124  -5.382  -7.062  0.00  0.00    +0.044 A 
ATOM     12  C   UNL     1       0.620  -4.209  -6.498  0.00  0.00    +0.017 A 
ATOM     13  C   UNL     1      -0.045  -3.016  -6.692  0.00  0.00    -0.049 A 
ATOM     14  C   UNL     1      -1.206  -2.980  -7.445  0.00  0.00    +0.010 A 
ATOM     15  C   UNL     1      -1.708  -4.137  -8.008  0.00  0.00    -0.008 A 
ATOM     16  C   UNL     1      -1.046  -5.341  -7.827  0.00  0.00    +0.129 A 
ATOM     17  C   UNL     1      -2.972  -4.090  -8.827  0.00  0.00    +0.047 C 
ATOM     18  C   UNL     1       0.493  -1.748  -6.080  0.00  0.00    +0.044 C 
BRANCH  16  19
ATOM     19  O   UNL     1      -1.534  -6.479  -8.386  0.00  0.00    -0.506 OA
ATOM     20  H   UNL     1      -2.156  -6.959  -7.822  0.00  0.00    +0.292 HD
ENDBRANCH  16  19
ENDBRANCH   3  11
BRANCH  10  21
ATOM     21  C   UNL     1       4.939  -7.294  -3.723  0.00  0.00    +0.100 C 
ATOM     22  C   UNL     1       6.238  -7.723  -4.425  0.00  0.00    +0.047 C 
ATOM     23  C   UNL     1       7.359  -7.931  -3.379  0.00  0.00    +0.168 C 
ATOM     24  S   UNL     1       6.421  -8.404  -1.870  0.00  0.00    -0.029 S 
ATOM     25  O   UNL     1       6.681  -9.770  -1.573  0.00  0.00    -0.174 OA
ATOM     26  O   UNL     1       6.630  -7.419  -0.868  0.00  0.00    -0.174 OA
ATOM     27  C   UNL     1       4.703  -8.248  -2.517  0.00  0.00    +0.188 C 
ENDBRANCH  10  21
BRANCH   1  32
ATOM     28  C   UNL     1       0.934  -6.096  -1.853  0.00  0.00    +0.121 A 
ATOM     29  C   UNL     1       0.891  -4.726  -1.639  0.00  0.00    +0.045 A 
ATOM     30  C   UNL     1       1.508  -3.869  -2.530  0.00  0.00    +0.004 A 
ATOM     31  C   UNL     1       2.167  -4.376  -3.635  0.00  0.00    +0.006 A 
ATOM     32  C   UNL     1       2.210  -5.741  -3.851  0.00  0.00    -0.019 A 
ATOM     33  C   UNL     1       1.601  -6.603  -2.959  0.00  0.00    +0.051 A 
BRANCH  28  34
ATOM     34  O   UNL     1       0.329  -6.941  -0.977  0.00  0.00    -0.492 OA
BRANCH  34  35
ATOM     35  C   UNL     1      -0.338  -6.349   0.139  0.00  0.00    +0.229 C 
BRANCH  35  36
ATOM     36  C   UNL     1      -0.954  -7.449   1.007  0.00  0.00    +0.041 C 
BRANCH  36  38
ATOM     37  C   UNL     1      -2.284  -7.914   3.070  0.00  0.00    +0.004 C 
ATOM     38  C   UNL     1      -1.669  -6.815   2.202  0.00  0.00    -0.000 C 
ENDBRANCH  36  38
ENDBRANCH  35  36
ENDBRANCH  34  35
ENDBRANCH  28  34
ENDBRANCH   1  32
TORSDOF 8
