REMARK  Name = ZINC63748873
REMARK  9 active torsions:
REMARK  status: ('A' for Active; 'I' for Inactive)
REMARK    1  A    between atoms: C_1  and  C_2
REMARK    2  A    between atoms: C_2  and  C_3
REMARK    3  A    between atoms: C_2  and  C_21
REMARK    4  A    between atoms: C_3  and  N_4
REMARK    5  A    between atoms: N_4  and  C_5
REMARK    6  A    between atoms: C_6  and  C_8
REMARK    7  A    between atoms: C_8  and  N_9
REMARK    8  A    between atoms: C_21  and  O_23
REMARK    9  A    between atoms: O_23  and  C_24
REMARK                            x       y       z     vdW  Elec       q    Type
REMARK                         _______ _______ _______ _____ _____    ______ ____
ROOT
ATOM      1  N   UNL     1      -4.119   2.715  -2.400  0.00  0.00    -0.215 N 
ATOM      2  C   UNL     1      -5.384   2.874  -1.958  0.00  0.00    +0.247 C 
ATOM      3  O   UNL     1      -6.168   2.003  -1.647  0.00  0.00    -0.273 OA
ATOM      4  C   UNL     1      -5.618   4.367  -1.934  0.00  0.00    +0.113 C 
ATOM      5  C   UNL     1      -5.918   4.835  -0.514  0.00  0.00    +0.035 C 
ATOM      6  C   UNL     1      -6.121   6.352  -0.506  0.00  0.00    +0.003 C 
ATOM      7  C   UNL     1      -7.280   6.715  -1.437  0.00  0.00    +0.000 C 
ATOM      8  C   UNL     1      -6.954   6.261  -2.861  0.00  0.00    +0.003 C 
ATOM      9  C   UNL     1      -6.754   4.743  -2.878  0.00  0.00    +0.035 C 
ATOM     10  N   UNL     1      -4.348   4.935  -2.405  0.00  0.00    -0.285 N 
ATOM     11  C   UNL     1      -3.531   3.892  -2.648  0.00  0.00    +0.310 C 
ATOM     12  O   UNL     1      -2.390   4.006  -3.050  0.00  0.00    -0.252 OA
ATOM     13  H   UNL     1      -4.138   5.875  -2.516  0.00  0.00    +0.151 HD
ENDROOT
BRANCH   1  14
ATOM     14  C   UNL     1      -3.467   1.415  -2.579  0.00  0.00    +0.213 C 
BRANCH  14  17
ATOM     15  N   UNL     1      -2.105  -0.148  -1.230  0.00  0.00    -0.302 N 
ATOM     16  C   UNL     1      -2.049  -1.032  -2.398  0.00  0.00    +0.132 C 
ATOM     17  C   UNL     1      -2.776   1.019  -1.300  0.00  0.00    +0.233 C 
ATOM     18  O   UNL     1      -2.823   1.750  -0.334  0.00  0.00    -0.274 OA
BRANCH  15  19
ATOM     19  C   UNL     1      -1.433  -0.534   0.013  0.00  0.00    +0.122 C 
BRANCH  19  21
ATOM     20  C   UNL     1      -0.019   1.526   0.010  0.00  0.00    +0.021 C 
ATOM     21  C   UNL     1       0.002  -0.004   0.002  0.00  0.00    +0.112 C 
BRANCH  21  22
ATOM     22  C   UNL     1       0.731  -0.503   1.223  0.00  0.00    +0.311 C 
ATOM     23  O   UNL     1       0.161  -1.210   2.020  0.00  0.00    -0.251 OA
BRANCH  22  24
ATOM     24  O   UNL     1       2.014  -0.163   1.425  0.00  0.00    -0.468 OA
ATOM     25  C   UNL     1       2.642  -0.672   2.603  0.00  0.00    +0.280 C 
ENDBRANCH  22  24
ENDBRANCH  21  22
ENDBRANCH  19  21
ENDBRANCH  15  19
ENDBRANCH  14  17
ENDBRANCH   1  14
TORSDOF 6
