REMARK  Name = ZINC37288589
REMARK  7 active torsions:
REMARK  status: ('A' for Active; 'I' for Inactive)
REMARK    1  A    between atoms: C_5  and  O_10
REMARK    2  A    between atoms: C_6  and  N_7
REMARK    3  A    between atoms: O_10  and  C_11
REMARK    4  A    between atoms: C_11  and  C_12
REMARK    5  A    between atoms: C_12  and  C_14
REMARK    6  A    between atoms: C_12  and  O_16
REMARK    7  A    between atoms: C_14  and  N_15
REMARK                            x       y       z     vdW  Elec       q    Type
REMARK                         _______ _______ _______ _____ _____    ______ ____
ROOT
ATOM      1  C   UNL     1      -0.017   1.377   0.010  0.00  0.00    +0.056 A 
ATOM      2  C   UNL     1       1.171   2.087   0.002  0.00  0.00    +0.044 A 
ATOM      3  C   UNL     1       2.381   1.414  -0.014  0.00  0.00    +0.039 A 
ATOM      4  C   UNL     1       2.404   0.032  -0.022  0.00  0.00    +0.063 A 
ATOM      5  C   UNL     1       1.213  -0.680  -0.014  0.00  0.00    +0.165 A 
ATOM      6  C   UNL     1       0.002  -0.004   0.002  0.00  0.00    +0.170 A 
ATOM      7 BR   UNL     1       4.056  -0.886  -0.044  0.00  0.00    -0.046 Br
ATOM      8 CL   UNL     1       1.145   3.822   0.012  0.00  0.00    -0.083 Cl
ENDROOT
BRANCH   6   9
ATOM      9  N   UNL     1      -1.269  -0.762   0.010  0.00  0.00    +0.060 N 
ATOM     10  O   UNL     1      -2.325  -0.172   0.023  0.00  0.00    -0.126 OA
ATOM     11  O   UNL     1      -1.253  -1.971   0.004  0.00  0.00    -0.126 OA
ENDBRANCH   6   9
BRANCH   5  12
ATOM     12  O   UNL     1       1.233  -2.040  -0.022  0.00  0.00    -0.486 OA
BRANCH  12  13
ATOM     13  C   UNL     1       1.256  -2.696   1.247  0.00  0.00    +0.258 C 
BRANCH  13  14
ATOM     14  C   UNL     1       1.277  -4.211   1.037  0.00  0.00    +0.134 C 
BRANCH  14  15
ATOM     15  O   UNL     1       2.497  -4.587   0.395  0.00  0.00    -0.390 OA
ATOM     16  H   UNL     1       3.292  -4.357   0.896  0.00  0.00    +0.210 HD
ENDBRANCH  14  15
BRANCH  14  17
ATOM     17  C   UNL     1       1.175  -4.915   2.392  0.00  0.00    -0.051 C 
BRANCH  17  18
ATOM     18  N   UNL     1       1.195  -6.370   2.190  0.00  0.00    +0.380 N 
ATOM     19  H   UNL     1       0.414  -6.640   1.612  0.00  0.00    -0.090 HD
ATOM     20  H   UNL     1       2.057  -6.635   1.737  0.00  0.00    -0.090 HD
ATOM     21  H   UNL     1       1.128  -6.835   3.084  0.00  0.00    -0.090 HD
ENDBRANCH  17  18
ENDBRANCH  14  17
ENDBRANCH  13  14
ENDBRANCH  12  13
ENDBRANCH   5  12
TORSDOF 7
