REMARK  Name = ZINC36408669
REMARK  9 active torsions:
REMARK  status: ('A' for Active; 'I' for Inactive)
REMARK    1  A    between atoms: C_1  and  C_2
REMARK    2  A    between atoms: C_2  and  C_3
REMARK    3  A    between atoms: C_2  and  C_4
REMARK    4  A    between atoms: C_2  and  N_5
REMARK    5  A    between atoms: C_6  and  C_8
REMARK    6  A    between atoms: C_8  and  N_9
REMARK    7  A    between atoms: N_13  and  C_16
REMARK    8  A    between atoms: C_16  and  C_17
REMARK    9  A    between atoms: C_27  and  C_28
REMARK                            x       y       z     vdW  Elec       q    Type
REMARK                         _______ _______ _______ _____ _____    ______ ____
ROOT
ATOM      1  N   UNL     1       4.055  -0.110  -2.677  0.00  0.00    +0.386 N 
ATOM      2  C   UNL     1       4.801  -0.703  -1.593  0.00  0.00    -0.077 C 
ATOM      3  C   UNL     1       5.829   0.280  -0.999  0.00  0.00    -0.003 C 
ATOM      4  C   UNL     1       6.549   1.097  -2.090  0.00  0.00    +0.083 C 
ATOM      5  N   UNL     1       6.910   0.305  -3.241  0.00  0.00    -0.296 NA
ATOM      6  C   UNL     1       5.847   0.380  -4.274  0.00  0.00    +0.066 C 
ATOM      7  C   UNL     1       4.714  -0.481  -3.945  0.00  0.00    -0.063 C 
ATOM      8  H   UNL     1       4.048   0.894  -2.578  0.00  0.00    -0.081 HD
ENDROOT
BRANCH   1   9
ATOM      9  C   UNL     1       2.677  -0.618  -2.667  0.00  0.00    +0.019 C 
BRANCH   9  11
ATOM     10  N   UNL     1       0.688  -0.476  -1.203  0.00  0.00    -0.312 N 
ATOM     11  C   UNL     1       1.972  -0.132  -1.427  0.00  0.00    +0.197 C 
ATOM     12  O   UNL     1       2.559   0.569  -0.630  0.00  0.00    -0.278 OA
ATOM     13  H   UNL     1       0.218  -1.037  -1.840  0.00  0.00    +0.149 HD
BRANCH  10  15
ATOM     14  C   UNL     1      -0.019   1.526   0.010  0.00  0.00    +0.031 C 
ATOM     15  C   UNL     1       0.002  -0.004   0.002  0.00  0.00    +0.026 C 
ATOM     16  C   UNL     1       0.742  -0.511   1.242  0.00  0.00    +0.031 C 
ATOM     17  C   UNL     1      -1.433  -0.534   0.013  0.00  0.00    +0.031 C 
ENDBRANCH  10  15
ENDBRANCH   9  11
ENDBRANCH   1   9
BRANCH   5  18
ATOM     18  C   UNL     1       8.206   0.731  -3.787  0.00  0.00    +0.180 C 
BRANCH  18  19
ATOM     19  C   UNL     1       9.295   0.430  -2.789  0.00  0.00    +0.230 C 
ATOM     20  O   UNL     1       9.018  -0.087  -1.728  0.00  0.00    -0.274 OA
ATOM     21  N   UNL     1      10.575   0.737  -3.077  0.00  0.00    -0.288 N 
ATOM     22  C   UNL     1      10.921   1.370  -4.358  0.00  0.00    +0.114 C 
ATOM     23  C   UNL     1      11.797   0.394  -5.158  0.00  0.00    +0.062 C 
ATOM     24  C   UNL     1      12.802  -0.214  -4.235  0.00  0.00    -0.003 A 
ATOM     25  C   UNL     1      12.786  -0.230  -2.874  0.00  0.00    -0.012 A 
ATOM     26  C   UNL     1      13.848  -0.876  -2.244  0.00  0.00    +0.013 A 
ATOM     27  C   UNL     1      14.831  -1.442  -2.982  0.00  0.00    +0.046 A 
ATOM     28  S   UNL     1      14.292  -1.084  -4.647  0.00  0.00    -0.101 S 
ATOM     29  C   UNL     1      11.645   0.448  -2.111  0.00  0.00    +0.144 C 
BRANCH  29  30
ATOM     30  C   UNL     1      12.132   1.732  -1.491  0.00  0.00    +0.015 A 
ATOM     31  C   UNL     1      12.483   1.980  -0.205  0.00  0.00    +0.013 A 
ATOM     32  C   UNL     1      12.907   3.249   0.141  0.00  0.00    +0.008 A 
ATOM     33  C   UNL     1      12.960   4.208  -0.815  0.00  0.00    +0.045 A 
ATOM     34  S   UNL     1      12.405   3.320  -2.261  0.00  0.00    -0.099 S 
ENDBRANCH  29  30
ENDBRANCH  18  19
ENDBRANCH   5  18
TORSDOF 6
