REMARK  Name = ZINC11787830
REMARK  9 active torsions:
REMARK  status: ('A' for Active; 'I' for Inactive)
REMARK    1  A    between atoms: C_1  and  C_2
REMARK    2  A    between atoms: C_2  and  C_3
REMARK    3  A    between atoms: C_3  and  C_14
REMARK    4  A    between atoms: N_6  and  C_10
REMARK    5  A    between atoms: C_10  and  C_11
REMARK    6  A    between atoms: C_11  and  C_13
REMARK    7  A    between atoms: C_19  and  C_20
REMARK    8  A    between atoms: C_19  and  N_62
REMARK    9  A    between atoms: C_25  and  C_26
REMARK                            x       y       z     vdW  Elec       q    Type
REMARK                         _______ _______ _______ _____ _____    ______ ____
ROOT
ATOM      1  C   UNL     1      -2.458   5.240  -4.642  0.00  0.00    +0.018 C 
ATOM      2  C   UNL     1      -2.113   6.016  -5.917  0.00  0.00    -0.013 C 
ATOM      3  C   UNL     1      -2.644   7.446  -5.797  0.00  0.00    -0.078 C 
ATOM      4  C   UNL     1      -2.402   7.397  -3.386  0.00  0.00    -0.078 C 
ATOM      5  C   UNL     1      -1.862   5.966  -3.433  0.00  0.00    -0.013 C 
ATOM      6  N   UNL     1      -2.014   8.097  -4.629  0.00  0.00    +0.382 N 
ATOM      7  H   UNL     1      -0.993   8.051  -4.733  0.00  0.00    -0.081 HD
ENDROOT
BRANCH   1   8
ATOM      8  C   UNL     1      -1.875   3.828  -4.729  0.00  0.00    +0.115 C 
ATOM      9  C   UNL     1      -2.186   3.044  -3.470  0.00  0.00    +0.247 C 
ATOM     10  O   UNL     1      -3.281   2.755  -3.039  0.00  0.00    -0.273 OA
ATOM     11  N   UNL     1      -0.991   2.736  -2.928  0.00  0.00    -0.220 N 
ATOM     12  C   UNL     1       0.021   3.216  -3.660  0.00  0.00    +0.310 C 
ATOM     13  O   UNL     1       1.193   3.070  -3.372  0.00  0.00    -0.252 OA
ATOM     14  N   UNL     1      -0.403   3.876  -4.753  0.00  0.00    -0.285 N 
ATOM     15  H   UNL     1       0.152   4.301  -5.425  0.00  0.00    +0.151 HD
BRANCH   8  17
ATOM     16  C   UNL     1      -1.776   1.713  -6.055  0.00  0.00    +0.006 C 
ATOM     17  C   UNL     1      -2.414   3.100  -5.963  0.00  0.00    +0.032 C 
ENDBRANCH   8  17
BRANCH  11  18
ATOM     18  C   UNL     1      -0.821   1.976  -1.688  0.00  0.00    +0.148 C 
BRANCH  18  19
ATOM     19  C   UNL     1      -0.736   0.506  -2.007  0.00  0.00    -0.062 C 
ATOM     20  C   UNL     1       0.433  -0.067  -2.151  0.00  0.00    +0.009 C 
ATOM     21  C   UNL     1      -1.996  -0.305  -2.162  0.00  0.00    +0.040 C 
ENDBRANCH  18  19
ENDBRANCH  11  18
ENDBRANCH   1   8
BRANCH   6  22
ATOM     22  C   UNL     1      -2.425   9.515  -4.559  0.00  0.00    -0.039 C 
BRANCH  22  23
ATOM     23  C   UNL     1      -2.132  10.177  -5.881  0.00  0.00    -0.019 A 
ATOM     24  C   UNL     1      -3.045  10.546  -6.806  0.00  0.00    +0.107 A 
ATOM     25  N   UNL     1      -2.385  11.102  -7.844  0.00  0.00    -0.284 N 
ATOM     26  H   UNL     1      -2.802  11.468  -8.676  0.00  0.00    +0.188 HD
ATOM     27  N   UNL     1      -1.015  11.078  -7.554  0.00  0.00    -0.174 NA
ATOM     28  C   UNL     1      -0.858  10.526  -6.369  0.00  0.00    +0.094 A 
BRANCH  28  29
ATOM     29  C   UNL     1       0.434  10.307  -5.672  0.00  0.00    +0.002 A 
ATOM     30  C   UNL     1       0.550  10.585  -4.312  0.00  0.00    +0.013 A 
ATOM     31  C   UNL     1       1.752  10.376  -3.667  0.00  0.00    +0.039 A 
ATOM     32  C   UNL     1       2.846   9.901  -4.373  0.00  0.00    +0.123 A 
ATOM     33  C   UNL     1       2.736   9.628  -5.727  0.00  0.00    +0.039 A 
ATOM     34  C   UNL     1       1.537   9.829  -6.378  0.00  0.00    +0.013 A 
ATOM     35  F   UNL     1       4.022   9.702  -3.739  0.00  0.00    -0.205 F 
ENDBRANCH  28  29
ENDBRANCH  22  23
ENDBRANCH   6  22
TORSDOF 7
