REMARK  Name = ZINC00051392
REMARK  4 active torsions:
REMARK  status: ('A' for Active; 'I' for Inactive)
REMARK    1  A    between atoms: C_3  and  C_8
REMARK    2  A    between atoms: C_13  and  N_22
REMARK    3  A    between atoms: C_17  and  N_21
REMARK    4  A    between atoms: C_18  and  C_19
REMARK                            x       y       z     vdW  Elec       q    Type
REMARK                         _______ _______ _______ _____ _____    ______ ____
ROOT
ATOM      1  C   UNL     1       3.672   2.183  -0.022  0.00  0.00    +0.098 C 
ATOM      2  C   UNL     1       4.473   1.828   1.202  0.00  0.00    +0.008 A 
ATOM      3  C   UNL     1       4.116   2.363   2.428  0.00  0.00    +0.010 A 
ATOM      4  C   UNL     1       4.838   2.049   3.561  0.00  0.00    +0.023 A 
ATOM      5  C   UNL     1       5.929   1.192   3.474  0.00  0.00    +0.028 A 
ATOM      6  C   UNL     1       6.289   0.655   2.247  0.00  0.00    +0.069 A 
ATOM      7  C   UNL     1       5.560   0.973   1.109  0.00  0.00    +0.136 A 
ATOM      8  O   UNL     1       5.925   0.440  -0.083  0.00  0.00    -0.441 OA
ATOM      9  C   UNL     1       5.508   1.007  -1.227  0.00  0.00    +0.199 C 
ATOM     10  C   UNL     1       4.447   1.842  -1.264  0.00  0.00    +0.098 C 
ENDROOT
BRANCH   1  13
ATOM     11  C   UNL     1      -0.017   1.378   0.010  0.00  0.00    +0.001 A 
ATOM     12  C   UNL     1       1.171   2.086   0.002  0.00  0.00    +0.004 A 
ATOM     13  C   UNL     1       2.378   1.411  -0.013  0.00  0.00    -0.034 A 
ATOM     14  C   UNL     1       2.397   0.029  -0.022  0.00  0.00    +0.020 A 
ATOM     15  C   UNL     1       1.210  -0.679  -0.014  0.00  0.00    +0.018 A 
ATOM     16  C   UNL     1       0.002  -0.004   0.002  0.00  0.00    +0.015 A 
ATOM     17 BR   UNL     1       1.236  -2.570  -0.025  0.00  0.00    -0.050 Br
ENDBRANCH   1  13
BRANCH   9  18
ATOM     18  N   UNL     1       6.180   0.731  -2.392  0.00  0.00    -0.328 N 
ATOM     19  H   UNL     1       6.944   0.133  -2.380  0.00  0.00    +0.145 HD
ATOM     20  H   UNL     1       5.891   1.133  -3.226  0.00  0.00    +0.145 HD
ENDBRANCH   9  18
BRANCH   5  21
ATOM     21  N   UNL     1       6.662   0.874   4.620  0.00  0.00    -0.358 N 
ATOM     22  H   UNL     1       6.410   1.251   5.477  0.00  0.00    +0.142 HD
ATOM     23  H   UNL     1       7.424   0.276   4.558  0.00  0.00    +0.142 HD
ENDBRANCH   5  21
BRANCH  10  24
ATOM     24  C   UNL     1       4.053   2.414  -2.516  0.00  0.00    +0.101 C 
ATOM     25  N   UNL     1       3.741   2.868  -3.510  0.00  0.00    -0.191 NA
ENDBRANCH  10  24
TORSDOF 4
