REMARK  Name = ZINC22252492
REMARK  11 active torsions:
REMARK  status: ('A' for Active; 'I' for Inactive)
REMARK    1  A    between atoms: C_1  and  C_2
REMARK    2  A    between atoms: C_5  and  N_30
REMARK    3  A    between atoms: C_6  and  N_9
REMARK    4  A    between atoms: C_7  and  C_8
REMARK    5  A    between atoms: C_10  and  C_12
REMARK    6  A    between atoms: C_12  and  C_14
REMARK    7  A    between atoms: C_12  and  S_15
REMARK    8  A    between atoms: S_15  and  C_16
REMARK    9  A    between atoms: C_19  and  C_29
REMARK   10  A    between atoms: C_20  and  C_22
REMARK   11  A    between atoms: C_22  and  C_23
REMARK                            x       y       z     vdW  Elec       q    Type
REMARK                         _______ _______ _______ _____ _____    ______ ____
ROOT
ATOM      1  C   UNL     1       0.201   6.316  -0.577  0.00  0.00    +0.137 C 
ATOM      2  C   UNL     1       0.428   5.864   0.867  0.00  0.00    +0.029 C 
ENDROOT
BRANCH   1   4
ATOM      3  N   UNL     1       0.088   8.777  -0.356  0.00  0.00    -0.283 N 
ATOM      4  C   UNL     1       0.778   7.695  -0.768  0.00  0.00    +0.230 C 
ATOM      5  O   UNL     1       1.863   7.831  -1.293  0.00  0.00    -0.274 OA
ATOM      6  H   UNL     1      -0.928   8.660   0.048  0.00  0.00    +0.155 HD
BRANCH   3  12
ATOM      7  C   UNL     1       3.853  11.791   0.600  0.00  0.00    +0.044 C 
ATOM      8  C   UNL     1       2.489  11.538   0.011  0.00  0.00    -0.046 A 
ATOM      9  C   UNL     1       1.806  12.564  -0.616  0.00  0.00    +0.006 A 
ATOM     10  C   UNL     1       0.554  12.336  -1.157  0.00  0.00    +0.035 A 
ATOM     11  C   UNL     1      -0.016  11.080  -1.077  0.00  0.00    +0.148 A 
ATOM     12  C   UNL     1       0.665  10.049  -0.443  0.00  0.00    +0.067 A 
ATOM     13  C   UNL     1       1.922  10.281   0.099  0.00  0.00    -0.024 A 
ATOM     14  C   UNL     1       2.668   9.164   0.782  0.00  0.00    +0.046 C 
BRANCH  11  15
ATOM     15  N   UNL     1      -1.354  10.835  -1.661  0.00  0.00    +0.058 N 
ATOM     16  O   UNL     1      -1.997  11.762  -2.120  0.00  0.00    -0.126 OA
ATOM     17  O   UNL     1      -1.812   9.707  -1.683  0.00  0.00    -0.126 OA
ENDBRANCH  11  15
ENDBRANCH   3  12
ENDBRANCH   1   4
BRANCH   1  18
ATOM     18  S   UNL     1       1.014   5.160  -1.707  0.00  0.00    -0.075 S 
BRANCH  18  19
ATOM     19  C   UNL     1       0.070   3.706  -1.389  0.00  0.00    +0.167 A 
ATOM     20  N   UNL     1       0.252   2.493  -1.980  0.00  0.00    -0.337 N 
ATOM     21  H   UNL     1       1.047   2.360  -2.729  0.00  0.00    +0.168 HD
ATOM     22  C   UNL     1      -0.691   1.642  -1.450  0.00  0.00    +0.037 A 
ATOM     23  C   UNL     1      -1.411   2.355  -0.567  0.00  0.00    +0.067 A 
ATOM     24  N   UNL     1      -0.928   3.608  -0.542  0.00  0.00    -0.226 NA
ATOM     25  C   UNL     1      -0.883   0.188  -1.797  0.00  0.00    +0.065 C 
BRANCH  23  26
ATOM     26  C   UNL     1      -2.562   1.837   0.256  0.00  0.00    +0.092 C 
BRANCH  26  27
ATOM     27  C   UNL     1      -2.042   1.298   1.563  0.00  0.00    -0.042 A 
ATOM     28  C   UNL     1      -1.678  -0.032   1.667  0.00  0.00    +0.004 A 
ATOM     29  C   UNL     1      -1.197  -0.525   2.865  0.00  0.00    +0.000 A 
ATOM     30  C   UNL     1      -1.090   0.308   3.963  0.00  0.00    +0.000 A 
ATOM     31  C   UNL     1      -1.459   1.636   3.860  0.00  0.00    +0.000 A 
ATOM     32  C   UNL     1      -1.935   2.131   2.661  0.00  0.00    +0.004 A 
ENDBRANCH  26  27
ENDBRANCH  23  26
ENDBRANCH  18  19
ENDBRANCH   1  18
TORSDOF 7
