REMARK  Name = ZINC64236872
REMARK  5 active torsions:
REMARK  status: ('A' for Active; 'I' for Inactive)
REMARK    1  A    between atoms: C_1  and  C_2
REMARK    2  A    between atoms: C_4  and  C_7
REMARK    3  A    between atoms: C_7  and  N_8
REMARK    4  A    between atoms: N_11  and  N_12
REMARK    5  A    between atoms: N_12  and  C_13
REMARK                            x       y       z     vdW  Elec       q    Type
REMARK                         _______ _______ _______ _____ _____    ______ ____
ROOT
ATOM      1  N   UNL     1       1.452  -3.445  -2.288  0.00  0.00    -0.291 N 
ATOM      2  C   UNL     1       1.700  -4.581  -2.970  0.00  0.00    +0.316 C 
ATOM      3  O   UNL     1       0.786  -5.184  -3.500  0.00  0.00    -0.251 OA
ATOM      4  N   UNL     1       2.960  -5.048  -3.065  0.00  0.00    -0.220 N 
ATOM      5  H   UNL     1       2.180  -2.964  -1.866  0.00  0.00    +0.151 HD
ATOM      6  H   UNL     1       3.139  -5.866  -3.556  0.00  0.00    +0.174 HD
ENDROOT
BRANCH   4   7
ATOM      7  N   UNL     1       4.013  -4.354  -2.454  0.00  0.00    -0.261 N 
ATOM      8  H   UNL     1       3.825  -3.583  -1.895  0.00  0.00    +0.170 HD
BRANCH   7   9
ATOM      9  C   UNL     1       5.333  -4.771  -2.651  0.00  0.00    +0.081 A 
ATOM     10  C   UNL     1       6.255  -4.676  -1.615  0.00  0.00    +0.066 A 
ATOM     11  C   UNL     1       7.559  -5.088  -1.813  0.00  0.00    +0.042 A 
ATOM     12  C   UNL     1       7.948  -5.596  -3.040  0.00  0.00    +0.044 A 
ATOM     13  C   UNL     1       7.032  -5.692  -4.073  0.00  0.00    +0.042 A 
ATOM     14  C   UNL     1       5.725  -5.287  -3.880  0.00  0.00    +0.066 A 
ATOM     15 CL   UNL     1       4.575  -5.415  -5.175  0.00  0.00    -0.081 Cl
ATOM     16 CL   UNL     1       9.587  -6.112  -3.285  0.00  0.00    -0.083 Cl
ATOM     17 CL   UNL     1       5.769  -4.038  -0.076  0.00  0.00    -0.081 Cl
ENDBRANCH   7   9
ENDBRANCH   4   7
BRANCH   1  18
ATOM     18  C   UNL     1       0.081  -2.937  -2.186  0.00  0.00    +0.183 C 
BRANCH  18  22
ATOM     19  C   UNL     1       0.273   1.983  -0.878  0.00  0.00    +0.069 C 
ATOM     20  C   UNL     1       0.158   0.483  -0.786  0.00  0.00    +0.081 A 
ATOM     21  C   UNL     1       0.220  -0.417  -1.865  0.00  0.00    +0.072 A 
ATOM     22  C   UNL     1       0.076  -1.665  -1.378  0.00  0.00    +0.154 A 
ATOM     23  O   UNL     1      -0.072  -1.576  -0.047  0.00  0.00    -0.358 OA
ATOM     24  N   UNL     1      -0.012  -0.206   0.306  0.00  0.00    -0.083 NA
ENDBRANCH  18  22
ENDBRANCH   1  18
TORSDOF 4
