REMARK  Name = ZINC20466449
REMARK  10 active torsions:
REMARK  status: ('A' for Active; 'I' for Inactive)
REMARK    1  A    between atoms: C_1  and  C_2
REMARK    2  A    between atoms: C_4  and  N_30
REMARK    3  A    between atoms: C_8  and  C_29
REMARK    4  A    between atoms: C_11  and  O_28
REMARK    5  A    between atoms: C_13  and  C_17
REMARK    6  A    between atoms: C_17  and  C_19
REMARK    7  A    between atoms: C_17  and  C_20
REMARK    8  A    between atoms: N_22  and  C_23
REMARK    9  A    between atoms: C_31  and  C_33
REMARK   10  A    between atoms: C_36  and  C_39
REMARK                            x       y       z     vdW  Elec       q    Type
REMARK                         _______ _______ _______ _____ _____    ______ ____
ROOT
ATOM      1  C   UNL     1       2.770   4.330   0.141  0.00  0.00    +0.010 C 
ATOM      2  C   UNL     1       1.345   3.802  -0.039  0.00  0.00    +0.012 C 
ATOM      3  C   UNL     1       0.552   4.026   1.250  0.00  0.00    +0.076 C 
ATOM      4  C   UNL     1      -0.873   3.498   1.071  0.00  0.00    +0.023 C 
ATOM      5  C   UNL     1      -0.827   2.002   0.754  0.00  0.00    +0.009 C 
ATOM      6  C   UNL     1      -0.033   1.778  -0.535  0.00  0.00    -0.027 C 
ATOM      7  C   UNL     1       1.391   2.306  -0.355  0.00  0.00    +0.028 C 
ATOM      8  C   UNL     1       2.185   2.082  -1.644  0.00  0.00    +0.122 C 
ATOM      9  C   UNL     1       2.231   0.586  -1.961  0.00  0.00    +0.029 C 
ATOM     10  C   UNL     1       0.806   0.058  -2.141  0.00  0.00    +0.007 C 
ATOM     11  C   UNL     1       0.013   0.282  -0.852  0.00  0.00    +0.007 C 
ATOM     12  C   UNL     1      -0.711   2.522  -1.687  0.00  0.00    +0.011 C 
ENDROOT
BRANCH   3  13
ATOM     13  N   UNL     1       0.507   5.458   1.554  0.00  0.00    -0.308 N 
ATOM     14  C   UNL     1       0.332   5.873   2.824  0.00  0.00    +0.244 C 
ATOM     15  O   UNL     1       0.210   5.059   3.718  0.00  0.00    -0.270 OA
ATOM     16  H   UNL     1       0.617   6.196   0.744  0.00  0.00    +0.149 HD
BRANCH  14  17
ATOM     17  C   UNL     1       0.287   7.320   3.130  0.00  0.00    +0.037 A 
ATOM     18  C   UNL     1       0.432   8.255   2.104  0.00  0.00    +0.014 A 
ATOM     19  C   UNL     1       0.385   9.602   2.388  0.00  0.00    +0.019 A 
ATOM     20  C   UNL     1       0.203  10.032   3.704  0.00  0.00    +0.052 A 
ATOM     21  C   UNL     1       0.063   9.096   4.731  0.00  0.00    +0.019 A 
ATOM     22  C   UNL     1       0.104   7.749   4.446  0.00  0.00    +0.014 A 
BRANCH  20  23
ATOM     23  C   UNL     1       0.160  11.432   4.001  0.00  0.00    +0.099 C 
ATOM     24  N   UNL     1       0.126  12.543   4.236  0.00  0.00    -0.191 NA
ENDBRANCH  20  23
ENDBRANCH  14  17
ENDBRANCH   3  13
BRANCH   9  25
ATOM     25  C   UNL     1       3.025   0.361  -3.250  0.00  0.00    +0.077 C 
ATOM     26  C   UNL     1       2.270   0.982  -4.428  0.00  0.00    +0.017 C 
BRANCH  25  27
ATOM     27  C   UNL     1       3.194  -1.117  -3.485  0.00  0.00    +0.216 C 
ATOM     28  O   UNL     1       2.699  -1.914  -2.716  0.00  0.00    -0.276 OA
ATOM     29  N   UNL     1       3.895  -1.555  -4.550  0.00  0.00    -0.312 N 
ATOM     30  H   UNL     1       4.343  -0.832  -5.247  0.00  0.00    +0.149 HD
BRANCH  29  31
ATOM     31  C   UNL     1       4.059  -2.992  -4.778  0.00  0.00    +0.073 C 
ATOM     32  C   UNL     1       5.290  -3.513  -4.008  0.00  0.00    +0.022 C 
ATOM     33  C   UNL     1       5.912  -4.570  -4.955  0.00  0.00    +0.002 C 
ATOM     34  C   UNL     1       5.712  -3.936  -6.354  0.00  0.00    +0.002 C 
ATOM     35  C   UNL     1       4.327  -3.262  -6.270  0.00  0.00    +0.022 C 
ENDBRANCH  29  31
ENDBRANCH  25  27
ENDBRANCH   9  25
BRANCH   8  36
ATOM     36  O   UNL     1       3.515   2.575  -1.476  0.00  0.00    -0.391 OA
ATOM     37  H   UNL     1       4.238   2.500  -2.303  0.00  0.00    +0.210 HD
ENDBRANCH   8  36
TORSDOF 7
