REMARK  Name = ZINC06396188
REMARK  11 active torsions:
REMARK  status: ('A' for Active; 'I' for Inactive)
REMARK    1  A    between atoms: C_1  and  C_2
REMARK    2  A    between atoms: C_2  and  C_3
REMARK    3  A    between atoms: C_3  and  C_4
REMARK    4  A    between atoms: C_3  and  C_5
REMARK    5  A    between atoms: C_3  and  C_6
REMARK    6  A    between atoms: C_15  and  O_30
REMARK    7  A    between atoms: C_17  and  C_20
REMARK    8  A    between atoms: C_23  and  O_28
REMARK    9  A    between atoms: C_24  and  O_26
REMARK   10  A    between atoms: O_26  and  C_27
REMARK   11  A    between atoms: O_28  and  C_29
REMARK                            x       y       z     vdW  Elec       q    Type
REMARK                         _______ _______ _______ _____ _____    ______ ____
ROOT
ATOM      1  C   UNL     1       5.970   5.472   6.489  0.00  0.00    -0.000 C 
ATOM      2  C   UNL     1       5.224   5.323   7.819  0.00  0.00    +0.009 C 
ATOM      3  C   UNL     1       3.912   4.569   7.597  0.00  0.00    +0.037 C 
ATOM      4  C   UNL     1       4.211   3.269   6.860  0.00  0.00    -0.023 A 
ATOM      5  C   UNL     1       5.375   3.104   6.190  0.00  0.00    -0.004 A 
ATOM      6  S   UNL     1       5.282   1.468   5.510  0.00  0.00    -0.078 S 
ATOM      7  C   UNL     1       3.741   1.021   6.103  0.00  0.00    +0.080 A 
ATOM      8  C   UNL     1       3.299   2.139   6.820  0.00  0.00    +0.068 A 
ATOM      9  C   UNL     1       1.957   2.056   7.452  0.00  0.00    +0.220 C 
ATOM     10  N   UNL     1       1.200   1.041   7.140  0.00  0.00    -0.223 NA
ATOM     11  C   UNL     1       1.532   0.032   6.141  0.00  0.00    +0.224 C 
ATOM     12  N   UNL     1       2.990  -0.124   5.987  0.00  0.00    -0.313 N 
ATOM     13  C   UNL     1       6.491   4.093   6.059  0.00  0.00    +0.046 C 
ATOM     14  H   UNL     1       3.419  -1.117   5.790  0.00  0.00    +0.149 HD
ENDROOT
BRANCH  11  15
ATOM     15  C   UNL     1       0.938   0.439   4.817  0.00  0.00    -0.002 A 
ATOM     16  C   UNL     1       1.534   0.028   3.639  0.00  0.00    +0.011 A 
ATOM     17  C   UNL     1       0.990   0.393   2.422  0.00  0.00    +0.050 A 
ATOM     18  C   UNL     1      -0.148   1.182   2.380  0.00  0.00    +0.162 A 
ATOM     19  C   UNL     1      -0.748   1.595   3.566  0.00  0.00    +0.162 A 
ATOM     20  C   UNL     1      -0.201   1.221   4.783  0.00  0.00    +0.056 A 
BRANCH  19  21
ATOM     21  O   UNL     1      -1.869   2.365   3.531  0.00  0.00    -0.491 OA
ATOM     22  C   UNL     1      -2.430   2.752   4.787  0.00  0.00    +0.277 C 
ENDBRANCH  19  21
BRANCH  18  23
ATOM     23  O   UNL     1      -0.682   1.547   1.184  0.00  0.00    -0.491 OA
ATOM     24  C   UNL     1      -0.013   1.086   0.008  0.00  0.00    +0.277 C 
ENDBRANCH  18  23
ENDBRANCH  11  15
BRANCH   1  25
ATOM     25  C   UNL     1       7.148   6.433   6.666  0.00  0.00    -0.032 C 
ATOM     26  C   UNL     1       6.628   7.800   7.113  0.00  0.00    +0.011 C 
ATOM     27  C   UNL     1       8.103   5.879   7.726  0.00  0.00    +0.011 C 
BRANCH  25  29
ATOM     28  C   UNL     1       9.069   7.540   5.514  0.00  0.00    +0.004 C 
ATOM     29  C   UNL     1       7.891   6.579   5.337  0.00  0.00    +0.003 C 
ENDBRANCH  25  29
ENDBRANCH   1  25
BRANCH   9  30
ATOM     30  O   UNL     1       1.534   3.002   8.322  0.00  0.00    -0.492 OA
ATOM     31  H   UNL     1       0.537   2.923   8.779  0.00  0.00    +0.294 HD
ENDBRANCH   9  30
TORSDOF 6
