REMARK  Name = ZINC36156958
REMARK  12 active torsions:
REMARK  status: ('A' for Active; 'I' for Inactive)
REMARK    1  A    between atoms: C_1  and  C_2
REMARK    2  A    between atoms: C_7  and  O_8
REMARK    3  A    between atoms: O_8  and  C_9
REMARK    4  A    between atoms: C_9  and  C_10
REMARK    5  A    between atoms: C_10  and  C_12
REMARK    6  A    between atoms: C_10  and  O_33
REMARK    7  A    between atoms: C_12  and  N_13
REMARK    8  A    between atoms: N_13  and  C_14
REMARK    9  A    between atoms: N_13  and  C_30
REMARK   10  A    between atoms: C_14  and  C_15
REMARK   11  A    between atoms: C_30  and  C_31
REMARK   12  A    between atoms: C_30  and  C_32
REMARK                            x       y       z     vdW  Elec       q    Type
REMARK                         _______ _______ _______ _____ _____    ______ ____
ROOT
ATOM      1  N   UNL     1      -0.468   0.236   7.311  0.00  0.00    +0.388 N 
ATOM      2  H   UNL     1      -0.133   1.178   7.175  0.00  0.00    -0.081 HD
ENDROOT
BRANCH   1   3
ATOM      3  C   UNL     1      -1.935   0.222   7.233  0.00  0.00    -0.074 C 
ATOM      4  C   UNL     1      -2.439  -1.216   7.365  0.00  0.00    -0.014 C 
ATOM      5  C   UNL     1      -2.514   1.071   8.366  0.00  0.00    -0.014 C 
ENDBRANCH   1   3
BRANCH   1   6
ATOM      6  C   UNL     1       0.086  -0.636   6.267  0.00  0.00    -0.043 C 
BRANCH   6   7
ATOM      7  C   UNL     1      -0.269  -0.072   4.889  0.00  0.00    +0.135 C 
BRANCH   7   8
ATOM      8  O   UNL     1       0.293   1.234   4.751  0.00  0.00    -0.390 OA
ATOM      9  H   UNL     1       1.257   1.259   4.829  0.00  0.00    +0.210 HD
ENDBRANCH   7   8
BRANCH   7  10
ATOM     10  C   UNL     1       0.296  -0.988   3.802  0.00  0.00    +0.258 C 
BRANCH  10  11
ATOM     11  O   UNL     1      -0.133  -0.526   2.520  0.00  0.00    -0.489 OA
BRANCH  11  18
ATOM     12  C   UNL     1      -0.970   0.370  -0.025  0.00  0.00    +0.047 C 
ATOM     13  C   UNL     1      -0.094  -0.842   0.162  0.00  0.00    -0.009 A 
ATOM     14  C   UNL     1       0.337  -1.560  -0.937  0.00  0.00    +0.007 A 
ATOM     15  C   UNL     1       1.140  -2.672  -0.766  0.00  0.00    +0.000 A 
ATOM     16  C   UNL     1       1.515  -3.069   0.505  0.00  0.00    +0.004 A 
ATOM     17  C   UNL     1       1.087  -2.354   1.607  0.00  0.00    +0.046 A 
ATOM     18  C   UNL     1       0.285  -1.234   1.437  0.00  0.00    +0.124 A 
ENDBRANCH  11  18
ENDBRANCH  10  11
ENDBRANCH   7  10
ENDBRANCH   6   7
ENDBRANCH   1   6
BRANCH   1  19
ATOM     19  C   UNL     1      -0.043  -0.249   8.630  0.00  0.00    -0.003 C 
BRANCH  19  20
ATOM     20  C   UNL     1      -0.011   0.902   9.602  0.00  0.00    +0.094 A 
ATOM     21  N   UNL     1       0.211   0.657  10.919  0.00  0.00    -0.312 N 
ATOM     22  H   UNL     1       0.347  -0.256  11.216  0.00  0.00    +0.170 HD
ATOM     23  C   UNL     1       0.248   1.656  11.821  0.00  0.00    +0.260 A 
ATOM     24  O   UNL     1       0.450   1.420  13.000  0.00  0.00    -0.267 OA
ATOM     25  C   UNL     1       0.047   3.002  11.372  0.00  0.00    +0.075 A 
ATOM     26  C   UNL     1       0.043   4.233  12.162  0.00  0.00    -0.023 A 
ATOM     27  C   UNL     1      -0.172   5.387  11.497  0.00  0.00    -0.004 A 
ATOM     28  S   UNL     1      -0.377   4.909   9.802  0.00  0.00    -0.073 S 
ATOM     29  C   UNL     1      -0.175   3.156   9.995  0.00  0.00    +0.116 A 
ATOM     30  N   UNL     1      -0.193   2.119   9.162  0.00  0.00    -0.229 NA
ATOM     31  C   UNL     1      -0.225   6.770  12.071  0.00  0.00    +0.043 C 
ATOM     32  C   UNL     1      -0.368   6.655  13.596  0.00  0.00    +0.005 C 
ATOM     33  C   UNL     1       0.661   5.645  14.111  0.00  0.00    +0.005 C 
ATOM     34  C   UNL     1       0.268   4.234  13.672  0.00  0.00    +0.037 C 
ENDBRANCH  19  20
ENDBRANCH   1  19
TORSDOF 9
