REMARK  Name = ZINC38309900
REMARK  8 active torsions:
REMARK  status: ('A' for Active; 'I' for Inactive)
REMARK    1  A    between atoms: C_1  and  C_2
REMARK    2  A    between atoms: C_4  and  O_19
REMARK    3  A    between atoms: N_8  and  C_9
REMARK    4  A    between atoms: C_9  and  C_10
REMARK    5  A    between atoms: C_14  and  C_16
REMARK    6  A    between atoms: C_16  and  N_17
REMARK    7  A    between atoms: O_19  and  C_20
REMARK    8  A    between atoms: C_20  and  C_21
REMARK                            x       y       z     vdW  Elec       q    Type
REMARK                         _______ _______ _______ _____ _____    ______ ____
ROOT
ATOM      1  C   UNL     1       0.013   1.169  -0.148  0.00  0.00    +0.064 C 
ATOM      2  C   UNL     1       0.005  -0.325   0.052  0.00  0.00    +0.023 A 
ATOM      3  C   UNL     1      -0.100  -1.140  -1.020  0.00  0.00    +0.068 A 
ATOM      4  C   UNL     1      -0.107  -2.537  -0.839  0.00  0.00    +0.142 A 
ATOM      5  C   UNL     1      -0.006  -3.048   0.442  0.00  0.00    +0.124 A 
ATOM      6  C   UNL     1       0.102  -2.163   1.522  0.00  0.00    +0.269 A 
ATOM      7  O   UNL     1       0.193  -2.597   2.659  0.00  0.00    -0.266 OA
ATOM      8  N   UNL     1       0.111  -0.834   1.308  0.00  0.00    -0.307 N 
ATOM      9 BR   UNL     1      -0.012  -4.917   0.732  0.00  0.00    -0.041 Br
ENDROOT
BRANCH   8  10
ATOM     10  C   UNL     1       0.230   0.079   2.447  0.00  0.00    +0.160 C 
BRANCH  10  11
ATOM     11  C   UNL     1       1.687   0.340   2.732  0.00  0.00    -0.027 A 
ATOM     12  C   UNL     1       2.399  -0.527   3.539  0.00  0.00    +0.005 A 
ATOM     13  C   UNL     1       3.735  -0.288   3.800  0.00  0.00    +0.001 A 
ATOM     14  C   UNL     1       4.359   0.818   3.253  0.00  0.00    +0.002 A 
ATOM     15  C   UNL     1       3.647   1.684   2.445  0.00  0.00    -0.065 A 
ATOM     16  C   UNL     1       2.312   1.442   2.180  0.00  0.00    +0.007 A 
BRANCH  15  17
ATOM     17  C   UNL     1       4.327   2.889   1.849  0.00  0.00    -0.051 C 
BRANCH  17  18
ATOM     18  N   UNL     1       4.900   2.533   0.544  0.00  0.00    +0.381 N 
ATOM     19  H   UNL     1       5.574   1.792   0.663  0.00  0.00    -0.090 HD
ATOM     20  H   UNL     1       4.164   2.223  -0.073  0.00  0.00    -0.090 HD
ATOM     21  H   UNL     1       5.355   3.340   0.144  0.00  0.00    -0.090 HD
ENDBRANCH  17  18
ENDBRANCH  15  17
ENDBRANCH  10  11
ENDBRANCH   8  10
BRANCH   4  22
ATOM     22  O   UNL     1      -0.213  -3.368  -1.905  0.00  0.00    -0.486 OA
BRANCH  22  23
ATOM     23  C   UNL     1      -1.427  -3.309  -2.655  0.00  0.00    +0.267 C 
BRANCH  23  24
ATOM     24  C   UNL     1      -1.415  -4.380  -3.715  0.00  0.00    +0.025 A 
ATOM     25  C   UNL     1      -0.329  -5.228  -3.828  0.00  0.00    +0.012 A 
ATOM     26  C   UNL     1      -0.317  -6.210  -4.800  0.00  0.00    +0.039 A 
ATOM     27  C   UNL     1      -1.392  -6.347  -5.661  0.00  0.00    +0.126 A 
ATOM     28  C   UNL     1      -2.480  -5.499  -5.549  0.00  0.00    +0.077 A 
ATOM     29  C   UNL     1      -2.494  -4.518  -4.572  0.00  0.00    +0.132 A 
ATOM     30  F   UNL     1      -3.558  -3.693  -4.457  0.00  0.00    -0.205 F 
ATOM     31  F   UNL     1      -1.379  -7.307  -6.612  0.00  0.00    -0.205 F 
ENDBRANCH  23  24
ENDBRANCH  22  23
ENDBRANCH   4  22
TORSDOF 7
