REMARK  Name = ZINC33302676
REMARK  7 active torsions:
REMARK  status: ('A' for Active; 'I' for Inactive)
REMARK    1  A    between atoms: C_1  and  C_2
REMARK    2  A    between atoms: C_5  and  C_8
REMARK    3  A    between atoms: C_8  and  N_9
REMARK    4  A    between atoms: C_23  and  C_26
REMARK    5  A    between atoms: N_28  and  C_29
REMARK    6  A    between atoms: C_29  and  C_30
REMARK    7  A    between atoms: C_30  and  C_31
REMARK                            x       y       z     vdW  Elec       q    Type
REMARK                         _______ _______ _______ _____ _____    ______ ____
ROOT
ATOM      1  N   UNL     1       3.500   3.343  -1.932  0.00  0.00    -0.276 N 
ATOM      2  C   UNL     1       4.722   3.905  -2.088  0.00  0.00    +0.270 A 
ATOM      3  O   UNL     1       4.851   4.972  -2.666  0.00  0.00    -0.266 OA
ATOM      4  C   UNL     1       5.829   3.230  -1.578  0.00  0.00    +0.102 A 
ATOM      5  C   UNL     1       5.697   2.000  -0.910  0.00  0.00    +0.087 A 
ATOM      6  C   UNL     1       6.893   1.432  -0.449  0.00  0.00    +0.036 A 
ATOM      7  C   UNL     1       8.069   2.063  -0.657  0.00  0.00    +0.048 A 
ATOM      8  S   UNL     1       7.575   3.537  -1.536  0.00  0.00    -0.090 S 
ATOM      9  N   UNL     1       4.420   1.511  -0.794  0.00  0.00    -0.215 NA
ATOM     10  C   UNL     1       3.391   2.152  -1.276  0.00  0.00    +0.202 A 
ATOM     11  N   UNL     1       2.142   1.599  -1.121  0.00  0.00    -0.300 N 
ATOM     12  C   UNL     1       2.226   0.140  -0.985  0.00  0.00    +0.108 C 
ATOM     13  C   UNL     1       0.816  -0.454  -0.961  0.00  0.00    +0.020 C 
ATOM     14  C   UNL     1       0.036   0.144   0.214  0.00  0.00    +0.016 C 
ATOM     15  C   UNL     1       0.005   1.668   0.073  0.00  0.00    +0.092 C 
ATOM     16  C   UNL     1       1.439   2.200   0.019  0.00  0.00    +0.120 C 
ENDROOT
BRANCH  15  17
ATOM     17  C   UNL     1      -0.710   2.268   1.256  0.00  0.00    +0.218 C 
ATOM     18  O   UNL     1      -0.132   3.048   1.982  0.00  0.00    -0.275 OA
ATOM     19  N   UNL     1      -1.993   1.939   1.506  0.00  0.00    -0.315 N 
ATOM     20  H   UNL     1      -2.518   1.232   0.847  0.00  0.00    +0.149 HD
BRANCH  19  21
ATOM     21  C   UNL     1      -2.688   2.522   2.656  0.00  0.00    +0.108 C 
BRANCH  21  22
ATOM     22  C   UNL     1      -4.120   1.987   2.712  0.00  0.00    +0.049 C 
BRANCH  22  23
ATOM     23  C   UNL     1      -4.835   2.587   3.895  0.00  0.00    -0.072 C 
ATOM     24  C   UNL     1      -5.555   3.644   3.696  0.00  0.00    -0.028 C 
ATOM     25  C   UNL     1      -6.316   4.358   4.775  0.00  0.00    +0.027 C 
ATOM     26  C   UNL     1      -6.469   3.453   5.999  0.00  0.00    +0.004 C 
ATOM     27  C   UNL     1      -5.093   2.874   6.350  0.00  0.00    +0.005 C 
ATOM     28  C   UNL     1      -4.673   1.918   5.228  0.00  0.00    +0.030 C 
ENDBRANCH  22  23
ENDBRANCH  21  22
ENDBRANCH  19  21
ENDBRANCH  15  17
BRANCH   1  29
ATOM     29  C   UNL     1       2.306   4.011  -2.456  0.00  0.00    +0.163 C 
BRANCH  29  34
ATOM     30  C   UNL     1       1.179   2.051  -7.774  0.00  0.00    +0.044 C 
ATOM     31  C   UNL     1       1.472   2.563  -6.387  0.00  0.00    -0.050 A 
ATOM     32  C   UNL     1       0.826   2.012  -5.296  0.00  0.00    +0.004 A 
ATOM     33  C   UNL     1       1.096   2.481  -4.024  0.00  0.00    +0.005 A 
ATOM     34  C   UNL     1       2.012   3.500  -3.843  0.00  0.00    -0.028 A 
ATOM     35  C   UNL     1       2.654   4.055  -4.934  0.00  0.00    +0.005 A 
ATOM     36  C   UNL     1       2.388   3.583  -6.206  0.00  0.00    +0.004 A 
ENDBRANCH  29  34
ENDBRANCH   1  29
TORSDOF 6
