REMARK  Name = ZINC43548552
REMARK  9 active torsions:
REMARK  status: ('A' for Active; 'I' for Inactive)
REMARK    1  A    between atoms: C_1  and  C_2
REMARK    2  A    between atoms: N_9  and  C_10
REMARK    3  A    between atoms: C_10  and  C_11
REMARK    4  A    between atoms: C_11  and  C_12
REMARK    5  A    between atoms: C_19  and  C_40
REMARK    6  A    between atoms: C_22  and  O_39
REMARK    7  A    between atoms: C_24  and  C_28
REMARK    8  A    between atoms: C_28  and  C_30
REMARK    9  A    between atoms: C_28  and  C_31
REMARK                            x       y       z     vdW  Elec       q    Type
REMARK                         _______ _______ _______ _____ _____    ______ ____
ROOT
ATOM      1  C   UNL     1       2.344   3.281   1.208  0.00  0.00    +0.014 C 
ATOM      2  C   UNL     1       1.335   2.204   0.802  0.00  0.00    +0.042 C 
ATOM      3  C   UNL     1      -0.075   2.707   1.062  0.00  0.00    +0.057 A 
ATOM      4  C   UNL     1      -1.017   1.882   1.585  0.00  0.00    +0.015 A 
ATOM      5  S   UNL     1      -2.441   2.930   1.682  0.00  0.00    -0.057 S 
ATOM      6  C   UNL     1      -1.730   4.324   1.057  0.00  0.00    +0.159 A 
ATOM      7  N   UNL     1      -0.495   3.946   0.812  0.00  0.00    -0.229 NA
ATOM      8  N   UNL     1      -2.307   5.567   0.850  0.00  0.00    -0.323 N 
ATOM      9  C   UNL     1      -0.857   0.452   1.972  0.00  0.00    +0.051 C 
ATOM     10  C   UNL     1       0.456  -0.075   1.387  0.00  0.00    -0.022 C 
ATOM     11  C   UNL     1       1.583   0.936   1.627  0.00  0.00    +0.033 C 
ATOM     12  C   UNL     1       2.894   0.300   1.137  0.00  0.00    +0.123 C 
ATOM     13  C   UNL     1       2.781   0.038  -0.367  0.00  0.00    +0.029 C 
ATOM     14  C   UNL     1       1.623  -0.921  -0.644  0.00  0.00    +0.007 C 
ATOM     15  C   UNL     1       0.317  -0.324  -0.113  0.00  0.00    +0.008 C 
ATOM     16  C   UNL     1       0.826  -1.386   2.083  0.00  0.00    +0.012 C 
ATOM     17  H   UNL     1      -1.779   6.292   0.479  0.00  0.00    +0.148 HD
ENDROOT
BRANCH  13  18
ATOM     18  C   UNL     1       4.085  -0.584  -0.873  0.00  0.00    +0.078 C 
ATOM     19  C   UNL     1       3.929  -0.967  -2.346  0.00  0.00    +0.017 C 
BRANCH  18  20
ATOM     20  C   UNL     1       4.401  -1.816  -0.064  0.00  0.00    +0.219 C 
ATOM     21  O   UNL     1       3.513  -2.408   0.512  0.00  0.00    -0.275 OA
ATOM     22  N   UNL     1       5.670  -2.260   0.018  0.00  0.00    -0.300 N 
ATOM     23  C   UNL     1       6.750  -1.480  -0.588  0.00  0.00    +0.118 C 
ATOM     24  C   UNL     1       7.678  -0.951   0.512  0.00  0.00    +0.088 C 
ATOM     25  S   UNL     1       8.304  -2.362   1.473  0.00  0.00    -0.158 S 
ATOM     26  C   UNL     1       6.785  -3.231   1.968  0.00  0.00    +0.088 C 
ATOM     27  C   UNL     1       5.954  -3.514   0.718  0.00  0.00    +0.118 C 
ENDBRANCH  18  20
ENDBRANCH  13  18
BRANCH  12  28
ATOM     28  O   UNL     1       3.982   1.192   1.390  0.00  0.00    -0.391 OA
ATOM     29  H   UNL     1       4.836   0.871   1.070  0.00  0.00    +0.210 HD
ENDBRANCH  12  28
BRANCH   8  30
ATOM     30  C   UNL     1      -3.714   5.788   1.193  0.00  0.00    +0.109 C 
BRANCH  30  31
ATOM     31  C   UNL     1      -4.098   7.233   0.870  0.00  0.00    +0.074 C 
BRANCH  31  32
ATOM     32  C   UNL     1      -5.545   7.460   1.222  0.00  0.00    +0.043 A 
ATOM     33  C   UNL     1      -5.887   8.493   2.074  0.00  0.00    +0.023 A 
ATOM     34  C   UNL     1      -7.222   8.693   2.393  0.00  0.00    +0.003 A 
ATOM     35  C   UNL     1      -8.167   7.842   1.839  0.00  0.00    +0.020 A 
ATOM     36  C   UNL     1      -7.750   6.831   0.995  0.00  0.00    +0.111 A 
ATOM     37  N   UNL     1      -6.472   6.673   0.711  0.00  0.00    -0.260 NA
ENDBRANCH  31  32
ENDBRANCH  30  31
ENDBRANCH   8  30
TORSDOF 6
