REMARK  Name = ZINC04475158
REMARK  14 active torsions:
REMARK  status: ('A' for Active; 'I' for Inactive)
REMARK    1  A    between atoms: C_1  and  C_2
REMARK    2  A    between atoms: C_7  and  C_8
REMARK    3  A    between atoms: C_8  and  C_10
REMARK    4  A    between atoms: C_8  and  C_34
REMARK    5  A    between atoms: C_10  and  N_11
REMARK    6  A    between atoms: N_18  and  C1*_21
REMARK    7  A    between atoms: C2*_23  and  O2*_33
REMARK    8  A    between atoms: C3*_25  and  O3*_32
REMARK    9  A    between atoms: C4*_27  and  C5*_30
REMARK   10  A    between atoms: C5*_30  and  O5*_31
REMARK   11  A    between atoms: C_36  and  O_42
REMARK   12  A    between atoms: C_38  and  O_40
REMARK   13  A    between atoms: O_40  and  C_41
REMARK   14  A    between atoms: O_42  and  C_43
REMARK                            x       y       z     vdW  Elec       q    Type
REMARK                         _______ _______ _______ _____ _____    ______ ____
ROOT
ATOM      1  N   UNL     1      -0.457   0.558  -0.059  0.00  0.00    -0.326 N 
ATOM      2  C   UNL     1      -1.756   1.035  -0.080  0.00  0.00    +0.150 A 
ATOM      3  C   UNL     1      -2.843   0.171   0.137  0.00  0.00    +0.147 A 
ATOM      4  C   UNL     1      -4.138   0.714   0.107  0.00  0.00    +0.167 A 
ATOM      5  N   UNL     1      -4.289   2.012  -0.133  0.00  0.00    -0.216 NA
ATOM      6  C   UNL     1      -3.241   2.783  -0.335  0.00  0.00    +0.225 A 
ATOM      7  N   UNL     1      -2.005   2.319  -0.312  0.00  0.00    -0.219 NA
ATOM      8  N   UNL     1      -4.992  -0.332   0.352  0.00  0.00    -0.286 N 
ATOM      9  C   UNL     1      -4.231  -1.449   0.525  0.00  0.00    +0.203 A 
ATOM     10  N   UNL     1      -2.970  -1.152   0.402  0.00  0.00    -0.231 NA
ATOM     11  H   UNL     1      -0.453  -0.163  -0.751  0.00  0.00    +0.148 HD
ENDROOT
BRANCH   8  12
ATOM     12  C1* UNL     1      -6.454  -0.260   0.415  0.00  0.00    +0.253 C 
ATOM     13  C2* UNL     1      -7.047  -0.390  -1.001  0.00  0.00    +0.195 C 
ATOM     14  C3* UNL     1      -7.971  -1.629  -0.914  0.00  0.00    +0.178 C 
ATOM     15  C4* UNL     1      -8.229  -1.734   0.611  0.00  0.00    +0.177 C 
ATOM     16  O4* UNL     1      -6.964  -1.354   1.197  0.00  0.00    -0.346 OA
BRANCH  14  17
ATOM     17  O3* UNL     1      -7.306  -2.796  -1.402  0.00  0.00    -0.386 OA
ATOM     18  H3* UNL     1      -7.845  -3.598  -1.368  0.00  0.00    +0.210 HD
ENDBRANCH  14  17
BRANCH  13  19
ATOM     19  O2* UNL     1      -7.803   0.776  -1.335  0.00  0.00    -0.385 OA
ATOM     20  H2* UNL     1      -8.199   0.748  -2.217  0.00  0.00    +0.210 HD
ENDBRANCH  13  19
BRANCH  15  21
ATOM     21  C5* UNL     1      -8.597  -3.169   0.996  0.00  0.00    +0.190 C 
BRANCH  21  22
ATOM     22  O5* UNL     1      -8.943  -3.215   2.382  0.00  0.00    -0.392 OA
ATOM     23  H5* UNL     1      -9.187  -4.096   2.697  0.00  0.00    +0.210 HD
ENDBRANCH  21  22
ENDBRANCH  15  21
ENDBRANCH   8  12
BRANCH   1  24
ATOM     24  C   UNL     1       0.663   1.472  -0.299  0.00  0.00    +0.115 C 
BRANCH  24  25
ATOM     25  C   UNL     1       1.979   0.696  -0.227  0.00  0.00    +0.066 C 
BRANCH  25  32
ATOM     26  C   UNL     1       2.475  -2.093   0.346  0.00  0.00    +0.044 C 
ATOM     27  C   UNL     1       2.271  -1.640  -1.077  0.00  0.00    -0.047 A 
ATOM     28  C   UNL     1       2.321  -2.559  -2.108  0.00  0.00    +0.003 A 
ATOM     29  C   UNL     1       2.133  -2.145  -3.413  0.00  0.00    +0.000 A 
ATOM     30  C   UNL     1       1.896  -0.811  -3.688  0.00  0.00    +0.000 A 
ATOM     31  C   UNL     1       1.841   0.108  -2.656  0.00  0.00    +0.004 A 
ATOM     32  C   UNL     1       2.034  -0.306  -1.351  0.00  0.00    -0.036 A 
ENDBRANCH  25  32
BRANCH  25  33
ATOM     33  C   UNL     1       3.135   1.654  -0.351  0.00  0.00    -0.032 A 
ATOM     34  C   UNL     1       3.177   2.552  -1.401  0.00  0.00    +0.050 A 
ATOM     35  C   UNL     1       4.237   3.439  -1.515  0.00  0.00    +0.124 A 
ATOM     36  C   UNL     1       5.261   3.418  -0.581  0.00  0.00    +0.091 A 
ATOM     37  C   UNL     1       5.220   2.512   0.468  0.00  0.00    +0.124 A 
ATOM     38  C   UNL     1       4.155   1.630   0.581  0.00  0.00    +0.050 A 
BRANCH  37  39
ATOM     39  O   UNL     1       6.223   2.488   1.386  0.00  0.00    -0.495 OA
ATOM     40  C   UNL     1       7.287   3.425   1.208  0.00  0.00    +0.277 C 
ENDBRANCH  37  39
BRANCH  35  41
ATOM     41  O   UNL     1       4.274   4.326  -2.544  0.00  0.00    -0.495 OA
ATOM     42  C   UNL     1       5.399   5.207  -2.601  0.00  0.00    +0.277 C 
ENDBRANCH  35  41
ENDBRANCH  25  33
ENDBRANCH  24  25
ENDBRANCH   1  24
TORSDOF 11
