REMARK  Name = ZINC36308970
REMARK  16 active torsions:
REMARK  status: ('A' for Active; 'I' for Inactive)
REMARK    1  A    between atoms: C_1  and  O_2
REMARK    2  A    between atoms: O_2  and  C_3
REMARK    3  A    between atoms: C_7  and  O_9
REMARK    4  A    between atoms: O_9  and  C_10
REMARK    5  A    between atoms: C_10  and  C_11
REMARK    6  A    between atoms: C_21  and  C_23
REMARK    7  A    between atoms: C_23  and  N_24
REMARK    8  A    between atoms: N_24  and  C_25
REMARK    9  A    between atoms: N_24  and  C_28
REMARK   10  A    between atoms: C_25  and  C_26
REMARK   11  A    between atoms: C_28  and  C_29
REMARK   12  A    between atoms: C_29  and  C_31
REMARK   13  A    between atoms: C_29  and  O_36
REMARK   14  A    between atoms: C_31  and  O_32
REMARK   15  A    between atoms: O_32  and  C_33
REMARK   16  A    between atoms: C_33  and  C_34
REMARK                            x       y       z     vdW  Elec       q    Type
REMARK                         _______ _______ _______ _____ _____    ______ ____
ROOT
ATOM      1  C   UNL     1       1.103  -5.226  -3.457  0.00  0.00    +0.144 C 
ATOM      2  C   UNL     1       1.649  -5.435  -2.045  0.00  0.00    -0.014 A 
ATOM      3  C   UNL     1       2.951  -5.101  -1.673  0.00  0.00    +0.013 A 
ATOM      4  C   UNL     1       3.365  -5.310  -0.402  0.00  0.00    +0.046 A 
ATOM      5  S   UNL     1       1.903  -6.007   0.352  0.00  0.00    -0.101 S 
ATOM      6  C   UNL     1       0.856  -5.970  -1.078  0.00  0.00    -0.004 A 
ATOM      7  C   UNL     1      -0.563  -6.422  -1.201  0.00  0.00    +0.061 C 
ATOM      8  C   UNL     1      -1.159  -5.831  -2.489  0.00  0.00    +0.113 C 
ATOM      9  N   UNL     1      -0.162  -5.964  -3.563  0.00  0.00    -0.292 N 
ATOM     10  C   UNL     1      -0.406  -6.753  -4.629  0.00  0.00    +0.200 C 
ATOM     11  O   UNL     1       0.422  -6.856  -5.508  0.00  0.00    -0.278 OA
ENDROOT
BRANCH   1  12
ATOM     12  C   UNL     1       0.857  -3.736  -3.702  0.00  0.00    +0.256 C 
BRANCH  12  13
ATOM     13  O   UNL     1       0.014  -3.217  -2.671  0.00  0.00    -0.490 OA
BRANCH  13  18
ATOM     14  C   UNL     1      -1.441   0.018  -1.847  0.00  0.00    +0.124 A 
ATOM     15  C   UNL     1      -0.950   0.792  -2.889  0.00  0.00    +0.046 A 
ATOM     16  C   UNL     1      -0.139   0.222  -3.852  0.00  0.00    +0.007 A 
ATOM     17  C   UNL     1       0.185  -1.119  -3.780  0.00  0.00    +0.046 A 
ATOM     18  C   UNL     1      -0.304  -1.898  -2.741  0.00  0.00    +0.124 A 
ATOM     19  C   UNL     1      -1.113  -1.327  -1.770  0.00  0.00    +0.091 A 
BRANCH  14  21
ATOM     20  C   UNL     1      -2.536   1.969  -1.044  0.00  0.00    +0.277 C 
ATOM     21  O   UNL     1      -2.239   0.578  -0.901  0.00  0.00    -0.495 OA
ENDBRANCH  14  21
ENDBRANCH  13  18
ENDBRANCH  12  13
ENDBRANCH   1  12
BRANCH  10  22
ATOM     22  C   UNL     1      -1.708  -7.505  -4.727  0.00  0.00    +0.019 C 
BRANCH  22  23
ATOM     23  N   UNL     1      -1.730  -8.285  -5.972  0.00  0.00    +0.389 N 
ATOM     24  H   UNL     1      -1.559  -7.673  -6.755  0.00  0.00    -0.081 HD
BRANCH  23  25
ATOM     25  C   UNL     1      -0.687  -9.319  -5.920  0.00  0.00    -0.051 C 
BRANCH  25  26
ATOM     26  C   UNL     1      -0.904 -10.191  -4.711  0.00  0.00    -0.053 C 
ATOM     27  C   UNL     1      -1.042 -11.486  -4.854  0.00  0.00    +0.002 C 
ENDBRANCH  25  26
ENDBRANCH  23  25
BRANCH  23  28
ATOM     28  C   UNL     1      -3.044  -8.923  -6.127  0.00  0.00    -0.044 C 
BRANCH  28  29
ATOM     29  C   UNL     1      -3.124  -9.601  -7.496  0.00  0.00    +0.124 C 
BRANCH  29  30
ATOM     30  O   UNL     1      -3.040  -8.611  -8.523  0.00  0.00    -0.391 OA
ATOM     31  H   UNL     1      -3.745  -7.950  -8.491  0.00  0.00    +0.210 HD
ENDBRANCH  29  30
BRANCH  29  32
ATOM     32  C   UNL     1      -4.452 -10.351  -7.618  0.00  0.00    +0.189 C 
BRANCH  32  33
ATOM     33  O   UNL     1      -4.477 -11.079  -8.847  0.00  0.00    -0.373 OA
BRANCH  33  34
ATOM     34  C   UNL     1      -5.681 -11.818  -9.060  0.00  0.00    +0.186 C 
BRANCH  34  35
ATOM     35  C   UNL     1      -5.599 -12.543 -10.379  0.00  0.00    -0.007 C 
ATOM     36  C   UNL     1      -5.971 -13.796 -10.462  0.00  0.00    +0.006 C 
ENDBRANCH  34  35
ENDBRANCH  33  34
ENDBRANCH  32  33
ENDBRANCH  29  32
ENDBRANCH  28  29
ENDBRANCH  23  28
ENDBRANCH  22  23
ENDBRANCH  10  22
TORSDOF 15
