REMARK  Name = ZINC29997065
REMARK  8 active torsions:
REMARK  status: ('A' for Active; 'I' for Inactive)
REMARK    1  A    between atoms: C_1  and  C_2
REMARK    2  A    between atoms: C_2  and  C_4
REMARK    3  A    between atoms: C_2  and  O_15
REMARK    4  A    between atoms: N_6  and  C_7
REMARK    5  A    between atoms: C_8  and  C_12
REMARK    6  A    between atoms: O_15  and  C_16
REMARK    7  A    between atoms: C_16  and  C_18
REMARK    8  A    between atoms: C_18  and  C_19
REMARK                            x       y       z     vdW  Elec       q    Type
REMARK                         _______ _______ _______ _____ _____    ______ ____
ROOT
ATOM      1  C   UNL     1      -5.288   1.640   3.584  0.00  0.00    +0.062 C 
ATOM      2  C   UNL     1      -4.429   0.477   3.084  0.00  0.00    +0.259 C 
ENDROOT
BRANCH   2   3
ATOM      3  C   UNL     1      -5.201  -0.810   3.214  0.00  0.00    +0.258 C 
ATOM      4  O   UNL     1      -5.436  -1.478   2.229  0.00  0.00    -0.271 OA
ATOM      5  N   UNL     1      -5.631  -1.219   4.424  0.00  0.00    -0.276 N 
ATOM      6  H   UNL     1      -5.418  -0.613   5.317  0.00  0.00    +0.155 HD
BRANCH   5   7
ATOM      7  C   UNL     1      -6.342  -2.404   4.543  0.00  0.00    +0.084 A 
ATOM      8  C   UNL     1      -6.858  -2.989   5.693  0.00  0.00    +0.065 A 
ATOM      9  C   UNL     1      -7.566  -4.236   5.525  0.00  0.00    +0.022 A 
ATOM     10  C   UNL     1      -7.656  -4.728   4.277  0.00  0.00    +0.048 A 
ATOM     11  S   UNL     1      -6.794  -3.517   3.296  0.00  0.00    -0.081 S 
BRANCH   8  12
ATOM     12  C   UNL     1      -6.695  -2.368   7.011  0.00  0.00    +0.244 C 
ATOM     13  O   UNL     1      -6.096  -1.314   7.118  0.00  0.00    -0.270 OA
ATOM     14  N   UNL     1      -7.210  -2.964   8.105  0.00  0.00    -0.325 N 
ATOM     15  H   UNL     1      -7.088  -2.498   9.094  0.00  0.00    +0.145 HD
ATOM     16  H   UNL     1      -7.752  -3.917   8.009  0.00  0.00    +0.145 HD
ENDBRANCH   8  12
ENDBRANCH   5   7
ENDBRANCH   2   3
BRANCH   2  17
ATOM     17  O   UNL     1      -4.082   0.696   1.691  0.00  0.00    -0.452 OA
BRANCH  17  18
ATOM     18  C   UNL     1      -2.949   1.372   1.444  0.00  0.00    +0.312 C 
ATOM     19  O   UNL     1      -2.270   1.768   2.362  0.00  0.00    -0.250 OA
BRANCH  18  20
ATOM     20  C   UNL     1      -2.524   1.637   0.023  0.00  0.00    +0.158 C 
BRANCH  20  21
ATOM     21  C   UNL     1      -1.229   2.407   0.021  0.00  0.00    -0.000 A 
ATOM     22  C   UNL     1      -1.247   3.790   0.033  0.00  0.00    +0.046 A 
ATOM     23  C   UNL     1      -0.057   4.497   0.025  0.00  0.00    +0.020 A 
ATOM     24  C   UNL     1       1.149   3.822   0.011  0.00  0.00    +0.003 A 
ATOM     25  C   UNL     1       1.167   2.440   0.004  0.00  0.00    +0.020 A 
ATOM     26  C   UNL     1      -0.021   1.732   0.012  0.00  0.00    +0.046 A 
ATOM     27 CL   UNL     1       0.002  -0.004   0.002  0.00  0.00    -0.083 Cl
ATOM     28 CL   UNL     1      -2.761   4.639   0.051  0.00  0.00    -0.083 Cl
ENDBRANCH  20  21
ENDBRANCH  18  20
ENDBRANCH  17  18
ENDBRANCH   2  17
TORSDOF 7
