REMARK  Name = ZINC39631240
REMARK  14 active torsions:
REMARK  status: ('A' for Active; 'I' for Inactive)
REMARK    1  A    between atoms: C_1  and  C_2
REMARK    2  A    between atoms: C_2  and  C_4
REMARK    3  A    between atoms: C_2  and  N_11
REMARK    4  A    between atoms: C_4  and  C_5
REMARK    5  A    between atoms: C_5  and  C_6
REMARK    6  A    between atoms: C_6  and  C_7
REMARK    7  A    between atoms: C_7  and  C_8
REMARK    8  A    between atoms: C_7  and  C_9
REMARK    9  A    between atoms: C_7  and  O_10
REMARK   10  A    between atoms: C_12  and  C_14
REMARK   11  A    between atoms: C_25  and  C_27
REMARK   12  A    between atoms: C_32  and  O_33
REMARK   13  A    between atoms: O_33  and  C_34
REMARK   14  A    between atoms: C_34  and  C_36
REMARK                            x       y       z     vdW  Elec       q    Type
REMARK                         _______ _______ _______ _____ _____    ______ ____
ROOT
ATOM      1  C   UNL     1      11.107   9.255  -8.997  0.00  0.00    +0.100 C 
ATOM      2  C   UNL     1      12.160   9.761 -10.007  0.00  0.00    +0.121 C 
ATOM      3  N   UNL     1      11.965  11.230 -10.046  0.00  0.00    -0.296 N 
ATOM      4  C   UNL     1      11.697  11.604  -8.637  0.00  0.00    +0.115 C 
ATOM      5  C   UNL     1      10.808  10.465  -8.097  0.00  0.00    -0.004 C 
ATOM      6  C   UNL     1       9.336  10.852  -8.202  0.00  0.00    -0.010 C 
ATOM      7  C   UNL     1       9.051  12.022  -7.256  0.00  0.00    -0.082 C 
ATOM      8  N   UNL     1       9.378  11.630  -5.879  0.00  0.00    +0.379 N 
ATOM      9  C   UNL     1      10.814  11.349  -5.766  0.00  0.00    -0.082 C 
ATOM     10  C   UNL     1      11.173  10.151  -6.649  0.00  0.00    -0.010 C 
ATOM     11  C   UNL     1      12.020  12.043 -11.120  0.00  0.00    +0.250 C 
ATOM     12  O   UNL     1      11.945  13.247 -10.975  0.00  0.00    -0.270 OA
ATOM     13  H   UNL     1       9.132  12.381  -5.251  0.00  0.00    -0.086 HD
ATOM     14  H   UNL     1       8.854  10.804  -5.633  0.00  0.00    -0.086 HD
ENDROOT
BRANCH  11  15
ATOM     15  C   UNL     1      12.171  11.470 -12.472  0.00  0.00    +0.079 A 
ATOM     16  C   UNL     1      11.080  10.876 -13.109  0.00  0.00    +0.017 A 
ATOM     17  C   UNL     1      11.228  10.343 -14.371  0.00  0.00    +0.001 A 
ATOM     18  C   UNL     1      12.455  10.394 -15.012  0.00  0.00    +0.004 A 
ATOM     19  C   UNL     1      13.542  10.979 -14.393  0.00  0.00    +0.047 A 
ATOM     20  C   UNL     1      13.409  11.524 -13.125  0.00  0.00    +0.144 A 
BRANCH  20  21
ATOM     21  O   UNL     1      14.476  12.104 -12.518  0.00  0.00    -0.425 OA
BRANCH  21  22
ATOM     22  C   UNL     1      15.125  11.400 -11.577  0.00  0.00    +0.309 C 
ATOM     23  O   UNL     1      14.716  10.312 -11.246  0.00  0.00    -0.251 OA
ATOM     24  C   UNL     1      16.364  11.966 -10.932  0.00  0.00    +0.136 C 
ENDBRANCH  21  22
ENDBRANCH  20  21
ENDBRANCH  11  15
BRANCH   1  26
ATOM     25  N   UNL     1       9.035   7.911  -9.148  0.00  0.00    -0.312 N 
ATOM     26  C   UNL     1       9.858   8.815  -9.716  0.00  0.00    +0.218 C 
ATOM     27  O   UNL     1       9.593   9.274 -10.807  0.00  0.00    -0.275 OA
ATOM     28  H   UNL     1       9.219   7.582  -8.254  0.00  0.00    +0.149 HD
BRANCH  25  30
ATOM     29  C   UNL     1       6.684   8.370  -9.639  0.00  0.00    +0.028 C 
ATOM     30  C   UNL     1       7.863   7.426  -9.880  0.00  0.00    +0.070 C 
BRANCH  30  31
ATOM     31  C   UNL     1       7.500   6.022  -9.389  0.00  0.00    +0.022 C 
BRANCH  31  32
ATOM     32  C   UNL     1       8.733   5.367  -8.764  0.00  0.00    +0.005 C 
BRANCH  32  33
ATOM     33  C   UNL     1       8.413   3.913  -8.410  0.00  0.00    +0.034 C 
BRANCH  33  34
ATOM     34  C   UNL     1       9.651   3.252  -7.799  0.00  0.00    +0.061 C 
ATOM     35  C   UNL     1      10.185   4.125  -6.662  0.00  0.00    +0.041 C 
ATOM     36  C   UNL     1       9.275   1.874  -7.251  0.00  0.00    +0.041 C 
BRANCH  34  37
ATOM     37  O   UNL     1      10.658   3.108  -8.803  0.00  0.00    -0.389 OA
ATOM     38  H   UNL     1      11.004   3.947  -9.136  0.00  0.00    +0.210 HD
ENDBRANCH  34  37
ENDBRANCH  33  34
ENDBRANCH  32  33
ENDBRANCH  31  32
ENDBRANCH  30  31
ENDBRANCH  25  30
ENDBRANCH   1  26
TORSDOF 10
