REMARK  Name = ZINC04820929
REMARK  9 active torsions:
REMARK  status: ('A' for Active; 'I' for Inactive)
REMARK    1  A    between atoms: C_1  and  C_2
REMARK    2  A    between atoms: C_7  and  N_8
REMARK    3  A    between atoms: C_9  and  C_11
REMARK    4  A    between atoms: C_12  and  C_31
REMARK    5  A    between atoms: C_17  and  C_19
REMARK    6  A    between atoms: C_22  and  O_30
REMARK    7  A    between atoms: C_23  and  O_28
REMARK    8  A    between atoms: C_24  and  N_25
REMARK    9  A    between atoms: O_28  and  C_29
REMARK                            x       y       z     vdW  Elec       q    Type
REMARK                         _______ _______ _______ _____ _____    ______ ____
ROOT
ATOM      1  C   UNL     1      -0.175  -0.306   5.292  0.00  0.00    +0.056 C 
ATOM      2  C   UNL     1      -0.033  -0.686   6.579  0.00  0.00    +0.019 C 
ATOM      3  N   UNL     1       0.121   0.238   7.574  0.00  0.00    -0.273 N 
ATOM      4  C   UNL     1       0.145   1.560   7.362  0.00  0.00    +0.304 C 
ATOM      5  O   UNL     1       0.287   2.305   8.312  0.00  0.00    -0.252 OA
ATOM      6  N   UNL     1       0.016   2.091   6.130  0.00  0.00    -0.288 N 
ATOM      7  C   UNL     1      -0.150   1.178   4.987  0.00  0.00    +0.144 C 
ATOM      8  C   UNL     1      -0.046  -2.153   6.925  0.00  0.00    +0.061 C 
ATOM      9  H   UNL     1       0.220  -0.082   8.484  0.00  0.00    +0.156 HD
ATOM     10  H   UNL     1       0.036   3.052   5.999  0.00  0.00    +0.151 HD
ENDROOT
BRANCH   7  11
ATOM     11  C   UNL     1      -1.443   1.532   4.299  0.00  0.00    +0.011 A 
ATOM     12  C   UNL     1      -2.553   1.874   5.050  0.00  0.00    +0.012 A 
ATOM     13  C   UNL     1      -3.741   2.200   4.423  0.00  0.00    +0.049 A 
ATOM     14  C   UNL     1      -3.822   2.185   3.040  0.00  0.00    +0.161 A 
ATOM     15  C   UNL     1      -2.705   1.842   2.285  0.00  0.00    +0.192 A 
ATOM     16  C   UNL     1      -1.516   1.521   2.919  0.00  0.00    +0.176 A 
BRANCH  16  17
ATOM     17  N   UNL     1      -0.324   1.161   2.118  0.00  0.00    +0.061 N 
ATOM     18  O   UNL     1      -0.174   0.024   1.736  0.00  0.00    -0.126 OA
ATOM     19  O   UNL     1       0.499   2.003   1.846  0.00  0.00    -0.126 OA
ENDBRANCH  16  17
BRANCH  15  20
ATOM     20  O   UNL     1      -2.780   1.826   0.927  0.00  0.00    -0.489 OA
ATOM     21  C   UNL     1      -2.462   3.041   0.245  0.00  0.00    +0.277 C 
ENDBRANCH  15  20
BRANCH  14  22
ATOM     22  O   UNL     1      -4.991   2.505   2.423  0.00  0.00    -0.503 OA
ATOM     23  H   UNL     1      -5.084   3.446   2.221  0.00  0.00    +0.292 HD
ENDBRANCH  14  22
ENDBRANCH   7  11
BRANCH   1  25
ATOM     24  N   UNL     1       0.738  -1.923   3.779  0.00  0.00    -0.281 N 
ATOM     25  C   UNL     1      -0.335  -1.263   4.260  0.00  0.00    +0.248 C 
ATOM     26  O   UNL     1      -1.443  -1.490   3.807  0.00  0.00    -0.270 OA
ATOM     27  H   UNL     1       1.603  -1.817   4.205  0.00  0.00    +0.155 HD
BRANCH  24  34
ATOM     28  C   UNL     1       2.920  -3.618   3.102  0.00  0.00    +0.045 C 
ATOM     29  C   UNL     1       1.644  -3.602   2.300  0.00  0.00    -0.029 A 
ATOM     30  C   UNL     1       1.507  -4.431   1.204  0.00  0.00    +0.005 A 
ATOM     31  C   UNL     1       0.336  -4.417   0.468  0.00  0.00    +0.000 A 
ATOM     32  C   UNL     1      -0.700  -3.575   0.826  0.00  0.00    +0.002 A 
ATOM     33  C   UNL     1      -0.569  -2.744   1.921  0.00  0.00    +0.023 A 
ATOM     34  C   UNL     1       0.604  -2.759   2.666  0.00  0.00    +0.037 A 
ENDBRANCH  24  34
ENDBRANCH   1  25
TORSDOF 6
