REMARK  Name = ZINC39667677
REMARK  7 active torsions:
REMARK  status: ('A' for Active; 'I' for Inactive)
REMARK    1  A    between atoms: C_1  and  C_2
REMARK    2  A    between atoms: C_6  and  C_9
REMARK    3  A    between atoms: C_7  and  C_8
REMARK    4  A    between atoms: C_9  and  N_10
REMARK    5  A    between atoms: C_11  and  C_13
REMARK    6  A    between atoms: C_24  and  C_26
REMARK    7  A    between atoms: C_27  and  C_31
REMARK                            x       y       z     vdW  Elec       q    Type
REMARK                         _______ _______ _______ _____ _____    ______ ____
ROOT
ATOM      1  C   UNL     1      -2.921  -3.592   4.758  0.00  0.00    +0.100 C 
ATOM      2  C   UNL     1      -3.894  -4.262   3.762  0.00  0.00    +0.121 C 
ATOM      3  N   UNL     1      -3.925  -5.686   4.170  0.00  0.00    -0.296 N 
ATOM      4  C   UNL     1      -3.909  -5.646   5.652  0.00  0.00    +0.115 C 
ATOM      5  C   UNL     1      -2.936  -4.501   5.998  0.00  0.00    -0.004 C 
ATOM      6  C   UNL     1      -3.440  -3.729   7.213  0.00  0.00    -0.010 C 
ATOM      7  C   UNL     1      -3.392  -4.636   8.446  0.00  0.00    -0.082 C 
ATOM      8  N   UNL     1      -2.013  -5.091   8.667  0.00  0.00    +0.379 N 
ATOM      9  C   UNL     1      -1.569  -5.912   7.534  0.00  0.00    -0.082 C 
ATOM     10  C   UNL     1      -1.540  -5.058   6.263  0.00  0.00    -0.010 C 
ATOM     11  C   UNL     1      -3.960  -6.773   3.373  0.00  0.00    +0.254 C 
ATOM     12  O   UNL     1      -3.865  -6.646   2.167  0.00  0.00    -0.269 OA
ATOM     13  H   UNL     1      -1.407  -4.290   8.758  0.00  0.00    -0.086 HD
ATOM     14  H   UNL     1      -1.973  -5.639   9.513  0.00  0.00    -0.086 HD
ENDROOT
BRANCH  11  15
ATOM     15  C   UNL     1      -4.111  -8.107   3.961  0.00  0.00    +0.077 A 
ATOM     16  C   UNL     1      -4.065  -9.346   3.339  0.00  0.00    -0.031 A 
ATOM     17  C   UNL     1      -4.244 -10.433   4.161  0.00  0.00    +0.011 A 
ATOM     18  C   UNL     1      -4.448 -10.231   5.486  0.00  0.00    +0.046 A 
ATOM     19  S   UNL     1      -4.396  -8.561   5.661  0.00  0.00    -0.092 S 
ATOM     20  C   UNL     1      -3.833  -9.491   1.857  0.00  0.00    +0.045 C 
ENDBRANCH  11  15
BRANCH   1  22
ATOM     21  N   UNL     1      -0.705  -2.520   4.513  0.00  0.00    -0.311 N 
ATOM     22  C   UNL     1      -1.533  -3.527   4.172  0.00  0.00    +0.218 C 
ATOM     23  O   UNL     1      -1.163  -4.380   3.394  0.00  0.00    -0.275 OA
ATOM     24  H   UNL     1      -1.001  -1.837   5.135  0.00  0.00    +0.149 HD
BRANCH  21  25
ATOM     25  C   UNL     1       0.644  -2.457   3.944  0.00  0.00    +0.139 C 
BRANCH  25  31
ATOM     26  C   UNL     1       3.206  -0.210   7.609  0.00  0.00    +0.044 C 
ATOM     27  C   UNL     1       2.585  -0.170   6.236  0.00  0.00    -0.047 A 
ATOM     28  C   UNL     1       2.673   0.978   5.471  0.00  0.00    +0.003 A 
ATOM     29  C   UNL     1       2.103   1.015   4.212  0.00  0.00    +0.001 A 
ATOM     30  C   UNL     1       1.447  -0.097   3.718  0.00  0.00    +0.005 A 
ATOM     31  C   UNL     1       1.360  -1.245   4.483  0.00  0.00    -0.027 A 
ATOM     32  C   UNL     1       1.933  -1.283   5.740  0.00  0.00    -0.043 A 
ATOM     33  C   UNL     1       1.843  -2.537   6.572  0.00  0.00    +0.044 C 
ENDBRANCH  25  31
ENDBRANCH  21  25
ENDBRANCH   1  22
TORSDOF 4
