REMARK  Name = ZINC39702017
REMARK  7 active torsions:
REMARK  status: ('A' for Active; 'I' for Inactive)
REMARK    1  A    between atoms: C_3  and  N_36
REMARK    2  A    between atoms: C_6  and  C_7
REMARK    3  A    between atoms: N_8  and  C_9
REMARK    4  A    between atoms: C_12  and  C_15
REMARK    5  A    between atoms: C_21  and  N_25
REMARK    6  A    between atoms: C_26  and  C_27
REMARK    7  A    between atoms: C_30  and  N_33
REMARK                            x       y       z     vdW  Elec       q    Type
REMARK                         _______ _______ _______ _____ _____    ______ ____
ROOT
ATOM      1  C   UNL     1      -6.081  -4.967   0.036  0.00  0.00    +0.206 C 
ATOM      2  N   UNL     1      -6.660  -4.965   1.384  0.00  0.00    -0.360 N 
ATOM      3  C   UNL     1      -6.736  -6.204   1.781  0.00  0.00    +0.061 A 
ATOM      4  C   UNL     1      -7.226  -6.807   3.030  0.00  0.00    +0.029 A 
ATOM      5  C   UNL     1      -7.189  -8.143   3.181  0.00  0.00    +0.030 A 
ATOM      6  C   UNL     1      -6.669  -9.012   2.123  0.00  0.00    +0.066 A 
ATOM      7  C   UNL     1      -6.199  -8.497   0.938  0.00  0.00    +0.055 A 
ATOM      8  C   UNL     1      -6.211  -7.096   0.714  0.00  0.00    +0.062 A 
ATOM      9  N   UNL     1      -5.828  -6.371  -0.306  0.00  0.00    -0.360 N 
ATOM     10  H   UNL     1      -6.936  -4.184   1.889  0.00  0.00    +0.162 HD
ATOM     11  H   UNL     1      -5.448  -6.701  -1.135  0.00  0.00    +0.162 HD
ENDROOT
BRANCH   1  15
ATOM     12  C   UNL     1      -2.413  -2.768   0.011  0.00  0.00    +0.064 A 
ATOM     13  C   UNL     1      -3.448  -2.397   0.873  0.00  0.00    +0.028 A 
ATOM     14  C   UNL     1      -4.628  -3.111   0.876  0.00  0.00    +0.009 A 
ATOM     15  C   UNL     1      -4.788  -4.192   0.027  0.00  0.00    -0.005 A 
ATOM     16  C   UNL     1      -3.768  -4.565  -0.829  0.00  0.00    +0.009 A 
ATOM     17  C   UNL     1      -2.584  -3.856  -0.847  0.00  0.00    +0.028 A 
BRANCH  12  19
ATOM     18  C   UNL     1      -1.261  -0.761   0.011  0.00  0.00    +0.119 C 
ATOM     19  N   UNL     1      -1.240  -2.064   0.003  0.00  0.00    -0.255 NA
BRANCH  18  25
ATOM     20  C   UNL     1      -0.017   1.394   0.010  0.00  0.00    +0.011 A 
ATOM     21  C   UNL     1       1.170   2.096   0.002  0.00  0.00    +0.033 A 
ATOM     22  C   UNL     1       2.378   1.420  -0.013  0.00  0.00    +0.126 A 
ATOM     23  C   UNL     1       2.405   0.037  -0.021  0.00  0.00    +0.033 A 
ATOM     24  C   UNL     1       1.226  -0.679  -0.014  0.00  0.00    +0.011 A 
ATOM     25  C   UNL     1       0.002  -0.004   0.002  0.00  0.00    -0.007 A 
BRANCH  22  26
ATOM     26  N   UNL     1       3.647   2.181  -0.022  0.00  0.00    +0.056 N 
ATOM     27  O   UNL     1       3.627   3.390  -0.016  0.00  0.00    -0.126 OA
ATOM     28  O   UNL     1       4.704   1.594  -0.036  0.00  0.00    -0.126 OA
ENDBRANCH  22  26
ENDBRANCH  18  25
ENDBRANCH  12  19
ENDBRANCH   1  15
BRANCH   6  29
ATOM     29  N   UNL     1      -6.649 -10.360   2.318  0.00  0.00    -0.255 NA
ATOM     30  C   UNL     1      -6.225 -10.850   3.452  0.00  0.00    +0.119 C 
BRANCH  30  31
ATOM     31  C   UNL     1      -6.204 -12.305   3.662  0.00  0.00    -0.007 A 
ATOM     32  C   UNL     1      -6.630 -13.169   2.648  0.00  0.00    +0.011 A 
ATOM     33  C   UNL     1      -6.607 -14.532   2.853  0.00  0.00    +0.033 A 
ATOM     34  C   UNL     1      -6.162 -15.047   4.058  0.00  0.00    +0.126 A 
ATOM     35  C   UNL     1      -5.739 -14.199   5.067  0.00  0.00    +0.033 A 
ATOM     36  C   UNL     1      -5.751 -12.834   4.876  0.00  0.00    +0.011 A 
BRANCH  34  37
ATOM     37  N   UNL     1      -6.141 -16.512   4.270  0.00  0.00    +0.056 N 
ATOM     38  O   UNL     1      -6.510 -17.255   3.391  0.00  0.00    -0.126 OA
ATOM     39  O   UNL     1      -5.753 -16.965   5.322  0.00  0.00    -0.126 OA
ENDBRANCH  34  37
ENDBRANCH  30  31
ENDBRANCH   6  29
TORSDOF 7
