REMARK  Name = ZINC03831149
REMARK  9 active torsions:
REMARK  status: ('A' for Active; 'I' for Inactive)
REMARK    1  A    between atoms: C_1  and  C_2
REMARK    2  A    between atoms: C_17  and  C_39
REMARK    3  A    between atoms: C_19  and  O_37
REMARK    4  A    between atoms: C_22  and  C_36
REMARK    5  A    between atoms: C_23  and  C_24
REMARK    6  A    between atoms: C_23  and  O_28
REMARK    7  A    between atoms: C_24  and  C_26
REMARK    8  A    between atoms: O_28  and  C_29
REMARK    9  A    between atoms: C_29  and  C_31
REMARK                            x       y       z     vdW  Elec       q    Type
REMARK                         _______ _______ _______ _____ _____    ______ ____
ROOT
ATOM      1  C   UNL     1       0.151   1.444  -1.109  0.00  0.00    +0.012 C 
ATOM      2  C   UNL     1      -0.579   1.558   0.226  0.00  0.00    +0.038 C 
ATOM      3  C   UNL     1       0.444   1.633   1.401  0.00  0.00    +0.012 C 
ATOM      4  C   UNL     1      -0.277   2.602   2.343  0.00  0.00    +0.005 C 
ATOM      5  C   UNL     1       0.387   3.055   3.614  0.00  0.00    +0.018 C 
ATOM      6  C   UNL     1      -0.424   2.377   4.733  0.00  0.00    +0.010 C 
ATOM      7  C   UNL     1       0.139   2.693   6.120  0.00  0.00    +0.032 C 
ATOM      8  C   UNL     1       0.060   4.206   6.232  0.00  0.00    -0.055 C 
ATOM      9  C   UNL     1      -0.633   4.761   7.216  0.00  0.00    +0.051 C 
ATOM     10  C   UNL     1      -0.698   6.229   7.333  0.00  0.00    +0.179 C 
ATOM     11  O   UNL     1      -1.355   6.755   8.213  0.00  0.00    -0.288 OA
ATOM     12  C   UNL     1       0.051   7.050   6.364  0.00  0.00    +0.047 C 
ATOM     13  C   UNL     1       0.736   6.463   5.391  0.00  0.00    -0.011 C 
ATOM     14  C   UNL     1       0.792   4.988   5.199  0.00  0.00    +0.029 C 
ATOM     15  C   UNL     1       0.459   4.563   3.763  0.00  0.00    +0.086 C 
ATOM     16  C   UNL     1      -0.767   5.319   3.295  0.00  0.00    +0.137 C 
ATOM     17  C   UNL     1      -1.543   4.714   2.122  0.00  0.00    +0.044 C 
ATOM     18  C   UNL     1      -0.716   3.707   1.377  0.00  0.00    +0.021 C 
ATOM     19  C   UNL     1      -1.412   2.867   0.286  0.00  0.00    +0.180 C 
ATOM     20  C   UNL     1       0.441   4.399   0.648  0.00  0.00    +0.016 C 
ATOM     21 CL   UNL     1       1.905   5.160   2.836  0.00  0.00    -0.114 Cl
ATOM     22  C   UNL     1       2.277   4.641   5.371  0.00  0.00    +0.022 C 
ENDROOT
BRANCH  19  23
ATOM     23  C   UNL     1      -2.840   2.570   0.632  0.00  0.00    +0.192 C 
ATOM     24  O   UNL     1      -3.195   2.575   1.786  0.00  0.00    -0.292 OA
BRANCH  23  25
ATOM     25  C   UNL     1      -3.832   2.265  -0.460  0.00  0.00    +0.187 C 
ATOM     26 CL   UNL     1      -5.478   2.090   0.255  0.00  0.00    -0.117 Cl
ENDBRANCH  23  25
ENDBRANCH  19  23
BRANCH  16  27
ATOM     27  O   UNL     1      -1.677   5.476   4.400  0.00  0.00    -0.390 OA
ATOM     28  H   UNL     1      -2.429   6.054   4.211  0.00  0.00    +0.210 HD
ENDBRANCH  16  27
BRANCH  19  29
ATOM     29  O   UNL     1      -1.329   3.566  -0.985  0.00  0.00    -0.444 OA
BRANCH  29  30
ATOM     30  C   UNL     1      -2.067   4.687  -1.117  0.00  0.00    +0.376 C 
ATOM     31  O   UNL     1      -2.833   5.018  -0.232  0.00  0.00    -0.241 OA
BRANCH  30  32
ATOM     32  C   UNL     1      -1.948   5.504  -2.326  0.00  0.00    +0.211 A 
ATOM     33  C   UNL     1      -2.638   6.654  -2.590  0.00  0.00    +0.056 A 
ATOM     34  C   UNL     1      -2.210   7.101  -3.849  0.00  0.00    +0.042 A 
ATOM     35  C   UNL     1      -1.297   6.211  -4.299  0.00  0.00    +0.196 A 
ATOM     36  O   UNL     1      -1.142   5.251  -3.378  0.00  0.00    -0.456 OA
ENDBRANCH  30  32
ENDBRANCH  29  30
ENDBRANCH  19  29
TORSDOF 6
