REMARK  Name = ZINC10820676
REMARK  6 active torsions:
REMARK  status: ('A' for Active; 'I' for Inactive)
REMARK    1  A    between atoms: C_1  and  C_2
REMARK    2  A    between atoms: C_5  and  C_28
REMARK    3  A    between atoms: N_8  and  C_10
REMARK    4  A    between atoms: C_17  and  O_19
REMARK    5  A    between atoms: O_19  and  C_20
REMARK    6  A    between atoms: C_20  and  C_21
REMARK                            x       y       z     vdW  Elec       q    Type
REMARK                         _______ _______ _______ _____ _____    ______ ____
ROOT
ATOM      1  C   UNL     1       1.137  -0.672  -0.012  0.00  0.00    +0.099 A 
ATOM      2  C   UNL     1       2.375  -0.013  -0.021  0.00  0.00    +0.042 A 
ATOM      3  C   UNL     1       2.420   1.348  -0.014  0.00  0.00    +0.013 A 
ATOM      4  C   UNL     1       1.200   2.056   0.002  0.00  0.00    +0.002 A 
ATOM      5  C   UNL     1       1.174   3.460   0.010  0.00  0.00    +0.010 A 
ATOM      6  C   UNL     1      -0.021   4.114   0.026  0.00  0.00    +0.004 A 
ATOM      7  C   UNL     1      -1.221   3.409   0.034  0.00  0.00    +0.048 A 
ATOM      8  C   UNL     1      -1.234   2.043   0.031  0.00  0.00    +0.145 A 
ATOM      9  C   UNL     1      -0.016   1.333   0.009  0.00  0.00    +0.090 A 
ATOM     10  N   UNL     1      -0.064  -0.043   0.002  0.00  0.00    -0.340 N 
ATOM     11  H   UNL     1      -0.952  -0.559   0.008  0.00  0.00    +0.167 HD
ENDROOT
BRANCH   1  17
ATOM     12  C   UNL     1      -1.711  -4.597  -0.134  0.00  0.00    +0.009 C 
ATOM     13  C   UNL     1      -0.272  -4.078  -0.165  0.00  0.00    +0.004 C 
ATOM     14  C   UNL     1       0.522  -4.702   0.985  0.00  0.00    +0.009 C 
ATOM     15  C   UNL     1       1.944  -4.132   0.981  0.00  0.00    +0.004 C 
ATOM     16  C   UNL     1       1.877  -2.608   1.103  0.00  0.00    +0.109 C 
ATOM     17  N   UNL     1       1.107  -2.059  -0.020  0.00  0.00    -0.316 N 
ATOM     18  C   UNL     1      -0.275  -2.556  -0.010  0.00  0.00    +0.109 C 
ATOM     19  C   UNL     1       2.727  -4.707   2.163  0.00  0.00    +0.009 C 
ENDBRANCH   1  17
BRANCH   8  20
ATOM     20  O   UNL     1      -2.416   1.371   0.043  0.00  0.00    -0.485 OA
BRANCH  20  21
ATOM     21  C   UNL     1      -3.609   2.157   0.065  0.00  0.00    +0.264 C 
BRANCH  21  22
ATOM     22  C   UNL     1      -4.810   1.247   0.076  0.00  0.00    -0.010 A 
ATOM     23  C   UNL     1      -5.381   0.842  -1.116  0.00  0.00    +0.010 A 
ATOM     24  C   UNL     1      -6.479   0.003  -1.107  0.00  0.00    +0.039 A 
ATOM     25  C   UNL     1      -7.014  -0.422   0.097  0.00  0.00    +0.123 A 
ATOM     26  C   UNL     1      -6.445  -0.011   1.291  0.00  0.00    +0.039 A 
ATOM     27  C   UNL     1      -5.343   0.823   1.279  0.00  0.00    +0.010 A 
ATOM     28  F   UNL     1      -8.091  -1.238   0.108  0.00  0.00    -0.205 F 
ENDBRANCH  21  22
ENDBRANCH  20  21
ENDBRANCH   8  20
TORSDOF 4
