REMARK  Name = ZINC63205682
REMARK  7 active torsions:
REMARK  status: ('A' for Active; 'I' for Inactive)
REMARK    1  A    between atoms: C_1  and  C_2
REMARK    2  A    between atoms: C_12  and  S_14
REMARK    3  A    between atoms: S_14  and  N_17
REMARK    4  A    between atoms: N_17  and  C_18
REMARK    5  A    between atoms: C_18  and  C_19
REMARK    6  A    between atoms: C_19  and  C_21
REMARK    7  A    between atoms: C_19  and  C_27
REMARK                            x       y       z     vdW  Elec       q    Type
REMARK                         _______ _______ _______ _____ _____    ______ ____
ROOT
ATOM      1  N   UNL     1      -6.421   2.811  -2.017  0.00  0.00    -0.189 NA
ATOM      2  H   UNL     1      -6.418   3.766  -2.183  0.00  0.00    +0.148 HD
ENDROOT
BRANCH   1   3
ATOM      3  S   UNL     1      -6.296   2.240  -0.467  0.00  0.00    +0.058 S 
ATOM      4  O   UNL     1      -7.329   1.278  -0.305  0.00  0.00    -0.153 OA
ATOM      5  O   UNL     1      -6.175   3.377   0.376  0.00  0.00    -0.153 OA
BRANCH   3  17
ATOM      6  C   UNL     1       1.316  -0.742   0.016  0.00  0.00    +0.109 C 
ATOM      7  C   UNL     1       0.002  -0.004   0.002  0.00  0.00    +0.217 C 
ATOM      8  O   UNL     1      -0.015   1.206   0.076  0.00  0.00    -0.276 OA
ATOM      9  N   UNL     1      -1.155  -0.689  -0.092  0.00  0.00    -0.271 N 
ATOM     10  C   UNL     1      -1.154  -2.159  -0.096  0.00  0.00    +0.114 C 
ATOM     11  C   UNL     1      -2.109  -2.625  -1.203  0.00  0.00    +0.024 C 
ATOM     12  C   UNL     1      -3.524  -2.158  -0.864  0.00  0.00    +0.038 C 
ATOM     13  C   UNL     1      -3.534  -0.683  -0.559  0.00  0.00    -0.024 A 
ATOM     14  C   UNL     1      -2.379  -0.012  -0.183  0.00  0.00    +0.040 A 
ATOM     15  C   UNL     1      -2.423   1.347   0.102  0.00  0.00    +0.026 A 
ATOM     16  C   UNL     1      -3.619   2.033   0.016  0.00  0.00    +0.030 A 
ATOM     17  C   UNL     1      -4.771   1.365  -0.356  0.00  0.00    +0.106 A 
ATOM     18  C   UNL     1      -4.728   0.012  -0.650  0.00  0.00    +0.034 A 
ENDBRANCH   3  17
ENDBRANCH   1   3
BRANCH   1  19
ATOM     19  C   UNL     1      -6.536   1.873  -3.136  0.00  0.00    +0.118 C 
BRANCH  19  20
ATOM     20  C   UNL     1      -7.006   2.623  -4.384  0.00  0.00    +0.063 C 
BRANCH  20  21
ATOM     21  C   UNL     1      -7.006   1.685  -5.564  0.00  0.00    -0.033 C 
ATOM     22  C   UNL     1      -6.293   1.814  -6.706  0.00  0.00    -0.000 A 
ATOM     23  C   UNL     1      -5.341   2.829  -7.174  0.00  0.00    +0.010 A 
ATOM     24  C   UNL     1      -4.775   2.684  -8.394  0.00  0.00    +0.001 A 
ATOM     25  C   UNL     1      -5.074   1.592  -9.220  0.00  0.00    +0.002 A 
ATOM     26  C   UNL     1      -5.938   0.619  -8.859  0.00  0.00    +0.026 A 
ATOM     27  C   UNL     1      -6.591   0.670  -7.597  0.00  0.00    +0.043 A 
ATOM     28  N   UNL     1      -7.455  -0.135  -7.028  0.00  0.00    -0.380 N 
ATOM     29  C   UNL     1      -7.798   0.404  -5.707  0.00  0.00    +0.145 C 
ATOM     30  H   UNL     1      -7.806  -0.953  -7.413  0.00  0.00    +0.160 HD
ENDBRANCH  20  21
BRANCH  20  31
ATOM     31  C   UNL     1      -8.400   3.147  -4.159  0.00  0.00    -0.039 A 
ATOM     32  C   UNL     1      -9.432   2.270  -3.882  0.00  0.00    +0.004 A 
ATOM     33  C   UNL     1     -10.712   2.752  -3.676  0.00  0.00    +0.000 A 
ATOM     34  C   UNL     1     -10.959   4.110  -3.747  0.00  0.00    +0.000 A 
ATOM     35  C   UNL     1      -9.927   4.987  -4.022  0.00  0.00    +0.000 A 
ATOM     36  C   UNL     1      -8.646   4.506  -4.224  0.00  0.00    +0.004 A 
ENDBRANCH  20  31
ENDBRANCH  19  20
ENDBRANCH   1  19
TORSDOF 6
