REMARK  Name = ZINC55036661
REMARK  7 active torsions:
REMARK  status: ('A' for Active; 'I' for Inactive)
REMARK    1  A    between atoms: C_1  and  C_2
REMARK    2  A    between atoms: C_2  and  O_3
REMARK    3  A    between atoms: O_3  and  C_4
REMARK    4  A    between atoms: N_9  and  C_12
REMARK    5  A    between atoms: C_19  and  C_21
REMARK    6  A    between atoms: N_25  and  C_30
REMARK    7  A    between atoms: N_28  and  C_29
REMARK                            x       y       z     vdW  Elec       q    Type
REMARK                         _______ _______ _______ _____ _____    ______ ____
ROOT
ATOM      1  C   UNL     1       1.158  -3.650  -6.385  0.00  0.00    +0.074 C 
ATOM      2  C   UNL     1       1.306  -5.165  -6.536  0.00  0.00    +0.022 C 
ATOM      3  C   UNL     1       0.944  -5.575  -7.966  0.00  0.00    +0.020 C 
ATOM      4  C   UNL     1       1.905  -4.895  -8.946  0.00  0.00    +0.108 C 
ATOM      5  N   UNL     1       1.876  -3.446  -8.708  0.00  0.00    -0.295 N 
ATOM      6  C   UNL     1       2.121  -2.947  -7.348  0.00  0.00    +0.127 C 
ATOM      7  C   UNL     1       1.630  -2.589  -9.719  0.00  0.00    +0.263 C 
ATOM      8  O   UNL     1       1.519  -1.400  -9.494  0.00  0.00    -0.268 OA
ENDROOT
BRANCH   7   9
ATOM      9  C   UNL     1       1.496  -3.097 -11.106  0.00  0.00    +0.113 A 
ATOM     10  C   UNL     1       0.287  -3.505 -11.572  0.00  0.00    +0.101 A 
ATOM     11  C   UNL     1       0.201  -4.000 -12.951  0.00  0.00    +0.257 A 
ATOM     12  O   UNL     1      -0.862  -4.375 -13.409  0.00  0.00    -0.267 OA
ATOM     13  N   UNL     1       1.321  -4.033 -13.702  0.00  0.00    -0.264 N 
ATOM     14  C   UNL     1       2.494  -3.618 -13.192  0.00  0.00    +0.332 A 
ATOM     15  O   UNL     1       3.490  -3.657 -13.890  0.00  0.00    -0.246 OA
ATOM     16  N   UNL     1       2.595  -3.155 -11.935  0.00  0.00    -0.292 N 
ATOM     17  C   UNL     1       3.898  -2.709 -11.434  0.00  0.00    +0.154 C 
ATOM     18  C   UNL     1       1.260  -4.524 -15.081  0.00  0.00    +0.157 C 
ENDBRANCH   7   9
BRANCH   1  24
ATOM     19  C   UNL     1       0.546  -1.669  -1.371  0.00  0.00    +0.403 C 
ATOM     20  O   UNL     1      -0.028  -2.360  -0.552  0.00  0.00    -0.226 OA
ATOM     21  N   UNL     1       1.149  -2.241  -2.432  0.00  0.00    -0.265 N 
ATOM     22  C   UNL     1       1.854  -1.424  -3.431  0.00  0.00    +0.126 C 
ATOM     23  C   UNL     1       1.344  -1.809  -4.823  0.00  0.00    +0.104 C 
ATOM     24  N   UNL     1       1.474  -3.261  -5.005  0.00  0.00    -0.295 NA
ATOM     25  C   UNL     1       0.638  -3.995  -4.046  0.00  0.00    +0.104 C 
ATOM     26  C   UNL     1       1.125  -3.700  -2.618  0.00  0.00    +0.126 C 
BRANCH  19  27
ATOM     27  O   UNL     1       0.580  -0.332  -1.217  0.00  0.00    -0.451 OA
BRANCH  27  29
ATOM     28  C   UNL     1       0.064   1.729  -0.066  0.00  0.00    +0.048 C 
ATOM     29  C   UNL     1      -0.080   0.206  -0.070  0.00  0.00    +0.230 C 
ENDBRANCH  27  29
ENDBRANCH  19  27
ENDBRANCH   1  24
TORSDOF 4
