REMARK  Name = ZINC20751464
REMARK  7 active torsions:
REMARK  status: ('A' for Active; 'I' for Inactive)
REMARK    1  A    between atoms: C_4  and  C_7
REMARK    2  A    between atoms: C_7  and  C_8
REMARK    3  A    between atoms: C_8  and  N_9
REMARK    4  A    between atoms: N_9  and  S_10
REMARK    5  A    between atoms: S_10  and  C_13
REMARK    6  A    between atoms: C_26  and  C_29
REMARK    7  A    between atoms: C_38  and  O_39
REMARK                            x       y       z     vdW  Elec       q    Type
REMARK                         _______ _______ _______ _____ _____    ______ ____
ROOT
ATOM      1  C   UNL     1       7.541  -1.135  -0.535  0.00  0.00    +0.106 A 
ATOM      2  C   UNL     1       6.971  -1.442  -1.757  0.00  0.00    +0.030 A 
ATOM      3  C   UNL     1       5.606  -1.335  -1.932  0.00  0.00    +0.025 A 
ATOM      4  C   UNL     1       4.795  -0.917  -0.884  0.00  0.00    +0.031 A 
ATOM      5  C   UNL     1       5.381  -0.592   0.345  0.00  0.00    -0.018 A 
ATOM      6  C   UNL     1       6.744  -0.711   0.512  0.00  0.00    +0.034 A 
ATOM      7  C   UNL     1       4.489  -0.105   1.418  0.00  0.00    +0.049 C 
ATOM      8  C   UNL     1       4.830  -0.255   2.856  0.00  0.00    -0.023 C 
ATOM      9  C   UNL     1       3.704  -0.380   3.548  0.00  0.00    -0.030 C 
ATOM     10  C   UNL     1       2.502  -0.356   2.601  0.00  0.00    +0.033 C 
ATOM     11  C   UNL     1       3.130  -0.856   1.292  0.00  0.00    +0.029 C 
ATOM     12  C   UNL     1       2.512  -0.361  -0.004  0.00  0.00    +0.109 C 
ATOM     13  N   UNL     1       3.412  -0.832  -1.080  0.00  0.00    -0.336 N 
ATOM     14  H   UNL     1       2.996  -1.123  -2.056  0.00  0.00    +0.147 HD
ENDROOT
BRANCH  12  15
ATOM     15  C   UNL     1       2.442   1.144  -0.005  0.00  0.00    +0.022 A 
ATOM     16  C   UNL     1       1.377   1.802   0.632  0.00  0.00    -0.009 A 
ATOM     17  C   UNL     1       0.359   1.082   1.281  0.00  0.00    +0.009 A 
ATOM     18  C   UNL     1      -0.661   1.753   1.883  0.00  0.00    +0.001 A 
ATOM     19  C   UNL     1      -0.707   3.146   1.875  0.00  0.00    +0.001 A 
ATOM     20  C   UNL     1       0.261   3.876   1.257  0.00  0.00    +0.008 A 
ATOM     21  C   UNL     1       1.328   3.219   0.619  0.00  0.00    -0.017 A 
ATOM     22  C   UNL     1       2.344   3.940  -0.030  0.00  0.00    +0.012 A 
ATOM     23  C   UNL     1       3.362   3.273  -0.638  0.00  0.00    +0.046 A 
ATOM     24  C   UNL     1       3.413   1.876  -0.627  0.00  0.00    +0.122 A 
BRANCH  24  25
ATOM     25  O   UNL     1       4.443   1.238  -1.243  0.00  0.00    -0.506 OA
ATOM     26  H   UNL     1       5.229   1.821  -1.746  0.00  0.00    +0.292 HD
ENDBRANCH  24  25
ENDBRANCH  12  15
BRANCH   1  27
ATOM     27  S   UNL     1       9.283  -1.283  -0.313  0.00  0.00    +0.058 S 
ATOM     28  O   UNL     1       9.867  -1.175  -1.603  0.00  0.00    -0.153 OA
ATOM     29  O   UNL     1       9.631  -0.415   0.757  0.00  0.00    -0.153 OA
BRANCH  27  30
ATOM     30  N   UNL     1       9.579  -2.825   0.213  0.00  0.00    -0.190 NA
ATOM     31  H   UNL     1       9.832  -2.994   1.270  0.00  0.00    +0.148 HD
BRANCH  30  32
ATOM     32  C   UNL     1       9.294  -3.965  -0.662  0.00  0.00    +0.110 C 
BRANCH  32  33
ATOM     33  C   UNL     1       9.986  -5.215  -0.114  0.00  0.00    +0.052 C 
BRANCH  33  37
ATOM     34  C   UNL     1       9.156  -8.539  -2.665  0.00  0.00    +0.000 A 
ATOM     35  C   UNL     1      10.264  -7.746  -2.901  0.00  0.00    +0.000 A 
ATOM     36  C   UNL     1      10.532  -6.671  -2.075  0.00  0.00    +0.003 A 
ATOM     37  C   UNL     1       9.693  -6.387  -1.014  0.00  0.00    -0.046 A 
ATOM     38  C   UNL     1       8.588  -7.183  -0.775  0.00  0.00    +0.003 A 
ATOM     39  C   UNL     1       8.317  -8.256  -1.604  0.00  0.00    +0.000 A 
ENDBRANCH  33  37
ENDBRANCH  32  33
ENDBRANCH  30  32
ENDBRANCH  27  30
ENDBRANCH   1  27
TORSDOF 7
