REMARK  Name = ZINC38615204
REMARK  9 active torsions:
REMARK  status: ('A' for Active; 'I' for Inactive)
REMARK    1  A    between atoms: C_1  and  O_2
REMARK    2  A    between atoms: O_2  and  C_3
REMARK    3  A    between atoms: C_6  and  C_9
REMARK    4  A    between atoms: C_9  and  C_11
REMARK    5  A    between atoms: C_9  and  N_31
REMARK    6  A    between atoms: C_11  and  N_12
REMARK    7  A    between atoms: C_13  and  C_15
REMARK    8  A    between atoms: C_15  and  N_16
REMARK    9  A    between atoms: C_20  and  C_21
REMARK                            x       y       z     vdW  Elec       q    Type
REMARK                         _______ _______ _______ _____ _____    ______ ____
ROOT
ATOM      1  N   UNL     1      -5.653  -0.028  -2.705  0.00  0.00    -0.315 N 
ATOM      2  C   UNL     1      -5.887  -0.383  -3.984  0.00  0.00    +0.231 C 
ATOM      3  O   UNL     1      -5.955  -1.556  -4.285  0.00  0.00    -0.274 OA
ATOM      4  H   UNL     1      -5.598   0.910  -2.465  0.00  0.00    +0.149 HD
ENDROOT
BRANCH   1   5
ATOM      5  C   UNL     1      -5.482  -1.058  -1.678  0.00  0.00    +0.093 C 
BRANCH   5   6
ATOM      6  C   UNL     1      -5.333  -0.394  -0.308  0.00  0.00    -0.020 C 
BRANCH   6   7
ATOM      7  N   UNL     1      -5.278  -1.427   0.734  0.00  0.00    +0.385 N 
ATOM      8  C   UNL     1      -6.548  -2.162   0.761  0.00  0.00    -0.078 C 
ATOM      9  C   UNL     1      -6.467  -3.292   1.789  0.00  0.00    -0.019 C 
ATOM     10  C   UNL     1      -6.190  -2.696   3.173  0.00  0.00    -0.004 C 
ATOM     11  C   UNL     1      -4.901  -1.871   3.114  0.00  0.00    -0.019 C 
ATOM     12  C   UNL     1      -5.041  -0.794   2.037  0.00  0.00    -0.078 C 
ATOM     13  H   UNL     1      -4.525  -2.068   0.531  0.00  0.00    -0.081 HD
ENDBRANCH   6   7
BRANCH   6  17
ATOM     14  C   UNL     1      -1.733   1.908  -0.226  0.00  0.00    +0.120 A 
ATOM     15  C   UNL     1      -2.953   2.534  -0.436  0.00  0.00    +0.046 A 
ATOM     16  C   UNL     1      -4.116   1.787  -0.463  0.00  0.00    +0.005 A 
ATOM     17  C   UNL     1      -4.064   0.418  -0.280  0.00  0.00    -0.059 A 
ATOM     18  C   UNL     1      -2.849  -0.208  -0.070  0.00  0.00    +0.005 A 
ATOM     19  C   UNL     1      -1.683   0.533  -0.048  0.00  0.00    +0.046 A 
BRANCH  14  21
ATOM     20  C   UNL     1      -0.716   4.050  -0.390  0.00  0.00    +0.277 C 
ATOM     21  O   UNL     1      -0.588   2.639  -0.200  0.00  0.00    -0.495 OA
ENDBRANCH  14  21
ENDBRANCH   6  17
ENDBRANCH   5   6
ENDBRANCH   1   5
BRANCH   2  22
ATOM     22  C   UNL     1      -6.063   0.677  -5.041  0.00  0.00    +0.210 C 
BRANCH  22  23
ATOM     23  N   UNL     1      -6.303   0.039  -6.338  0.00  0.00    -0.246 N 
ATOM     24  C   UNL     1      -5.273  -0.261  -7.111  0.00  0.00    +0.259 C 
ATOM     25  O   UNL     1      -4.129  -0.021  -6.773  0.00  0.00    -0.269 OA
ATOM     26  C   UNL     1      -5.582  -0.903  -8.405  0.00  0.00    +0.077 C 
ATOM     27  C   UNL     1      -4.744  -1.317  -9.388  0.00  0.00    +0.028 C 
ATOM     28  S   UNL     1      -7.366  -0.985  -8.320  0.00  0.00    -0.061 S 
ATOM     29  C   UNL     1      -7.569  -0.234  -6.713  0.00  0.00    +0.121 C 
ATOM     30  S   UNL     1      -9.021   0.070  -5.857  0.00  0.00    -0.027 S 
BRANCH  27  31
ATOM     31  C   UNL     1      -5.288  -1.779 -10.672  0.00  0.00    -0.024 A 
ATOM     32  C   UNL     1      -6.613  -1.492 -11.018  0.00  0.00    +0.011 A 
ATOM     33  C   UNL     1      -7.117  -1.927 -12.224  0.00  0.00    +0.039 A 
ATOM     34  C   UNL     1      -6.314  -2.650 -13.094  0.00  0.00    +0.123 A 
ATOM     35  C   UNL     1      -5.000  -2.938 -12.758  0.00  0.00    +0.039 A 
ATOM     36  C   UNL     1      -4.481  -2.503 -11.557  0.00  0.00    +0.011 A 
ATOM     37  F   UNL     1      -6.814  -3.074 -14.275  0.00  0.00    -0.205 F 
ENDBRANCH  27  31
ENDBRANCH  22  23
ENDBRANCH   2  22
TORSDOF 8
