REMARK  Name = ZINC33804098
REMARK  16 active torsions:
REMARK  status: ('A' for Active; 'I' for Inactive)
REMARK    1  A    between atoms: C_1  and  C_2
REMARK    2  A    between atoms: C_2  and  S_3
REMARK    3  A    between atoms: S_3  and  C_4
REMARK    4  A    between atoms: C_4  and  C_5
REMARK    5  A    between atoms: C_5  and  O_6
REMARK    6  A    between atoms: O_6  and  C_7
REMARK    7  A    between atoms: C_7  and  C_9
REMARK    8  A    between atoms: C_10  and  C_37
REMARK    9  A    between atoms: C_14  and  C_16
REMARK   10  A    between atoms: C_19  and  O_23
REMARK   11  A    between atoms: C_20  and  O_22
REMARK   12  A    between atoms: O_23  and  C_24
REMARK   13  A    between atoms: C_27  and  C_33
REMARK   14  A    between atoms: C_29  and  C_32
REMARK   15  A    between atoms: C_33  and  O_35
REMARK   16  A    between atoms: O_35  and  C_36
REMARK                            x       y       z     vdW  Elec       q    Type
REMARK                         _______ _______ _______ _____ _____    ______ ____
ROOT
ATOM      1  C   UNL     1       3.902   4.555  -3.385  0.00  0.00    +0.065 C 
ATOM      2  C   UNL     1       5.007   4.023  -2.835  0.00  0.00    +0.016 C 
ATOM      3  N   UNL     1       4.912   2.959  -1.982  0.00  0.00    -0.321 N 
ATOM      4  C   UNL     1       3.727   2.665  -1.363  0.00  0.00    +0.016 C 
ATOM      5  C   UNL     1       2.562   3.141  -1.851  0.00  0.00    +0.025 C 
ATOM      6  C   UNL     1       2.540   4.000  -3.091  0.00  0.00    +0.092 C 
ATOM      7  C   UNL     1       1.339   2.849  -1.223  0.00  0.00    +0.176 C 
ATOM      8  O   UNL     1       0.310   3.309  -1.677  0.00  0.00    -0.291 OA
ATOM      9  C   UNL     1       1.280   1.975   0.000  0.00  0.00    +0.171 C 
ATOM     10  C   UNL     1       2.460   0.997  -0.029  0.00  0.00    +0.013 C 
ATOM     11  C   UNL     1       3.757   1.804  -0.124  0.00  0.00    +0.055 C 
ATOM     12  C   UNL     1       2.467   0.162   1.253  0.00  0.00    +0.009 C 
ATOM     13  C   UNL     1       6.359   4.603  -3.161  0.00  0.00    +0.061 C 
ATOM     14  H   UNL     1       5.793   2.329  -1.789  0.00  0.00    +0.152 HD
ENDROOT
BRANCH   6  15
ATOM     15  C   UNL     1       2.082   3.168  -4.261  0.00  0.00    -0.032 A 
ATOM     16  C   UNL     1       2.803   2.049  -4.635  0.00  0.00    +0.008 A 
ATOM     17  C   UNL     1       2.387   1.283  -5.708  0.00  0.00    +0.050 A 
ATOM     18  C   UNL     1       1.245   1.635  -6.410  0.00  0.00    +0.161 A 
ATOM     19  C   UNL     1       0.520   2.760  -6.032  0.00  0.00    +0.159 A 
ATOM     20  C   UNL     1       0.939   3.522  -4.953  0.00  0.00    +0.053 A 
BRANCH  19  21
ATOM     21  O   UNL     1      -0.601   3.110  -6.718  0.00  0.00    -0.503 OA
ATOM     22  H   UNL     1      -1.174   4.000  -6.419  0.00  0.00    +0.292 HD
ENDBRANCH  19  21
BRANCH  18  23
ATOM     23  O   UNL     1       0.835   0.881  -7.465  0.00  0.00    -0.491 OA
ATOM     24  C   UNL     1       1.628  -0.260  -7.795  0.00  0.00    +0.277 C 
ENDBRANCH  18  23
ENDBRANCH   6  15
BRANCH   1  25
ATOM     25  C   UNL     1       4.026   5.661  -4.259  0.00  0.00    +0.338 C 
ATOM     26  O   UNL     1       5.125   6.121  -4.506  0.00  0.00    -0.245 OA
BRANCH  25  27
ATOM     27  O   UNL     1       2.925   6.205  -4.818  0.00  0.00    -0.460 OA
BRANCH  27  28
ATOM     28  C   UNL     1       3.124   7.320  -5.691  0.00  0.00    +0.243 C 
BRANCH  28  29
ATOM     29  C   UNL     1       1.772   7.798  -6.224  0.00  0.00    +0.110 C 
BRANCH  29  30
ATOM     30  S   UNL     1       2.025   9.212  -7.332  0.00  0.00    -0.158 S 
BRANCH  30  32
ATOM     31  C   UNL     1       0.418  10.848  -8.823  0.00  0.00    +0.015 C 
ATOM     32  C   UNL     1       0.350   9.652  -7.871  0.00  0.00    +0.066 C 
ENDBRANCH  30  32
ENDBRANCH  29  30
ENDBRANCH  28  29
ENDBRANCH  27  28
ENDBRANCH  25  27
ENDBRANCH   1  25
BRANCH   9  33
ATOM     33  C   UNL     1      -0.014   1.204   0.009  0.00  0.00    +0.318 C 
ATOM     34  O   UNL     1       0.002  -0.004   0.002  0.00  0.00    -0.250 OA
BRANCH  33  35
ATOM     35  O   UNL     1      -1.186   1.859   0.018  0.00  0.00    -0.467 OA
ATOM     36  C   UNL     1      -2.393   1.052   0.019  0.00  0.00    +0.280 C 
ENDBRANCH  33  35
ENDBRANCH   9  33
TORSDOF 11
