REMARK  Name = ZINC38556265
REMARK  8 active torsions:
REMARK  status: ('A' for Active; 'I' for Inactive)
REMARK    1  A    between atoms: C_1  and  C_2
REMARK    2  A    between atoms: C_4  and  C_8
REMARK    3  A    between atoms: C_12  and  S_16
REMARK    4  A    between atoms: N_14  and  N_15
REMARK    5  A    between atoms: S_16  and  C_17
REMARK    6  A    between atoms: C_17  and  C_18
REMARK    7  A    between atoms: C_18  and  C_20
REMARK    8  A    between atoms: C_23  and  C_26
REMARK                            x       y       z     vdW  Elec       q    Type
REMARK                         _______ _______ _______ _____ _____    ______ ____
ROOT
ATOM      1  C   UNL     1      -0.964  -2.951   1.248  0.00  0.00    +0.185 C 
ATOM      2  N   UNL     1      -2.443  -3.099   1.282  0.00  0.00    -0.234 NA
ATOM      3  N   UNL     1      -2.638  -4.277   2.142  0.00  0.00    -0.228 NA
ATOM      4  C   UNL     1      -1.529  -5.188   1.780  0.00  0.00    +0.214 C 
ATOM      5  N   UNL     1      -0.457  -4.342   1.212  0.00  0.00    -0.197 NA
ATOM      6  H   UNL     1      -2.811  -3.262   0.357  0.00  0.00    +0.143 HD
ATOM      7  H   UNL     1      -3.533  -4.708   1.966  0.00  0.00    +0.143 HD
ENDROOT
BRANCH   1  11
ATOM      8  C   UNL     1      -0.018   1.503   0.010  0.00  0.00    +0.067 C 
ATOM      9  C   UNL     1       0.002  -0.004   0.002  0.00  0.00    +0.058 C 
ATOM     10  C   UNL     1      -1.086  -0.777   0.003  0.00  0.00    +0.029 C 
ATOM     11  C   UNL     1      -0.531  -2.190  -0.007  0.00  0.00    +0.186 C 
ATOM     12  N   UNL     1       0.926  -1.973  -0.013  0.00  0.00    -0.177 NA
ATOM     13  N   UNL     1       1.125  -0.756  -0.013  0.00  0.00    -0.159 NA
ENDBRANCH   1  11
BRANCH   5  14
ATOM     14  N   UNL     1      -0.140  -4.746  -0.149  0.00  0.00    -0.264 NA
ATOM     15  H   UNL     1       0.205  -5.694  -0.173  0.00  0.00    +0.137 HD
ATOM     16  H   UNL     1      -0.940  -4.637  -0.754  0.00  0.00    +0.137 HD
ENDBRANCH   5  14
BRANCH   4  17
ATOM     17  S   UNL     1      -0.923  -6.048   3.257  0.00  0.00    -0.116 S 
BRANCH  17  18
ATOM     18  C   UNL     1      -0.410  -4.707   4.366  0.00  0.00    +0.151 C 
BRANCH  18  19
ATOM     19  C   UNL     1       0.121  -5.292   5.650  0.00  0.00    +0.173 C 
ATOM     20  O   UNL     1       0.150  -6.495   5.801  0.00  0.00    -0.291 OA
BRANCH  19  21
ATOM     21  C   UNL     1       0.603  -4.404   6.718  0.00  0.00    +0.018 A 
ATOM     22  C   UNL     1       0.564  -3.016   6.546  0.00  0.00    +0.012 A 
ATOM     23  C   UNL     1       1.015  -2.190   7.543  0.00  0.00    +0.009 A 
ATOM     24  C   UNL     1       1.512  -2.733   8.729  0.00  0.00    -0.018 A 
ATOM     25  C   UNL     1       1.552  -4.117   8.902  0.00  0.00    +0.009 A 
ATOM     26  C   UNL     1       1.097  -4.947   7.910  0.00  0.00    +0.012 A 
BRANCH  24  27
ATOM     27  C   UNL     1       1.999  -1.838   9.806  0.00  0.00    -0.018 A 
ATOM     28  C   UNL     1       1.956  -0.454   9.638  0.00  0.00    +0.008 A 
ATOM     29  C   UNL     1       2.410   0.374  10.644  0.00  0.00    +0.001 A 
ATOM     30  C   UNL     1       2.909  -0.166  11.816  0.00  0.00    +0.000 A 
ATOM     31  C   UNL     1       2.954  -1.538  11.988  0.00  0.00    +0.001 A 
ATOM     32  C   UNL     1       2.496  -2.376  10.992  0.00  0.00    +0.008 A 
ENDBRANCH  24  27
ENDBRANCH  19  21
ENDBRANCH  18  19
ENDBRANCH  17  18
ENDBRANCH   4  17
TORSDOF 7
