REMARK  Name = ZINC46747939
REMARK  8 active torsions:
REMARK  status: ('A' for Active; 'I' for Inactive)
REMARK    1  A    between atoms: C_1  and  C_2
REMARK    2  A    between atoms: C_2  and  C_4
REMARK    3  A    between atoms: C_2  and  O_18
REMARK    4  A    between atoms: N_6  and  C_7
REMARK    5  A    between atoms: N_6  and  C_8
REMARK    6  A    between atoms: C_8  and  C_9
REMARK    7  A    between atoms: C_13  and  N_15
REMARK    8  A    between atoms: O_18  and  C_19
REMARK                            x       y       z     vdW  Elec       q    Type
REMARK                         _______ _______ _______ _____ _____    ______ ____
ROOT
ATOM      1  C   UNL     1      -1.424  -0.753  -0.044  0.00  0.00    +0.256 C 
ATOM      2  O   UNL     1      -1.833  -1.194  -1.098  0.00  0.00    -0.272 OA
ATOM      3  N   UNL     1      -2.231  -0.732   1.035  0.00  0.00    -0.297 N 
ATOM      4  C   UNL     1      -1.738  -0.200   2.308  0.00  0.00    +0.132 C 
ENDROOT
BRANCH   1   6
ATOM      5  C   UNL     1      -0.048   1.273   0.344  0.00  0.00    +0.062 C 
ATOM      6  C   UNL     1      -0.015  -0.230   0.058  0.00  0.00    +0.256 C 
BRANCH   6   7
ATOM      7  O   UNL     1       0.671  -0.465  -1.174  0.00  0.00    -0.478 OA
BRANCH   7   8
ATOM      8  C   UNL     1       2.026  -0.553  -1.118  0.00  0.00    +0.141 A 
ATOM      9  C   UNL     1       2.690  -0.303   0.074  0.00  0.00    +0.047 A 
ATOM     10  C   UNL     1       4.068  -0.393   0.129  0.00  0.00    +0.005 A 
ATOM     11  C   UNL     1       4.786  -0.732  -1.003  0.00  0.00    +0.022 A 
ATOM     12  C   UNL     1       4.127  -0.981  -2.194  0.00  0.00    +0.063 A 
ATOM     13  C   UNL     1       2.747  -0.899  -2.252  0.00  0.00    +0.101 A 
ATOM     14 CL   UNL     1       1.919  -1.219  -3.744  0.00  0.00    -0.078 Cl
ATOM     15 CL   UNL     1       5.032  -1.406  -3.614  0.00  0.00    -0.082 Cl
ENDBRANCH   7   8
ENDBRANCH   6   7
ENDBRANCH   1   6
BRANCH   3  16
ATOM     16  C   UNL     1      -3.601  -1.241   0.936  0.00  0.00    +0.142 C 
BRANCH  16  17
ATOM     17  C   UNL     1      -3.616  -2.711   1.267  0.00  0.00    -0.028 A 
ATOM     18  C   UNL     1      -3.437  -3.647   0.266  0.00  0.00    +0.005 A 
ATOM     19  C   UNL     1      -3.450  -4.995   0.570  0.00  0.00    +0.003 A 
ATOM     20  C   UNL     1      -3.643  -5.408   1.875  0.00  0.00    +0.033 A 
ATOM     21  C   UNL     1      -3.822  -4.472   2.876  0.00  0.00    +0.127 A 
ATOM     22  C   UNL     1      -3.804  -3.123   2.573  0.00  0.00    +0.038 A 
BRANCH  21  23
ATOM     23  N   UNL     1      -4.029  -4.914   4.274  0.00  0.00    +0.056 N 
ATOM     24  O   UNL     1      -4.042  -6.093   4.539  0.00  0.00    -0.126 OA
ATOM     25  O   UNL     1      -4.186  -4.095   5.149  0.00  0.00    -0.126 OA
ENDBRANCH  21  23
ENDBRANCH  16  17
ENDBRANCH   3  16
TORSDOF 6
