REMARK  Name = ZINC11243168
REMARK  13 active torsions:
REMARK  status: ('A' for Active; 'I' for Inactive)
REMARK    1  A    between atoms: C_1  and  C_2
REMARK    2  A    between atoms: C_2  and  O_3
REMARK    3  A    between atoms: O_3  and  C_4
REMARK    4  A    between atoms: C_4  and  C_5
REMARK    5  A    between atoms: C_13  and  C_14
REMARK    6  A    between atoms: C_14  and  O_16
REMARK    7  A    between atoms: O_16  and  C_17
REMARK    8  A    between atoms: C_17  and  C_18
REMARK    9  A    between atoms: C_18  and  C_20
REMARK   10  A    between atoms: C_21  and  N_36
REMARK   11  A    between atoms: N_22  and  C_29
REMARK   12  A    between atoms: N_25  and  C_28
REMARK   13  A    between atoms: C_29  and  C_30
REMARK                            x       y       z     vdW  Elec       q    Type
REMARK                         _______ _______ _______ _____ _____    ______ ____
ROOT
ATOM      1  C   UNL     1       1.324  -2.076  -0.023  0.00  0.00    +0.209 C 
ATOM      2  O   UNL     1       0.310  -2.739  -0.109  0.00  0.00    -0.288 OA
ENDROOT
BRANCH   1   3
ATOM      3  C   UNL     1       1.247  -0.667  -0.014  0.00  0.00    +0.123 A 
ATOM      4  C   UNL     1       0.005  -0.009   0.020  0.00  0.00    +0.116 A 
ATOM      5  N   UNL     1      -0.019   1.357   0.027  0.00  0.00    -0.277 N 
ATOM      6  C   UNL     1       1.115   2.075   0.003  0.00  0.00    +0.333 A 
ATOM      7  O   UNL     1       1.040   3.288   0.010  0.00  0.00    -0.246 OA
ATOM      8  N   UNL     1       2.329   1.502  -0.030  0.00  0.00    -0.263 N 
ATOM      9  C   UNL     1       2.461   0.159  -0.040  0.00  0.00    +0.269 A 
ATOM     10  O   UNL     1       3.563  -0.357  -0.070  0.00  0.00    -0.267 OA
ATOM     11  C   UNL     1       3.527   2.346  -0.056  0.00  0.00    +0.157 C 
BRANCH   4  12
ATOM     12  N   UNL     1      -1.154  -0.721   0.045  0.00  0.00    -0.344 N 
ATOM     13  H   UNL     1      -1.974  -0.324  -0.288  0.00  0.00    +0.144 HD
ATOM     14  H   UNL     1      -1.161  -1.625   0.397  0.00  0.00    +0.144 HD
ENDBRANCH   4  12
BRANCH   5  15
ATOM     15  C   UNL     1      -1.308   2.052   0.057  0.00  0.00    +0.163 C 
BRANCH  15  16
ATOM     16  C   UNL     1      -1.721   2.284   1.487  0.00  0.00    -0.028 A 
ATOM     17  C   UNL     1      -2.484   1.339   2.148  0.00  0.00    +0.005 A 
ATOM     18  C   UNL     1      -2.859   1.549   3.461  0.00  0.00    +0.000 A 
ATOM     19  C   UNL     1      -2.481   2.709   4.111  0.00  0.00    +0.000 A 
ATOM     20  C   UNL     1      -1.723   3.656   3.449  0.00  0.00    +0.000 A 
ATOM     21  C   UNL     1      -1.343   3.444   2.137  0.00  0.00    +0.005 A 
ENDBRANCH  15  16
ENDBRANCH   5  15
ENDBRANCH   1   3
BRANCH   1  22
ATOM     22  C   UNL     1       2.665  -2.757   0.074  0.00  0.00    +0.312 C 
BRANCH  22  23
ATOM     23  O   UNL     1       2.479  -4.197   0.044  0.00  0.00    -0.451 OA
BRANCH  23  24
ATOM     24  C   UNL     1       3.589  -4.960   0.122  0.00  0.00    +0.376 C 
ATOM     25  O   UNL     1       4.681  -4.435   0.213  0.00  0.00    -0.241 OA
BRANCH  24  34
ATOM     26  C   UNL     1       4.522  -7.289   0.165  0.00  0.00    +0.038 A 
ATOM     27  C   UNL     1       3.942  -8.630   0.110  0.00  0.00    +0.026 A 
ATOM     28  C   UNL     1       4.473  -9.922   0.138  0.00  0.00    +0.012 A 
ATOM     29  C   UNL     1       3.636 -10.999   0.061  0.00  0.00    +0.001 A 
ATOM     30  C   UNL     1       2.263 -10.818  -0.044  0.00  0.00    +0.004 A 
ATOM     31  C   UNL     1       1.720  -9.551  -0.073  0.00  0.00    +0.047 A 
ATOM     32  C   UNL     1       2.552  -8.440   0.004  0.00  0.00    +0.136 A 
ATOM     33  O   UNL     1       2.321  -7.113   0.000  0.00  0.00    -0.448 OA
ATOM     34  C   UNL     1       3.477  -6.423   0.098  0.00  0.00    +0.218 A 
BRANCH  26  35
ATOM     35  C   UNL     1       5.984  -6.938   0.274  0.00  0.00    +0.199 C 
BRANCH  35  36
ATOM     36  O   UNL     1       6.348  -6.842   1.653  0.00  0.00    -0.375 OA
BRANCH  36  38
ATOM     37  C   UNL     1       7.997  -6.436   3.372  0.00  0.00    +0.034 C 
ATOM     38  C   UNL     1       7.722  -6.511   1.869  0.00  0.00    +0.157 C 
ENDBRANCH  36  38
ENDBRANCH  35  36
ENDBRANCH  26  35
ENDBRANCH  24  34
ENDBRANCH  23  24
ENDBRANCH  22  23
ENDBRANCH   1  22
TORSDOF 11
