REMARK  Name = ZINC39687321
REMARK  8 active torsions:
REMARK  status: ('A' for Active; 'I' for Inactive)
REMARK    1  A    between atoms: C_1  and  C_2
REMARK    2  A    between atoms: C_4  and  C_8
REMARK    3  A    between atoms: N_6  and  C_7
REMARK    4  A    between atoms: C_12  and  C_21
REMARK    5  A    between atoms: N_23  and  C_24
REMARK    6  A    between atoms: C_24  and  C_26
REMARK    7  A    between atoms: C_24  and  C_33
REMARK    8  A    between atoms: C_26  and  C_27
REMARK                            x       y       z     vdW  Elec       q    Type
REMARK                         _______ _______ _______ _____ _____    ______ ____
ROOT
ATOM      1  C   UNL     1       0.258  -2.909  -0.864  0.00  0.00    +0.267 C 
ATOM      2  O   UNL     1       0.256  -2.554  -2.026  0.00  0.00    -0.268 OA
ATOM      3  N   UNL     1       0.196  -4.221  -0.560  0.00  0.00    -0.295 N 
ATOM      4  C   UNL     1       0.181  -4.843   0.785  0.00  0.00    +0.121 C 
ATOM      5  C   UNL     1      -0.827  -6.008   0.665  0.00  0.00    +0.100 C 
ATOM      6  C   UNL     1      -0.855  -6.349  -0.834  0.00  0.00    -0.004 C 
ATOM      7  C   UNL     1       0.122  -5.368  -1.497  0.00  0.00    +0.115 C 
ATOM      8  C   UNL     1      -2.259  -6.147  -1.396  0.00  0.00    -0.010 C 
ATOM      9  C   UNL     1      -2.275  -6.547  -2.874  0.00  0.00    -0.082 C 
ATOM     10  N   UNL     1      -1.872  -7.952  -3.007  0.00  0.00    +0.379 N 
ATOM     11  C   UNL     1      -0.487  -8.121  -2.550  0.00  0.00    -0.082 C 
ATOM     12  C   UNL     1      -0.395  -7.787  -1.058  0.00  0.00    -0.010 C 
ATOM     13  H   UNL     1      -2.481  -8.530  -2.448  0.00  0.00    -0.086 HD
ATOM     14  H   UNL     1      -1.942  -8.231  -3.974  0.00  0.00    -0.086 HD
ENDROOT
BRANCH   1  18
ATOM     15  C   UNL     1       0.522   1.463   1.686  0.00  0.00    +0.065 C 
ATOM     16  C   UNL     1       0.442   0.005   1.312  0.00  0.00    +0.037 A 
ATOM     17  C   UNL     1       0.395  -0.500   0.057  0.00  0.00    +0.057 A 
ATOM     18  C   UNL     1       0.327  -1.904   0.216  0.00  0.00    +0.147 A 
ATOM     19  N   UNL     1       0.336  -2.145   1.512  0.00  0.00    -0.167 NA
ATOM     20  N   UNL     1       0.407  -1.040   2.165  0.00  0.00    -0.271 N 
ATOM     21  C   UNL     1       0.443  -0.931   3.626  0.00  0.00    +0.172 C 
ENDBRANCH   1  18
BRANCH   5  22
ATOM     22  C   UNL     1      -2.192  -5.572   1.132  0.00  0.00    +0.219 C 
ATOM     23  O   UNL     1      -2.833  -6.282   1.878  0.00  0.00    -0.275 OA
ATOM     24  N   UNL     1      -2.700  -4.393   0.722  0.00  0.00    -0.303 N 
ATOM     25  H   UNL     1      -2.187  -3.825   0.125  0.00  0.00    +0.149 HD
BRANCH  24  26
ATOM     26  C   UNL     1      -4.026  -3.970   1.176  0.00  0.00    +0.163 C 
BRANCH  26  27
ATOM     27  C   UNL     1      -4.618  -3.011   0.174  0.00  0.00    +0.236 C 
ATOM     28  O   UNL     1      -3.894  -2.412  -0.592  0.00  0.00    -0.274 OA
ATOM     29  N   UNL     1      -5.951  -2.820   0.131  0.00  0.00    -0.300 N 
ATOM     30  C   UNL     1      -6.849  -3.613   0.981  0.00  0.00    +0.108 C 
ATOM     31  C   UNL     1      -7.741  -2.658   1.781  0.00  0.00    +0.019 C 
ATOM     32  C   UNL     1      -8.461  -1.711   0.818  0.00  0.00    +0.003 C 
ATOM     33  C   UNL     1      -7.430  -0.880   0.051  0.00  0.00    +0.019 C 
ATOM     34  C   UNL     1      -6.534  -1.811  -0.764  0.00  0.00    +0.108 C 
ENDBRANCH  26  27
BRANCH  26  35
ATOM     35  C   UNL     1      -3.903  -3.276   2.534  0.00  0.00    +0.067 C 
BRANCH  35  36
ATOM     36  C   UNL     1      -3.456  -4.276   3.570  0.00  0.00    -0.045 A 
ATOM     37  C   UNL     1      -4.394  -5.002   4.279  0.00  0.00    +0.004 A 
ATOM     38  C   UNL     1      -3.984  -5.919   5.229  0.00  0.00    +0.000 A 
ATOM     39  C   UNL     1      -2.636  -6.109   5.469  0.00  0.00    +0.000 A 
ATOM     40  C   UNL     1      -1.698  -5.383   4.759  0.00  0.00    +0.000 A 
ATOM     41  C   UNL     1      -2.108  -4.470   3.806  0.00  0.00    +0.004 A 
ENDBRANCH  35  36
ENDBRANCH  26  35
ENDBRANCH  24  26
ENDBRANCH   5  22
TORSDOF 6
