REMARK  Name = ZINC36121932
REMARK  14 active torsions:
REMARK  status: ('A' for Active; 'I' for Inactive)
REMARK    1  A    between atoms: C_1  and  C_2
REMARK    2  A    between atoms: C_2  and  C_3
REMARK    3  A    between atoms: C_3  and  C_5
REMARK    4  A    between atoms: C_3  and  N_6
REMARK    5  A    between atoms: N_6  and  C_7
REMARK    6  A    between atoms: C_7  and  C_8
REMARK    7  A    between atoms: C_18  and  C_20
REMARK    8  A    between atoms: C_20  and  O_21
REMARK    9  A    between atoms: O_21  and  C_22
REMARK   10  A    between atoms: C_27  and  C_28
REMARK   11  A    between atoms: C_29  and  C_31
REMARK   12  A    between atoms: C_31  and  C_32
REMARK   13  A    between atoms: C_32  and  C_33
REMARK   14  A    between atoms: C_32  and  C_34
REMARK                            x       y       z     vdW  Elec       q    Type
REMARK                         _______ _______ _______ _____ _____    ______ ____
ROOT
ATOM      1  C   UNL     1       0.885  -0.810  -4.982  0.00  0.00    +0.234 C 
ATOM      2  O   UNL     1       0.745  -1.984  -4.711  0.00  0.00    -0.274 OA
ATOM      3  N   UNL     1       1.536  -0.452  -6.106  0.00  0.00    -0.289 N 
ATOM      4  C   UNL     1       1.717   0.969  -6.442  0.00  0.00    +0.114 C 
ATOM      5  C   UNL     1       0.941   1.261  -7.736  0.00  0.00    +0.061 C 
ATOM      6  C   UNL     1       1.177   0.144  -8.699  0.00  0.00    -0.004 A 
ATOM      7  C   UNL     1       1.673  -1.096  -8.437  0.00  0.00    -0.014 A 
ATOM      8  C   UNL     1       1.789  -1.965  -9.520  0.00  0.00    +0.013 A 
ATOM      9  C   UNL     1       1.422  -1.558 -10.757  0.00  0.00    +0.046 A 
ATOM     10  S   UNL     1       0.879   0.115 -10.447  0.00  0.00    -0.101 S 
ATOM     11  C   UNL     1       2.082  -1.474  -7.010  0.00  0.00    +0.144 C 
ENDROOT
BRANCH   1  12
ATOM     12  C   UNL     1       0.330   0.247  -4.063  0.00  0.00    +0.203 C 
BRANCH  12  13
ATOM     13  N   UNL     1      -0.199  -0.387  -2.853  0.00  0.00    -0.290 N 
ATOM     14  C   UNL     1      -1.449  -0.891  -2.848  0.00  0.00    +0.216 C 
ATOM     15  O   UNL     1      -2.103  -0.902  -3.869  0.00  0.00    -0.276 OA
BRANCH  13  16
ATOM     16  C   UNL     1       0.630  -0.473  -1.649  0.00  0.00    +0.073 C 
ATOM     17  C   UNL     1       1.137   0.922  -1.278  0.00  0.00    +0.028 C 
BRANCH  16  19
ATOM     18  C   UNL     1       1.324  -2.827  -2.114  0.00  0.00    +0.005 C 
ATOM     19  C   UNL     1       1.822  -1.395  -1.915  0.00  0.00    +0.019 C 
ENDBRANCH  16  19
ENDBRANCH  13  16
BRANCH  14  20
ATOM     20  C   UNL     1      -2.034  -1.441  -1.573  0.00  0.00    +0.099 C 
BRANCH  20  21
ATOM     21  C   UNL     1      -3.395  -2.075  -1.868  0.00  0.00    -0.008 C 
ATOM     22  C   UNL     1      -3.206  -3.287  -2.783  0.00  0.00    +0.008 C 
ATOM     23  C   UNL     1      -4.045  -2.522  -0.557  0.00  0.00    +0.008 C 
ENDBRANCH  20  21
ENDBRANCH  14  20
ENDBRANCH  12  13
ENDBRANCH   1  12
BRANCH  11  24
ATOM     24  C   UNL     1       3.607  -1.507  -6.895  0.00  0.00    +0.256 C 
BRANCH  24  25
ATOM     25  O   UNL     1       4.147  -0.269  -7.361  0.00  0.00    -0.490 OA
BRANCH  25  26
ATOM     26  C   UNL     1       5.499  -0.133  -7.326  0.00  0.00    +0.123 A 
ATOM     27  C   UNL     1       6.290  -1.173  -6.858  0.00  0.00    +0.046 A 
ATOM     28  C   UNL     1       7.663  -1.032  -6.824  0.00  0.00    +0.004 A 
ATOM     29  C   UNL     1       8.250   0.143  -7.255  0.00  0.00    +0.000 A 
ATOM     30  C   UNL     1       7.465   1.180  -7.722  0.00  0.00    +0.007 A 
ATOM     31  C   UNL     1       6.090   1.043  -7.763  0.00  0.00    -0.009 A 
ATOM     32  C   UNL     1       5.235   2.171  -8.278  0.00  0.00    +0.047 C 
ENDBRANCH  25  26
ENDBRANCH  24  25
ENDBRANCH  11  24
TORSDOF 9
