REMARK  Name = ZINC14643150
REMARK  6 active torsions:
REMARK  status: ('A' for Active; 'I' for Inactive)
REMARK    1  A    between atoms: C_1  and  C_2
REMARK    2  A    between atoms: N_4  and  C_5
REMARK    3  A    between atoms: C_9  and  C_16
REMARK    4  A    between atoms: C_16  and  S_17
REMARK    5  A    between atoms: S_17  and  C_18
REMARK    6  A    between atoms: N_28  and  C_29
REMARK                            x       y       z     vdW  Elec       q    Type
REMARK                         _______ _______ _______ _____ _____    ______ ____
ROOT
ATOM      1  C   UNL     1      -1.081   5.596   3.038  0.00  0.00    +0.037 A 
ATOM      2  C   UNL     1      -0.219   5.195   2.017  0.00  0.00    +0.024 A 
ATOM      3  C   UNL     1      -0.363   3.971   1.432  0.00  0.00    +0.013 A 
ATOM      4  C   UNL     1      -1.379   3.109   1.863  0.00  0.00    +0.022 A 
ATOM      5  C   UNL     1      -1.561   1.792   1.249  0.00  0.00    -0.020 A 
ATOM      6  C   UNL     1      -2.568   1.004   1.707  0.00  0.00    +0.097 A 
ATOM      7  C   UNL     1      -3.405   1.467   2.743  0.00  0.00    +0.338 A 
ATOM      8  O   UNL     1      -4.305   0.750   3.143  0.00  0.00    -0.245 OA
ATOM      9  O   UNL     1      -3.237   2.677   3.298  0.00  0.00    -0.422 OA
ATOM     10  C   UNL     1      -2.255   3.510   2.889  0.00  0.00    +0.141 A 
ATOM     11  C   UNL     1      -2.096   4.757   3.473  0.00  0.00    +0.070 A 
ENDROOT
BRANCH   1  15
ATOM     12  C   UNL     1      -1.123   8.396   5.547  0.00  0.00    +0.109 C 
ATOM     13  C   UNL     1      -1.182   7.019   4.937  0.00  0.00    +0.214 C 
ATOM     14  O   UNL     1      -1.463   6.062   5.627  0.00  0.00    -0.276 OA
ATOM     15  N   UNL     1      -0.921   6.851   3.626  0.00  0.00    -0.286 N 
ATOM     16  H   UNL     1      -0.623   7.603   3.090  0.00  0.00    +0.155 HD
ENDBRANCH   1  15
BRANCH   5  17
ATOM     17  C   UNL     1      -0.651   1.322   0.144  0.00  0.00    +0.113 C 
BRANCH  17  18
ATOM     18  S   UNL     1      -1.343   1.810  -1.456  0.00  0.00    -0.083 S 
BRANCH  18  19
ATOM     19  C   UNL     1      -0.114   1.152  -2.534  0.00  0.00    +0.173 A 
ATOM     20  N   UNL     1       0.913   0.532  -2.007  0.00  0.00    -0.223 NA
ATOM     21  C   UNL     1       1.887   0.001  -2.772  0.00  0.00    +0.079 A 
ATOM     22  C   UNL     1       2.980  -0.665  -2.210  0.00  0.00    +0.028 A 
ATOM     23  C   UNL     1       3.948  -1.184  -3.023  0.00  0.00    +0.002 A 
ATOM     24  C   UNL     1       3.862  -1.061  -4.404  0.00  0.00    +0.001 A 
ATOM     25  C   UNL     1       2.805  -0.415  -4.984  0.00  0.00    +0.015 A 
ATOM     26  C   UNL     1       1.804   0.124  -4.178  0.00  0.00    +0.065 A 
ATOM     27  C   UNL     1       0.646   0.828  -4.745  0.00  0.00    +0.263 A 
ATOM     28  O   UNL     1       0.518   0.967  -5.948  0.00  0.00    -0.267 OA
ATOM     29  N   UNL     1      -0.274   1.317  -3.881  0.00  0.00    -0.284 N 
BRANCH  29  30
ATOM     30  C   UNL     1      -1.448   2.028  -4.392  0.00  0.00    +0.093 C 
ATOM     31  C   UNL     1      -1.216   3.100  -5.458  0.00  0.00    +0.027 C 
ATOM     32  C   UNL     1      -1.591   3.508  -4.032  0.00  0.00    +0.027 C 
ENDBRANCH  29  30
ENDBRANCH  18  19
ENDBRANCH  17  18
ENDBRANCH   5  17
TORSDOF 5
