REMARK  Name = ZINC52905825
REMARK  6 active torsions:
REMARK  status: ('A' for Active; 'I' for Inactive)
REMARK    1  A    between atoms: C_1  and  C_2
REMARK    2  A    between atoms: C_2  and  N_3
REMARK    3  A    between atoms: N_3  and  C_4
REMARK    4  A    between atoms: N_3  and  C_9
REMARK    5  A    between atoms: C_4  and  C_5
REMARK    6  A    between atoms: C_14  and  C_15
REMARK                            x       y       z     vdW  Elec       q    Type
REMARK                         _______ _______ _______ _____ _____    ______ ____
ROOT
ATOM      1  C   UNL     1      -2.077  -0.710   1.176  0.00  0.00    +0.042 A 
ATOM      2  C   UNL     1      -2.869   0.290   1.726  0.00  0.00    +0.024 A 
ATOM      3  C   UNL     1      -3.359   0.158   3.009  0.00  0.00    +0.003 A 
ATOM      4  C   UNL     1      -3.065  -0.969   3.760  0.00  0.00    +0.021 A 
ATOM      5  C   UNL     1      -2.280  -1.973   3.231  0.00  0.00    +0.053 A 
ATOM      6  C   UNL     1      -1.782  -1.856   1.930  0.00  0.00    +0.051 A 
ATOM      7 CL   UNL     1      -1.916  -3.381   4.178  0.00  0.00    -0.083 Cl
ENDROOT
BRANCH   6   8
ATOM      8  C   UNL     1      -0.947  -2.928   1.356  0.00  0.00    +0.097 C 
ATOM      9  N   UNL     1      -1.474  -4.130   1.119  0.00  0.00    -0.387 N 
ATOM     10  N   UNL     1       0.335  -2.696   1.075  0.00  0.00    -0.344 N 
ATOM     11  H   UNL     1      -0.925  -4.834   0.742  0.00  0.00    +0.157 HD
ATOM     12  H   UNL     1       0.719  -1.822   1.247  0.00  0.00    +0.144 HD
ATOM     13  H   UNL     1       0.884  -3.401   0.697  0.00  0.00    +0.144 HD
ATOM     14  H   UNL     1      -2.407  -4.299   1.324  0.00  0.00    +0.157 HD
ENDBRANCH   6   8
BRANCH   1  15
ATOM     15  N   UNL     1      -1.583  -0.579  -0.116  0.00  0.00    -0.321 N 
BRANCH  15  17
ATOM     16  C   UNL     1      -2.146  -2.453  -1.583  0.00  0.00    +0.024 C 
ATOM     17  C   UNL     1      -2.406  -0.981  -1.259  0.00  0.00    +0.102 C 
ENDBRANCH  15  17
BRANCH  15  18
ATOM     18  C   UNL     1      -0.239  -0.039  -0.335  0.00  0.00    +0.218 C 
BRANCH  18  19
ATOM     19  C   UNL     1      -0.332   1.461  -0.619  0.00  0.00    +0.405 C 
ATOM     20  F   UNL     1      -0.813   2.122   0.516  0.00  0.00    -0.169 F 
ATOM     21  F   UNL     1       0.936   1.954  -0.943  0.00  0.00    -0.169 F 
ATOM     22  F   UNL     1      -1.205   1.680  -1.690  0.00  0.00    -0.169 F 
ENDBRANCH  18  19
ENDBRANCH  15  18
ENDBRANCH   1  15
TORSDOF 5
