REMARK  Name = ZINC63293988
REMARK  6 active torsions:
REMARK  status: ('A' for Active; 'I' for Inactive)
REMARK    1  A    between atoms: C_6  and  C_11
REMARK    2  A    between atoms: N_13  and  C_14
REMARK    3  A    between atoms: C_14  and  C_15
REMARK    4  A    between atoms: C_15  and  N_16
REMARK    5  A    between atoms: N_16  and  S_17
REMARK    6  A    between atoms: S_17  and  C_20
REMARK                            x       y       z     vdW  Elec       q    Type
REMARK                         _______ _______ _______ _____ _____    ______ ____
ROOT
ATOM      1  C   UNL     1       3.862  -4.756   2.573  0.00  0.00    +0.121 C 
ENDROOT
BRANCH   1   4
ATOM      2  C   UNL     1       3.656  -2.764   1.185  0.00  0.00    +0.239 C 
ATOM      3  O   UNL     1       4.332  -2.165   1.995  0.00  0.00    -0.273 OA
ATOM      4  N   UNL     1       3.363  -4.065   1.381  0.00  0.00    -0.312 N 
ATOM      5  H   UNL     1       2.823  -4.543   0.734  0.00  0.00    +0.149 HD
BRANCH   2  11
ATOM      6  C   UNL     1      -0.016   1.348   0.009  0.00  0.00    +0.001 A 
ATOM      7  C   UNL     1       1.166   2.101   0.002  0.00  0.00    +0.002 A 
ATOM      8  C   UNL     1       2.391   1.535  -0.013  0.00  0.00    +0.026 A 
ATOM      9  C   UNL     1       2.529   0.120  -0.022  0.00  0.00    +0.043 A 
ATOM     10  N   UNL     1       3.587  -0.654  -0.037  0.00  0.00    -0.370 N 
ATOM     11  C   UNL     1       3.143  -2.053  -0.041  0.00  0.00    +0.190 C 
ATOM     12  C   UNL     1       1.631  -2.008  -0.025  0.00  0.00    +0.016 C 
ATOM     13  C   UNL     1       1.295  -0.698  -0.014  0.00  0.00    -0.004 A 
ATOM     14  C   UNL     1       0.002  -0.004   0.002  0.00  0.00    +0.010 A 
ATOM     15  H   UNL     1       4.509  -0.353  -0.045  0.00  0.00    +0.161 HD
ENDBRANCH   2  11
ENDBRANCH   1   4
BRANCH   1  16
ATOM     16  C   UNL     1       3.391  -6.211   2.553  0.00  0.00    +0.124 C 
BRANCH  16  17
ATOM     17  N   UNL     1       3.889  -6.902   3.744  0.00  0.00    -0.188 NA
ATOM     18  H   UNL     1       4.597  -6.505   4.276  0.00  0.00    +0.148 HD
BRANCH  17  19
ATOM     19  S   UNL     1       3.244  -8.363   4.185  0.00  0.00    +0.060 S 
ATOM     20  O   UNL     1       3.946  -8.782   5.348  0.00  0.00    -0.153 OA
ATOM     21  O   UNL     1       1.832  -8.207   4.162  0.00  0.00    -0.153 OA
BRANCH  19  22
ATOM     22  C   UNL     1       3.645  -9.514   2.913  0.00  0.00    +0.125 A 
ATOM     23  C   UNL     1       4.476 -10.584   3.186  0.00  0.00    +0.050 A 
ATOM     24  C   UNL     1       4.791 -11.488   2.187  0.00  0.00    +0.043 A 
ATOM     25  C   UNL     1       4.273 -11.321   0.914  0.00  0.00    +0.021 A 
ATOM     26  C   UNL     1       3.442 -10.251   0.642  0.00  0.00    +0.023 A 
ATOM     27  C   UNL     1       3.123  -9.350   1.642  0.00  0.00    +0.067 A 
ATOM     28 CL   UNL     1       2.073  -8.011   1.302  0.00  0.00    -0.082 Cl
ATOM     29 CL   UNL     1       5.835 -12.832   2.529  0.00  0.00    -0.083 Cl
ENDBRANCH  19  22
ENDBRANCH  17  19
ENDBRANCH  16  17
ENDBRANCH   1  16
TORSDOF 6
