REMARK  Name = ZINC65001834
REMARK  11 active torsions:
REMARK  status: ('A' for Active; 'I' for Inactive)
REMARK    1  A    between atoms: C_1  and  C_2
REMARK    2  A    between atoms: C_4  and  C_26
REMARK    3  A    between atoms: C_6  and  O_8
REMARK    4  A    between atoms: O_8  and  C_9
REMARK    5  A    between atoms: C_9  and  C_11
REMARK    6  A    between atoms: C_9  and  C_12
REMARK    7  A    between atoms: N_14  and  C_15
REMARK    8  A    between atoms: C_18  and  C_22
REMARK    9  A    between atoms: C_22  and  C_23
REMARK   10  A    between atoms: C_22  and  C_24
REMARK   11  A    between atoms: C_22  and  C_25
REMARK                            x       y       z     vdW  Elec       q    Type
REMARK                         _______ _______ _______ _____ _____    ______ ____
ROOT
ATOM      1  C   UNL     1       0.971  -2.772   4.573  0.00  0.00    +0.258 C 
ATOM      2  O   UNL     1       1.425  -3.861   4.291  0.00  0.00    -0.271 OA
ATOM      3  N   UNL     1       1.211  -2.235   5.786  0.00  0.00    -0.282 N 
ATOM      4  H   UNL     1       0.797  -1.394   6.035  0.00  0.00    +0.155 HD
ENDROOT
BRANCH   3   5
ATOM      5  C   UNL     1       2.058  -2.891   6.686  0.00  0.00    +0.048 A 
ATOM      6  C   UNL     1       2.087  -4.279   6.730  0.00  0.00    +0.025 A 
ATOM      7  C   UNL     1       2.924  -4.923   7.619  0.00  0.00    +0.006 A 
ATOM      8  C   UNL     1       3.733  -4.189   8.467  0.00  0.00    -0.041 A 
ATOM      9  C   UNL     1       3.707  -2.807   8.427  0.00  0.00    +0.021 A 
ATOM     10  C   UNL     1       2.877  -2.156   7.535  0.00  0.00    +0.039 A 
ATOM     11 BR   UNL     1       2.847  -0.266   7.475  0.00  0.00    -0.048 Br
BRANCH   8  12
ATOM     12  C   UNL     1       4.645  -4.896   9.436  0.00  0.00    -0.013 C 
ATOM     13  C   UNL     1       5.624  -5.781   8.662  0.00  0.00    +0.015 C 
ATOM     14  C   UNL     1       5.425  -3.862  10.250  0.00  0.00    +0.015 C 
ATOM     15  C   UNL     1       3.810  -5.764  10.380  0.00  0.00    +0.015 C 
ENDBRANCH   8  12
ENDBRANCH   3   5
BRANCH   1  16
ATOM     16  C   UNL     1       0.140  -2.019   3.567  0.00  0.00    +0.256 C 
ATOM     17  C   UNL     1      -1.256  -1.769   4.143  0.00  0.00    +0.062 C 
BRANCH  16  18
ATOM     18  O   UNL     1       0.029  -2.789   2.368  0.00  0.00    -0.480 OA
BRANCH  18  24
ATOM     19  C   UNL     1      -0.226   1.483   0.022  0.00  0.00    +0.044 C 
ATOM     20  C   UNL     1      -0.147  -0.022   0.013  0.00  0.00    -0.047 A 
ATOM     21  C   UNL     1      -0.128  -0.705  -1.189  0.00  0.00    +0.007 A 
ATOM     22  C   UNL     1      -0.055  -2.086  -1.200  0.00  0.00    -0.047 A 
ATOM     23  C   UNL     1      -0.002  -2.786  -0.011  0.00  0.00    +0.049 A 
ATOM     24  C   UNL     1      -0.022  -2.102   1.196  0.00  0.00    +0.122 A 
ATOM     25  C   UNL     1      -0.090  -0.717   1.205  0.00  0.00    +0.049 A 
ATOM     26  C   UNL     1      -0.033  -2.828  -2.512  0.00  0.00    +0.044 C 
ENDBRANCH  18  24
ENDBRANCH  16  18
ENDBRANCH   1  16
TORSDOF 5
