REMARK  Name = ZINC36026859
REMARK  7 active torsions:
REMARK  status: ('A' for Active; 'I' for Inactive)
REMARK    1  A    between atoms: C_1  and  C_2
REMARK    2  A    between atoms: N_6  and  C_24
REMARK    3  A    between atoms: N_11  and  C_14
REMARK    4  A    between atoms: C_14  and  N_16
REMARK    5  A    between atoms: N_16  and  C_17
REMARK    6  A    between atoms: C_24  and  C_26
REMARK    7  A    between atoms: C_24  and  C_27
REMARK                            x       y       z     vdW  Elec       q    Type
REMARK                         _______ _______ _______ _____ _____    ______ ____
ROOT
ATOM      1  C   UNL     1      -2.419  -0.385   6.492  0.00  0.00    -0.004 C 
ATOM      2  C   UNL     1      -1.397  -0.410   5.354  0.00  0.00    +0.016 C 
ATOM      3  C   UNL     1      -2.087  -0.219   4.021  0.00  0.00    +0.201 C 
ATOM      4  O   UNL     1      -2.481   0.837   3.573  0.00  0.00    -0.277 OA
ATOM      5  N   UNL     1      -2.191  -1.420   3.416  0.00  0.00    -0.307 N 
ATOM      6  C   UNL     1      -1.605  -2.452   4.275  0.00  0.00    +0.007 C 
ATOM      7  N   UNL     1      -0.758  -1.746   5.263  0.00  0.00    +0.401 N 
ATOM      8  C   UNL     1      -2.706  -3.225   4.998  0.00  0.00    +0.025 C 
ATOM      9  C   UNL     1      -3.600  -3.921   3.966  0.00  0.00    +0.107 C 
ATOM     10  N   UNL     1      -2.756  -4.738   3.085  0.00  0.00    -0.312 N 
ATOM     11  C   UNL     1      -1.622  -4.101   2.401  0.00  0.00    +0.107 C 
ATOM     12  C   UNL     1      -0.745  -3.405   3.446  0.00  0.00    +0.025 C 
ATOM     13  H   UNL     1       0.190  -1.665   4.928  0.00  0.00    -0.082 HD
ATOM     14  H   UNL     1      -0.783  -2.214   6.157  0.00  0.00    -0.082 HD
ENDROOT
BRANCH  10  15
ATOM     15  C   UNL     1      -3.017  -6.048   2.906  0.00  0.00    +0.137 C 
ATOM     16  S   UNL     1      -4.413  -6.747   3.610  0.00  0.00    -0.018 S 
BRANCH  15  17
ATOM     17  N   UNL     1      -2.180  -6.809   2.173  0.00  0.00    -0.295 N 
ATOM     18  H   UNL     1      -1.536  -7.385   2.614  0.00  0.00    +0.154 HD
BRANCH  17  19
ATOM     19  C   UNL     1      -2.239  -6.767   0.774  0.00  0.00    +0.068 A 
ATOM     20  C   UNL     1      -3.087  -5.869   0.141  0.00  0.00    +0.026 A 
ATOM     21  C   UNL     1      -3.143  -5.830  -1.239  0.00  0.00    +0.002 A 
ATOM     22  C   UNL     1      -2.356  -6.684  -1.990  0.00  0.00    +0.003 A 
ATOM     23  C   UNL     1      -1.510  -7.580  -1.363  0.00  0.00    +0.040 A 
ATOM     24  C   UNL     1      -1.445  -7.621   0.018  0.00  0.00    +0.144 A 
ATOM     25  F   UNL     1      -0.614  -8.493   0.630  0.00  0.00    -0.204 F 
ENDBRANCH  17  19
ENDBRANCH  15  17
ENDBRANCH  10  15
BRANCH   5  26
ATOM     26  C   UNL     1      -2.795  -1.656   2.103  0.00  0.00    +0.101 C 
ATOM     27  C   UNL     1      -1.759  -1.388   1.009  0.00  0.00    +0.033 C 
BRANCH  26  28
ATOM     28  C   UNL     1      -3.971  -0.732   1.917  0.00  0.00    -0.027 A 
ATOM     29  C   UNL     1      -4.201  -0.144   0.688  0.00  0.00    +0.005 A 
ATOM     30  C   UNL     1      -5.280   0.703   0.518  0.00  0.00    +0.000 A 
ATOM     31  C   UNL     1      -6.129   0.962   1.578  0.00  0.00    +0.000 A 
ATOM     32  C   UNL     1      -5.900   0.373   2.807  0.00  0.00    +0.000 A 
ATOM     33  C   UNL     1      -4.823  -0.478   2.976  0.00  0.00    +0.005 A 
ENDBRANCH  26  28
ENDBRANCH   5  26
TORSDOF 5
