REMARK  Name = ZINC13685683
REMARK  4 active torsions:
REMARK  status: ('A' for Active; 'I' for Inactive)
REMARK    1  A    between atoms: C_4  and  C_7
REMARK    2  A    between atoms: C_11  and  C_14
REMARK    3  A    between atoms: N_17  and  C_18
REMARK    4  A    between atoms: N_23  and  C_26
REMARK                            x       y       z     vdW  Elec       q    Type
REMARK                         _______ _______ _______ _____ _____    ______ ____
ROOT
ATOM      1  C   UNL     1      -0.226  -0.991  -1.785  0.00  0.00    +0.082 C 
ATOM      2  C   UNL     1      -0.333  -3.004  -2.834  0.00  0.00    +0.132 C 
ATOM      3  C   UNL     1       1.147  -2.584  -2.741  0.00  0.00    +0.128 C 
ATOM      4  N   UNL     1       1.091  -1.281  -2.058  0.00  0.00    -0.306 N 
ATOM      5  N   UNL     1      -1.066  -1.901  -2.191  0.00  0.00    -0.374 N 
ATOM      6  H   UNL     1      -2.085  -1.856  -2.079  0.00  0.00    +0.161 HD
ENDROOT
BRANCH   1  11
ATOM      7  C   UNL     1      -3.152   2.452   0.168  0.00  0.00    +0.015 C 
ATOM      8  C   UNL     1      -2.015   1.828  -0.200  0.00  0.00    -0.004 C 
ATOM      9  C   UNL     1      -0.607   2.326   0.039  0.00  0.00    +0.040 C 
ATOM     10  C   UNL     1       0.297   1.240  -0.569  0.00  0.00    +0.023 C 
ATOM     11  C   UNL     1      -0.636   0.195  -1.126  0.00  0.00    +0.121 C 
ATOM     12  C   UNL     1      -1.922   0.552  -0.901  0.00  0.00    +0.169 C 
ATOM     13  O   UNL     1      -2.993  -0.187  -1.280  0.00  0.00    -0.292 OA
BRANCH   7  17
ATOM     14  C   UNL     1      -2.989   6.345   1.843  0.00  0.00    +0.000 A 
ATOM     15  C   UNL     1      -4.014   6.012   0.975  0.00  0.00    +0.001 A 
ATOM     16  C   UNL     1      -4.074   4.749   0.426  0.00  0.00    +0.008 A 
ATOM     17  C   UNL     1      -3.096   3.803   0.749  0.00  0.00    -0.025 A 
ATOM     18  C   UNL     1      -2.067   4.145   1.632  0.00  0.00    +0.008 A 
ATOM     19  C   UNL     1      -2.017   5.415   2.167  0.00  0.00    +0.001 A 
ENDBRANCH   7  17
ENDBRANCH   1  11
BRANCH   4  20
ATOM     20  C   UNL     1       2.241  -0.438  -1.723  0.00  0.00    +0.170 C 
ATOM     21  C   UNL     1       2.916   0.095  -3.003  0.00  0.00    +0.128 C 
ATOM     22  C   UNL     1       4.313  -0.481  -2.934  0.00  0.00    +0.228 C 
ATOM     23  O   UNL     1       5.186  -0.306  -3.757  0.00  0.00    -0.275 OA
ATOM     24  N   UNL     1       4.433  -1.214  -1.821  0.00  0.00    -0.209 N 
ATOM     25  C   UNL     1       3.329  -1.260  -1.065  0.00  0.00    +0.247 C 
ATOM     26  O   UNL     1       3.218  -1.862  -0.019  0.00  0.00    -0.273 OA
BRANCH  24  27
ATOM     27  C   UNL     1       5.617  -1.881  -1.475  0.00  0.00    +0.044 A 
ATOM     28  C   UNL     1       5.833  -3.183  -1.903  0.00  0.00    +0.024 A 
ATOM     29  C   UNL     1       7.003  -3.835  -1.565  0.00  0.00    +0.002 A 
ATOM     30  C   UNL     1       7.953  -3.196  -0.791  0.00  0.00    +0.000 A 
ATOM     31  C   UNL     1       7.739  -1.900  -0.358  0.00  0.00    +0.002 A 
ATOM     32  C   UNL     1       6.573  -1.241  -0.698  0.00  0.00    +0.024 A 
ENDBRANCH  24  27
ENDBRANCH   4  20
TORSDOF 4
