REMARK  Name = ZINC45344265
REMARK  6 active torsions:
REMARK  status: ('A' for Active; 'I' for Inactive)
REMARK    1  A    between atoms: C_4  and  C_7
REMARK    2  A    between atoms: N_9  and  N_26
REMARK    3  A    between atoms: C_10  and  S_12
REMARK    4  A    between atoms: S_12  and  C_13
REMARK    5  A    between atoms: C_13  and  C_14
REMARK    6  A    between atoms: N_16  and  C_17
REMARK                            x       y       z     vdW  Elec       q    Type
REMARK                         _______ _______ _______ _____ _____    ______ ____
ROOT
ATOM      1  S   UNL     1       6.970   0.941   2.435  0.00  0.00    -0.077 S 
ENDROOT
BRANCH   1   5
ATOM      2  C   UNL     1       3.244   0.742   1.345  0.00  0.00    +0.092 A 
ATOM      3  C   UNL     1       3.136   0.137   2.554  0.00  0.00    +0.138 A 
ATOM      4  N   UNL     1       4.395   0.117   3.104  0.00  0.00    -0.251 N 
ATOM      5  C   UNL     1       5.237   0.710   2.214  0.00  0.00    +0.187 A 
ATOM      6  N   UNL     1       4.546   1.078   1.161  0.00  0.00    -0.221 NA
BRANCH   2  10
ATOM      7  C   UNL     1       0.069   1.444  -1.393  0.00  0.00    +0.000 A 
ATOM      8  C   UNL     1       1.354   1.843  -1.712  0.00  0.00    +0.001 A 
ATOM      9  C   UNL     1       2.389   1.618  -0.827  0.00  0.00    +0.010 A 
ATOM     10  C   UNL     1       2.136   0.987   0.390  0.00  0.00    +0.002 A 
ATOM     11  C   UNL     1       0.839   0.588   0.706  0.00  0.00    +0.010 A 
ATOM     12  C   UNL     1      -0.188   0.819  -0.186  0.00  0.00    +0.001 A 
ENDBRANCH   2  10
BRANCH   4  13
ATOM     13  N   UNL     1       4.739  -0.404   4.319  0.00  0.00    -0.296 N 
ATOM     14  H   UNL     1       4.993  -1.377   4.238  0.00  0.00    +0.163 HD
ATOM     15  H   UNL     1       5.483   0.130   4.744  0.00  0.00    +0.163 HD
ENDBRANCH   4  13
ENDBRANCH   1   5
BRANCH   1  16
ATOM     16  C   UNL     1       7.499   1.778   0.915  0.00  0.00    +0.173 C 
BRANCH  16  17
ATOM     17  C   UNL     1       8.982   2.038   0.976  0.00  0.00    +0.228 C 
ATOM     18  O   UNL     1       9.620   1.692   1.948  0.00  0.00    -0.275 OA
ATOM     19  N   UNL     1       9.601   2.654  -0.051  0.00  0.00    -0.282 N 
ATOM     20  H   UNL     1       9.107   2.865  -0.859  0.00  0.00    +0.155 HD
BRANCH  19  21
ATOM     21  C   UNL     1      10.959   2.989   0.048  0.00  0.00    +0.083 A 
ATOM     22  C   UNL     1      11.933   2.053  -0.282  0.00  0.00    +0.148 A 
ATOM     23  C   UNL     1      13.271   2.386  -0.184  0.00  0.00    +0.078 A 
ATOM     24  C   UNL     1      13.641   3.651   0.243  0.00  0.00    +0.127 A 
ATOM     25  C   UNL     1      12.672   4.583   0.573  0.00  0.00    +0.055 A 
ATOM     26  C   UNL     1      11.333   4.257   0.470  0.00  0.00    +0.045 A 
ATOM     27 BR   UNL     1      10.011   5.535   0.911  0.00  0.00    -0.048 Br
ATOM     28  F   UNL     1      14.949   3.974   0.339  0.00  0.00    -0.205 F 
ATOM     29  F   UNL     1      11.572   0.819  -0.698  0.00  0.00    -0.203 F 
ENDBRANCH  19  21
ENDBRANCH  16  17
ENDBRANCH   1  16
TORSDOF 6
