REMARK  Name = ZINC00753143
REMARK  9 active torsions:
REMARK  status: ('A' for Active; 'I' for Inactive)
REMARK    1  A    between atoms: C_1  and  C_2
REMARK    2  A    between atoms: C_2  and  C_3
REMARK    3  A    between atoms: C_4  and  C_23
REMARK    4  A    between atoms: C_8  and  C_16
REMARK    5  A    between atoms: C_17  and  C_21
REMARK    6  A    between atoms: C_18  and  N_20
REMARK    7  A    between atoms: C_23  and  O_25
REMARK    8  A    between atoms: O_25  and  C_26
REMARK    9  A    between atoms: C_26  and  C_27
REMARK                            x       y       z     vdW  Elec       q    Type
REMARK                         _______ _______ _______ _____ _____    ______ ____
ROOT
ATOM      1  C   UNL     1      -0.269   1.379  -4.727  0.00  0.00    +0.119 C 
ATOM      2  C   UNL     1      -0.902   1.525  -3.555  0.00  0.00    +0.099 C 
ATOM      3  C   UNL     1      -2.204   2.267  -3.473  0.00  0.00    +0.148 C 
ATOM      4  C   UNL     1      -3.349   1.305  -3.280  0.00  0.00    -0.001 A 
ATOM      5  C   UNL     1      -3.844   0.267  -4.039  0.00  0.00    +0.011 A 
ATOM      6  C   UNL     1      -4.935  -0.457  -3.593  0.00  0.00    -0.036 A 
ATOM      7  C   UNL     1      -5.527  -0.135  -2.384  0.00  0.00    +0.023 A 
ATOM      8  C   UNL     1      -5.033   0.905  -1.621  0.00  0.00    +0.039 A 
ATOM      9  C   UNL     1      -3.934   1.638  -2.064  0.00  0.00    +0.039 A 
ATOM     10  N   UNL     1      -3.262   2.714  -1.484  0.00  0.00    -0.284 N 
ATOM     11  C   UNL     1      -2.237   3.142  -2.243  0.00  0.00    +0.238 C 
ATOM     12  O   UNL     1      -1.482   4.057  -1.987  0.00  0.00    -0.274 OA
ATOM     13 BR   UNL     1      -7.019  -1.123  -1.774  0.00  0.00    -0.050 Br
ATOM     14  C   UNL     1      -5.478  -1.592  -4.421  0.00  0.00    +0.045 C 
ATOM     15  C   UNL     1      -2.413   3.097  -4.709  0.00  0.00    +0.110 C 
ATOM     16  C   UNL     1      -1.682   2.858  -5.827  0.00  0.00    +0.199 C 
ATOM     17  O   UNL     1      -0.757   1.883  -5.870  0.00  0.00    -0.445 OA
ATOM     18  H   UNL     1      -3.505   3.108  -0.631  0.00  0.00    +0.155 HD
ENDROOT
BRANCH  16  19
ATOM     19  N   UNL     1      -1.893   3.630  -6.942  0.00  0.00    -0.328 N 
ATOM     20  H   UNL     1      -1.377   3.469  -7.748  0.00  0.00    +0.145 HD
ATOM     21  H   UNL     1      -2.557   4.336  -6.924  0.00  0.00    +0.145 HD
ENDBRANCH  16  19
BRANCH   1  23
ATOM     22  C   UNL     1       0.763  -0.847  -5.088  0.00  0.00    +0.012 C 
ATOM     23  C   UNL     1       1.035   0.623  -4.762  0.00  0.00    +0.071 C 
ENDBRANCH   1  23
BRANCH  15  24
ATOM     24  C   UNL     1      -3.391   4.143  -4.709  0.00  0.00    +0.102 C 
ATOM     25  N   UNL     1      -4.167   4.972  -4.709  0.00  0.00    -0.191 NA
ENDBRANCH  15  24
BRANCH   2  26
ATOM     26  C   UNL     1      -0.339   0.967  -2.381  0.00  0.00    +0.340 C 
ATOM     27  O   UNL     1      -0.764  -0.086  -1.943  0.00  0.00    -0.245 OA
BRANCH  26  28
ATOM     28  O   UNL     1       0.668   1.604  -1.747  0.00  0.00    -0.462 OA
BRANCH  28  29
ATOM     29  C   UNL     1       1.188   0.984  -0.569  0.00  0.00    +0.229 C 
ATOM     30  C   UNL     1       2.314   1.845   0.005  0.00  0.00    +0.048 C 
ENDBRANCH  28  29
ENDBRANCH  26  28
ENDBRANCH   2  26
TORSDOF 6
