REMARK  Name = ZINC00930997
REMARK  8 active torsions:
REMARK  status: ('A' for Active; 'I' for Inactive)
REMARK    1  A    between atoms: C_1  and  C_2
REMARK    2  A    between atoms: N_4  and  C_5
REMARK    3  A    between atoms: C_9  and  N_11
REMARK    4  A    between atoms: N_11  and  C_12
REMARK    5  A    between atoms: C_12  and  C_14
REMARK    6  A    between atoms: C_12  and  C_19
REMARK    7  A    between atoms: N_21  and  C_22
REMARK    8  A    between atoms: C_28  and  C_30
REMARK                            x       y       z     vdW  Elec       q    Type
REMARK                         _______ _______ _______ _____ _____    ______ ____
ROOT
ATOM      1  N   UNL     1      -2.089   0.765   0.591  0.00  0.00    -0.252 N 
ATOM      2  C   UNL     1      -2.653   1.972   0.385  0.00  0.00    +0.265 C 
ATOM      3  O   UNL     1      -1.954   2.954   0.252  0.00  0.00    -0.271 OA
ENDROOT
BRANCH   2   4
ATOM      4  C   UNL     1      -4.153   2.100   0.319  0.00  0.00    +0.296 C 
ATOM      5  C   UNL     1      -4.670   1.474  -0.984  0.00  0.00    +0.283 C 
ATOM      6  O   UNL     1      -6.093   1.625  -1.020  0.00  0.00    -0.484 OA
ATOM      7  C   UNL     1      -6.586   2.853  -0.699  0.00  0.00    +0.162 A 
ATOM      8  C   UNL     1      -7.888   3.176  -1.050  0.00  0.00    +0.049 A 
ATOM      9  C   UNL     1      -8.405   4.416  -0.726  0.00  0.00    +0.004 A 
ATOM     10  C   UNL     1      -7.626   5.338  -0.051  0.00  0.00    +0.004 A 
ATOM     11  C   UNL     1      -6.327   5.022   0.301  0.00  0.00    +0.049 A 
ATOM     12  C   UNL     1      -5.802   3.780  -0.023  0.00  0.00    +0.163 A 
ATOM     13  O   UNL     1      -4.520   3.484   0.327  0.00  0.00    -0.472 OA
ENDBRANCH   2   4
BRANCH   1  18
ATOM     14  C   UNL     1       1.426   1.707   1.147  0.00  0.00    +0.035 A 
ATOM     15  C   UNL     1       2.028   0.456   1.185  0.00  0.00    +0.023 A 
ATOM     16  C   UNL     1       1.263  -0.685   1.030  0.00  0.00    +0.004 A 
ATOM     17  C   UNL     1      -0.101  -0.584   0.837  0.00  0.00    +0.023 A 
ATOM     18  C   UNL     1      -0.708   0.664   0.792  0.00  0.00    +0.039 A 
ATOM     19  C   UNL     1       0.056   1.812   0.953  0.00  0.00    +0.046 A 
BRANCH  14  23
ATOM     20  C   UNL     1       4.018   4.132   2.400  0.00  0.00    +0.109 C 
ATOM     21  C   UNL     1       3.249   2.860   2.150  0.00  0.00    +0.214 C 
ATOM     22  O   UNL     1       3.575   1.835   2.710  0.00  0.00    -0.276 OA
ATOM     23  N   UNL     1       2.201   2.862   1.303  0.00  0.00    -0.286 N 
ATOM     24  H   UNL     1       1.984   3.663   0.802  0.00  0.00    +0.155 HD
ENDBRANCH  14  23
ENDBRANCH   1  18
BRANCH   1  25
ATOM     25  C   UNL     1      -2.921  -0.440   0.605  0.00  0.00    +0.204 C 
BRANCH  25  26
ATOM     26  C   UNL     1      -2.558  -1.314  -0.568  0.00  0.00    +0.019 A 
ATOM     27  C   UNL     1      -3.275  -2.311  -1.144  0.00  0.00    +0.013 A 
ATOM     28  C   UNL     1      -2.737  -2.985  -2.224  0.00  0.00    +0.008 A 
ATOM     29  C   UNL     1      -1.509  -2.630  -2.676  0.00  0.00    +0.045 A 
ATOM     30  S   UNL     1      -1.077  -1.301  -1.565  0.00  0.00    -0.099 S 
ENDBRANCH  25  26
BRANCH  25  31
ATOM     31  C   UNL     1      -2.688  -1.197   1.886  0.00  0.00    +0.239 C 
ATOM     32  O   UNL     1      -1.903  -0.772   2.708  0.00  0.00    -0.273 OA
ATOM     33  N   UNL     1      -3.350  -2.348   2.120  0.00  0.00    -0.311 N 
ATOM     34  H   UNL     1      -3.978  -2.688   1.463  0.00  0.00    +0.149 HD
BRANCH  33  35
ATOM     35  C   UNL     1      -3.123  -3.083   3.366  0.00  0.00    +0.073 C 
ATOM     36  C   UNL     1      -1.902  -3.991   3.207  0.00  0.00    +0.022 C 
ATOM     37  C   UNL     1      -1.665  -4.760   4.509  0.00  0.00    +0.002 C 
ATOM     38  C   UNL     1      -2.895  -5.612   4.829  0.00  0.00    +0.000 C 
ATOM     39  C   UNL     1      -4.116  -4.704   4.988  0.00  0.00    +0.002 C 
ATOM     40  C   UNL     1      -4.353  -3.935   3.687  0.00  0.00    +0.022 C 
ENDBRANCH  33  35
ENDBRANCH  25  31
ENDBRANCH   1  25
TORSDOF 7
