REMARK  Name = ZINC00715184
REMARK  5 active torsions:
REMARK  status: ('A' for Active; 'I' for Inactive)
REMARK    1  A    between atoms: C_1  and  C_2
REMARK    2  A    between atoms: C_3  and  C_18
REMARK    3  A    between atoms: C_4  and  C_10
REMARK    4  A    between atoms: C_18  and  O_20
REMARK    5  A    between atoms: O_20  and  C_21
REMARK                            x       y       z     vdW  Elec       q    Type
REMARK                         _______ _______ _______ _____ _____    ______ ____
ROOT
ATOM      1  C   UNL     1      -2.754  -1.041   5.753  0.00  0.00    +0.061 C 
ATOM      2  C   UNL     1      -3.418   0.311   5.827  0.00  0.00    +0.021 C 
ATOM      3  C   UNL     1      -3.208   1.209   4.840  0.00  0.00    +0.078 C 
ATOM      4  C   UNL     1      -3.899   2.553   4.951  0.00  0.00    +0.144 C 
ATOM      5  N   UNL     1      -4.744   2.772   6.137  0.00  0.00    -0.288 N 
ATOM      6  C   UNL     1      -4.851   1.779   7.042  0.00  0.00    +0.304 C 
ATOM      7  O   UNL     1      -5.547   1.950   8.024  0.00  0.00    -0.252 OA
ATOM      8  N   UNL     1      -4.217   0.609   6.893  0.00  0.00    -0.273 N 
ATOM      9  H   UNL     1      -5.213   3.612   6.264  0.00  0.00    +0.151 HD
ATOM     10  H   UNL     1      -4.335  -0.066   7.580  0.00  0.00    +0.156 HD
ENDROOT
BRANCH   4  11
ATOM     11  C   UNL     1      -4.760   2.735   3.728  0.00  0.00    -0.021 A 
ATOM     12  C   UNL     1      -5.995   2.117   3.653  0.00  0.00    +0.007 A 
ATOM     13  C   UNL     1      -6.787   2.287   2.533  0.00  0.00    +0.022 A 
ATOM     14  C   UNL     1      -6.340   3.068   1.482  0.00  0.00    +0.059 A 
ATOM     15  C   UNL     1      -5.101   3.682   1.555  0.00  0.00    +0.060 A 
ATOM     16  C   UNL     1      -4.312   3.515   2.678  0.00  0.00    +0.027 A 
ATOM     17 CL   UNL     1      -4.539   4.662   0.236  0.00  0.00    -0.082 Cl
ATOM     18 CL   UNL     1      -7.332   3.276   0.072  0.00  0.00    -0.082 Cl
ENDBRANCH   4  11
BRANCH   3  19
ATOM     19  C   UNL     1      -2.376   0.903   3.738  0.00  0.00    +0.339 C 
ATOM     20  O   UNL     1      -1.746  -0.138   3.721  0.00  0.00    -0.245 OA
BRANCH  19  21
ATOM     21  O   UNL     1      -2.282   1.766   2.704  0.00  0.00    -0.458 OA
BRANCH  21  22
ATOM     22  C   UNL     1      -1.423   1.393   1.625  0.00  0.00    +0.177 C 
ATOM     23  C   UNL     1      -0.011   1.918   1.891  0.00  0.00    +0.044 C 
ATOM     24  C   UNL     1       0.908   1.519   0.734  0.00  0.00    +0.004 C 
ATOM     25  C   UNL     1       0.378   2.119  -0.569  0.00  0.00    +0.000 C 
ATOM     26  C   UNL     1      -1.034   1.593  -0.835  0.00  0.00    +0.004 C 
ATOM     27  C   UNL     1      -1.954   1.992   0.321  0.00  0.00    +0.044 C 
ENDBRANCH  21  22
ENDBRANCH  19  21
ENDBRANCH   3  19
TORSDOF 4
