REMARK  Name = ZINC58989699
REMARK  7 active torsions:
REMARK  status: ('A' for Active; 'I' for Inactive)
REMARK    1  A    between atoms: C_5  and  C_7
REMARK    2  A    between atoms: C_10  and  S_13
REMARK    3  A    between atoms: N_11  and  N_12
REMARK    4  A    between atoms: S_13  and  C_14
REMARK    5  A    between atoms: C_14  and  C_15
REMARK    6  A    between atoms: N_17  and  N_18
REMARK    7  A    between atoms: C_19  and  C_20
REMARK                            x       y       z     vdW  Elec       q    Type
REMARK                         _______ _______ _______ _____ _____    ______ ____
ROOT
ATOM      1  S   UNL     1      -0.260  -5.764  -0.032  0.00  0.00    -0.075 S 
ENDROOT
BRANCH   1   5
ATOM      2  C   UNL     1       1.249  -2.160  -0.021  0.00  0.00    +0.183 A 
ATOM      3  N   UNL     1       2.319  -2.921  -0.030  0.00  0.00    -0.127 NA
ATOM      4  N   UNL     1       1.977  -4.160  -0.035  0.00  0.00    -0.121 NA
ATOM      5  C   UNL     1       0.667  -4.266  -0.029  0.00  0.00    +0.209 A 
ATOM      6  N   UNL     1       0.158  -2.999  -0.015  0.00  0.00    -0.224 N 
BRANCH   2  11
ATOM      7  C   UNL     1      -0.017   1.375   0.010  0.00  0.00    +0.001 A 
ATOM      8  C   UNL     1       1.170   2.087   0.002  0.00  0.00    +0.001 A 
ATOM      9  C   UNL     1       2.383   1.421  -0.013  0.00  0.00    +0.016 A 
ATOM     10  C   UNL     1       2.416   0.041  -0.021  0.00  0.00    +0.029 A 
ATOM     11  C   UNL     1       1.222  -0.682  -0.013  0.00  0.00    +0.035 A 
ATOM     12  C   UNL     1       0.002  -0.004   0.002  0.00  0.00    +0.013 A 
ATOM     13 BR   UNL     1       4.075  -0.867  -0.043  0.00  0.00    -0.050 Br
ENDBRANCH   2  11
BRANCH   6  14
ATOM     14  N   UNL     1      -1.159  -2.638  -0.001  0.00  0.00    -0.295 N 
ATOM     15  H   UNL     1      -1.517  -2.538  -0.939  0.00  0.00    +0.163 HD
ATOM     16  H   UNL     1      -1.709  -3.299   0.528  0.00  0.00    +0.163 HD
ENDBRANCH   6  14
ENDBRANCH   1   5
BRANCH   1  17
ATOM     17  C   UNL     1       1.006  -7.064  -0.044  0.00  0.00    +0.174 C 
BRANCH  17  18
ATOM     18  C   UNL     1       0.339  -8.415  -0.047  0.00  0.00    +0.242 C 
ATOM     19  O   UNL     1      -0.871  -8.494  -0.042  0.00  0.00    -0.273 OA
ATOM     20  N   UNL     1       1.088  -9.536  -0.056  0.00  0.00    -0.206 N 
ATOM     21  H   UNL     1       2.055  -9.473  -0.060  0.00  0.00    +0.177 HD
BRANCH  20  22
ATOM     22  N   UNL     1       0.468 -10.792  -0.059  0.00  0.00    -0.188 NA
ATOM     23  C   UNL     1       1.188 -11.871  -0.067  0.00  0.00    +0.139 C 
BRANCH  23  24
ATOM     24  C   UNL     1       0.535 -13.194  -0.070  0.00  0.00    +0.014 A 
ATOM     25  C   UNL     1       1.308 -14.358  -0.074  0.00  0.00    +0.011 A 
ATOM     26  C   UNL     1       0.692 -15.591  -0.077  0.00  0.00    +0.002 A 
ATOM     27  C   UNL     1      -0.689 -15.680  -0.077  0.00  0.00    +0.021 A 
ATOM     28  C   UNL     1      -1.463 -14.531  -0.074  0.00  0.00    +0.060 A 
ATOM     29  C   UNL     1      -0.859 -13.288  -0.065  0.00  0.00    +0.068 A 
ATOM     30 CL   UNL     1      -1.829 -11.849  -0.053  0.00  0.00    -0.081 Cl
ATOM     31 CL   UNL     1      -3.195 -14.653  -0.075  0.00  0.00    -0.082 Cl
ENDBRANCH  23  24
ENDBRANCH  20  22
ENDBRANCH  17  18
ENDBRANCH   1  17
TORSDOF 7
