REMARK  Name = ZINC09497865
REMARK  11 active torsions:
REMARK  status: ('A' for Active; 'I' for Inactive)
REMARK    1  A    between atoms: C_1  and  C_2
REMARK    2  A    between atoms: C_5  and  S_8
REMARK    3  A    between atoms: S_8  and  C_9
REMARK    4  A    between atoms: C_9  and  C_10
REMARK    5  A    between atoms: C_11  and  C_21
REMARK    6  A    between atoms: N_23  and  N_24
REMARK    7  A    between atoms: C_25  and  C_26
REMARK    8  A    between atoms: C_29  and  O_32
REMARK    9  A    between atoms: O_32  and  C_33
REMARK   10  A    between atoms: C_33  and  C_34
REMARK   11  A    between atoms: C_33  and  C_35
REMARK                            x       y       z     vdW  Elec       q    Type
REMARK                         _______ _______ _______ _____ _____    ______ ____
ROOT
ATOM      1  C   UNL     1       2.462   3.727  -0.015  0.00  0.00    +0.089 A 
ATOM      2  C   UNL     1       2.322   4.543  -1.101  0.00  0.00    +0.173 A 
ATOM      3  N   UNL     1       2.225   5.813  -0.670  0.00  0.00    -0.124 NA
ATOM      4  N   UNL     1       2.303   5.841   0.614  0.00  0.00    -0.058 NA
ATOM      5  N   UNL     1       2.455   4.526   1.076  0.00  0.00    -0.191 N 
ATOM      6  C   UNL     1       2.577   4.118   2.409  0.00  0.00    +0.240 A 
ATOM      7  C   UNL     1       2.568   5.000   3.580  0.00  0.00    +0.206 A 
ATOM      8  N   UNL     1       2.704   4.264   4.649  0.00  0.00    -0.032 NA
ATOM      9  O   UNL     1       2.805   2.913   4.236  0.00  0.00    -0.239 OA
ATOM     10  N   UNL     1       2.712   2.890   2.822  0.00  0.00    -0.027 NA
ATOM     11  N   UNL     1       2.438   6.384   3.556  0.00  0.00    -0.337 N 
ATOM     12  H   UNL     1       2.342   6.847   2.709  0.00  0.00    +0.144 HD
ATOM     13  H   UNL     1       2.443   6.886   4.386  0.00  0.00    +0.144 HD
ENDROOT
BRANCH   2  14
ATOM     14  C   UNL     1       2.281   4.105  -2.509  0.00  0.00    +0.285 C 
ATOM     15  O   UNL     1       2.376   2.923  -2.781  0.00  0.00    -0.267 OA
ATOM     16  N   UNL     1       2.139   5.014  -3.494  0.00  0.00    -0.202 N 
ATOM     17  H   UNL     1       2.064   5.956  -3.277  0.00  0.00    +0.178 HD
BRANCH  16  18
ATOM     18  N   UNL     1       2.101   4.597  -4.831  0.00  0.00    -0.187 NA
ATOM     19  C   UNL     1       1.964   5.473  -5.780  0.00  0.00    +0.138 C 
BRANCH  19  20
ATOM     20  C   UNL     1       1.923   5.035  -7.186  0.00  0.00    -0.005 A 
ATOM     21  C   UNL     1       2.038   3.678  -7.502  0.00  0.00    +0.013 A 
ATOM     22  C   UNL     1       1.995   3.272  -8.818  0.00  0.00    +0.046 A 
ATOM     23  C   UNL     1       1.848   4.211  -9.832  0.00  0.00    +0.121 A 
ATOM     24  C   UNL     1       1.739   5.561  -9.523  0.00  0.00    +0.046 A 
ATOM     25  C   UNL     1       1.776   5.975  -8.210  0.00  0.00    +0.013 A 
BRANCH  23  26
ATOM     26  O   UNL     1       1.812   3.807 -11.128  0.00  0.00    -0.489 OA
BRANCH  26  27
ATOM     27  C   UNL     1       1.781   4.830 -12.125  0.00  0.00    +0.167 C 
ATOM     28  C   UNL     1       2.353   4.283 -13.435  0.00  0.00    +0.051 C 
ATOM     29  C   UNL     1       0.336   5.281 -12.348  0.00  0.00    +0.051 C 
ENDBRANCH  26  27
ENDBRANCH  23  26
ENDBRANCH  19  20
ENDBRANCH  16  18
ENDBRANCH   2  14
BRANCH   1  30
ATOM     30  C   UNL     1       2.602   2.227  -0.029  0.00  0.00    +0.132 C 
BRANCH  30  31
ATOM     31  S   UNL     1       0.959   1.465   0.072  0.00  0.00    -0.119 S 
BRANCH  31  36
ATOM     32  C   UNL     1       2.089  -4.463  -0.024  0.00  0.00    +0.044 C 
ATOM     33  C   UNL     1       1.807  -2.983   0.000  0.00  0.00    -0.050 A 
ATOM     34  C   UNL     1       0.502  -2.531   0.085  0.00  0.00    +0.004 A 
ATOM     35  C   UNL     1       0.240  -1.175   0.107  0.00  0.00    +0.015 A 
ATOM     36  C   UNL     1       1.288  -0.265   0.044  0.00  0.00    +0.008 A 
ATOM     37  C   UNL     1       2.597  -0.724  -0.047  0.00  0.00    +0.015 A 
ATOM     38  C   UNL     1       2.853  -2.080  -0.062  0.00  0.00    +0.004 A 
ENDBRANCH  31  36
ENDBRANCH  30  31
ENDBRANCH   1  30
TORSDOF 8
