REMARK  Name = ZINC02387918
REMARK  4 active torsions:
REMARK  status: ('A' for Active; 'I' for Inactive)
REMARK    1  A    between atoms: N_10  and  C_11
REMARK    2  A    between atoms: C_11  and  C_12
REMARK    3  A    between atoms: C_13  and  C_23
REMARK    4  A    between atoms: N_25  and  N_26
REMARK                            x       y       z     vdW  Elec       q    Type
REMARK                         _______ _______ _______ _____ _____    ______ ____
ROOT
ATOM      1  C   UNL     1       5.534   0.528   0.921  0.00  0.00    +0.096 A 
ATOM      2  C   UNL     1       5.290   1.677   1.620  0.00  0.00    +0.174 A 
ATOM      3  N   UNL     1       6.066   1.680   2.718  0.00  0.00    -0.124 NA
ATOM      4  N   UNL     1       6.777   0.607   2.747  0.00  0.00    -0.058 NA
ATOM      5  N   UNL     1       6.464  -0.162   1.617  0.00  0.00    -0.190 N 
ATOM      6  C   UNL     1       7.011  -1.404   1.275  0.00  0.00    +0.240 A 
ATOM      7  C   UNL     1       8.015  -2.141   2.047  0.00  0.00    +0.206 A 
ATOM      8  N   UNL     1       8.280  -3.253   1.419  0.00  0.00    -0.032 NA
ATOM      9  O   UNL     1       7.486  -3.290   0.247  0.00  0.00    -0.239 OA
ATOM     10  N   UNL     1       6.709  -2.105   0.219  0.00  0.00    -0.027 NA
ATOM     11  N   UNL     1       8.588  -1.725   3.244  0.00  0.00    -0.337 N 
ATOM     12  H   UNL     1       8.327  -0.878   3.638  0.00  0.00    +0.144 HD
ATOM     13  H   UNL     1       9.248  -2.283   3.685  0.00  0.00    +0.144 HD
ENDROOT
BRANCH   2  14
ATOM     14  C   UNL     1       4.337   2.734   1.235  0.00  0.00    +0.285 C 
ATOM     15  O   UNL     1       3.611   2.577   0.273  0.00  0.00    -0.267 OA
ATOM     16  N   UNL     1       4.272   3.875   1.950  0.00  0.00    -0.201 N 
ATOM     17  H   UNL     1       4.852   4.001   2.717  0.00  0.00    +0.178 HD
BRANCH  16  18
ATOM     18  N   UNL     1       3.367   4.880   1.584  0.00  0.00    -0.174 NA
ATOM     19  C   UNL     1       3.304   5.990   2.279  0.00  0.00    +0.153 C 
ATOM     20  C   UNL     1       2.412   7.150   2.047  0.00  0.00    +0.028 A 
ATOM     21  C   UNL     1       1.433   7.424   1.099  0.00  0.00    +0.012 A 
ATOM     22  C   UNL     1       0.754   8.625   1.142  0.00  0.00    +0.001 A 
ATOM     23  C   UNL     1       1.049   9.553   2.126  0.00  0.00    +0.002 A 
ATOM     24  C   UNL     1       2.019   9.291   3.072  0.00  0.00    +0.024 A 
ATOM     25  C   UNL     1       2.713   8.086   3.045  0.00  0.00    +0.043 A 
ATOM     26  N   UNL     1       3.718   7.580   3.861  0.00  0.00    -0.280 N 
ATOM     27  C   UNL     1       4.101   6.354   3.467  0.00  0.00    +0.269 C 
ATOM     28  O   UNL     1       4.955   5.666   3.995  0.00  0.00    -0.268 OA
ATOM     29  H   UNL     1       4.093   8.051   4.622  0.00  0.00    +0.155 HD
ENDBRANCH  16  18
ENDBRANCH   2  14
BRANCH   1  30
ATOM     30  C   UNL     1       4.887   0.110  -0.374  0.00  0.00    +0.163 C 
BRANCH  30  40
ATOM     31  C   UNL     1       3.872   3.854  -3.617  0.00  0.00    +0.000 A 
ATOM     32  C   UNL     1       3.106   3.093  -2.753  0.00  0.00    +0.002 A 
ATOM     33  C   UNL     1       3.685   2.054  -2.054  0.00  0.00    +0.023 A 
ATOM     34  C   UNL     1       5.037   1.771  -2.219  0.00  0.00    +0.033 A 
ATOM     35  C   UNL     1       5.803   2.532  -3.088  0.00  0.00    -0.026 A 
ATOM     36  C   UNL     1       5.214   3.575  -3.784  0.00  0.00    +0.005 A 
ATOM     37  C   UNL     1       7.266   2.249  -3.300  0.00  0.00    +0.038 C 
ATOM     38  C   UNL     1       7.832   1.446  -2.129  0.00  0.00    +0.024 C 
ATOM     39  C   UNL     1       6.935   0.226  -1.885  0.00  0.00    +0.106 C 
ATOM     40  N   UNL     1       5.605   0.716  -1.498  0.00  0.00    -0.324 N 
ENDBRANCH  30  40
ENDBRANCH   1  30
TORSDOF 4
