REMARK  Name = ZINC24506322
REMARK  7 active torsions:
REMARK  status: ('A' for Active; 'I' for Inactive)
REMARK    1  A    between atoms: C_1  and  C_2
REMARK    2  A    between atoms: C_3  and  N_9
REMARK    3  A    between atoms: C_13  and  S_15
REMARK    4  A    between atoms: S_15  and  C_16
REMARK    5  A    between atoms: C_16  and  C_17
REMARK    6  A    between atoms: N_27  and  C_28
REMARK    7  A    between atoms: C_28  and  C_29
REMARK                            x       y       z     vdW  Elec       q    Type
REMARK                         _______ _______ _______ _____ _____    ______ ____
ROOT
ATOM      1  C   UNL     1      -2.011   0.617   2.507  0.00  0.00    +0.150 C 
ENDROOT
BRANCH   1   2
ATOM      2  C   UNL     1      -2.609   0.088   1.229  0.00  0.00    +0.124 A 
ATOM      3  N   UNL     1      -3.736  -0.554   1.296  0.00  0.00    -0.233 NA
ATOM      4  C   UNL     1      -4.334  -1.058   0.188  0.00  0.00    +0.078 A 
ATOM      5  C   UNL     1      -5.545  -1.748   0.259  0.00  0.00    +0.028 A 
ATOM      6  C   UNL     1      -6.117  -2.243  -0.892  0.00  0.00    +0.002 A 
ATOM      7  C   UNL     1      -5.503  -2.064  -2.125  0.00  0.00    +0.001 A 
ATOM      8  C   UNL     1      -4.307  -1.387  -2.220  0.00  0.00    +0.015 A 
ATOM      9  C   UNL     1      -3.712  -0.879  -1.068  0.00  0.00    +0.065 A 
ATOM     10  C   UNL     1      -2.440  -0.142  -1.109  0.00  0.00    +0.262 A 
ATOM     11  O   UNL     1      -1.855   0.052  -2.159  0.00  0.00    -0.267 OA
ATOM     12  N   UNL     1      -1.942   0.308   0.066  0.00  0.00    -0.287 N 
BRANCH  12  13
ATOM     13  C   UNL     1      -0.675   1.043   0.084  0.00  0.00    +0.222 C 
BRANCH  13  14
ATOM     14  C   UNL     1       0.465   0.075   0.265  0.00  0.00    +0.230 C 
ATOM     15  O   UNL     1       0.242  -1.113   0.368  0.00  0.00    -0.274 OA
ATOM     16  N   UNL     1       1.734   0.528   0.305  0.00  0.00    -0.328 N 
ATOM     17  H   UNL     1       2.567  -0.179   0.437  0.00  0.00    +0.145 HD
ATOM     18  H   UNL     1       1.937   1.605   0.206  0.00  0.00    +0.145 HD
ENDBRANCH  13  14
ENDBRANCH  12  13
ENDBRANCH   1   2
BRANCH   1  19
ATOM     19  S   UNL     1      -3.091   0.192   3.902  0.00  0.00    -0.089 S 
BRANCH  19  24
ATOM     20  N   UNL     1      -1.059   2.096   8.987  0.00  0.00    -0.292 N 
ATOM     21  C   UNL     1      -1.345   1.742   7.674  0.00  0.00    +0.187 A 
ATOM     22  N   UNL     1      -0.657   1.983   6.575  0.00  0.00    -0.125 NA
ATOM     23  N   UNL     1      -1.128   1.537   5.361  0.00  0.00    -0.133 NA
ATOM     24  C   UNL     1      -2.265   0.871   5.302  0.00  0.00    +0.160 A 
ATOM     25  S   UNL     1      -2.747   0.846   7.022  0.00  0.00    -0.024 S 
ATOM     26  H   UNL     1      -1.696   1.730   9.807  0.00  0.00    +0.154 HD
BRANCH  20  29
ATOM     27  C   UNL     1      -0.300   2.441  11.708  0.00  0.00    +0.047 C 
ATOM     28  C   UNL     1       0.441   3.113  10.581  0.00  0.00    -0.011 A 
ATOM     29  C   UNL     1       0.036   2.917   9.267  0.00  0.00    +0.037 A 
ATOM     30  C   UNL     1       0.727   3.533   8.231  0.00  0.00    +0.023 A 
ATOM     31  C   UNL     1       1.806   4.349   8.511  0.00  0.00    +0.003 A 
ATOM     32  C   UNL     1       2.207   4.543   9.819  0.00  0.00    +0.020 A 
ATOM     33  C   UNL     1       1.525   3.926  10.854  0.00  0.00    +0.046 A 
ATOM     34 CL   UNL     1       2.032   4.173  12.496  0.00  0.00    -0.083 Cl
ENDBRANCH  20  29
ENDBRANCH  19  24
ENDBRANCH   1  19
TORSDOF 6
