REMARK  Name = ZINC17702331
REMARK  7 active torsions:
REMARK  status: ('A' for Active; 'I' for Inactive)
REMARK    1  A    between atoms: C_3  and  C_6
REMARK    2  A    between atoms: C_6  and  C_8
REMARK    3  A    between atoms: C_6  and  N_66
REMARK    4  A    between atoms: C_8  and  N_9
REMARK    5  A    between atoms: C_10  and  C_12
REMARK    6  A    between atoms: N_15  and  S_18
REMARK    7  A    between atoms: S_18  and  C_21
REMARK                            x       y       z     vdW  Elec       q    Type
REMARK                         _______ _______ _______ _____ _____    ______ ____
ROOT
ATOM      1  C   UNL     1       6.107   1.729  -3.329  0.00  0.00    +0.077 C 
ATOM      2  C   UNL     1       6.848   2.785  -2.506  0.00  0.00    +0.030 C 
ATOM      3  C   UNL     1       8.352   2.675  -2.776  0.00  0.00    +0.110 C 
ATOM      4  N   UNL     1       8.581   2.769  -4.224  0.00  0.00    -0.177 NA
ATOM      5  C   UNL     1       7.848   1.860  -5.115  0.00  0.00    +0.110 C 
ATOM      6  C   UNL     1       6.350   1.979  -4.819  0.00  0.00    +0.030 C 
ENDROOT
BRANCH   1   8
ATOM      7  N   UNL     1       4.178   1.624  -1.785  0.00  0.00    -0.316 N 
ATOM      8  C   UNL     1       4.630   1.812  -3.041  0.00  0.00    +0.216 C 
ATOM      9  O   UNL     1       3.849   2.048  -3.938  0.00  0.00    -0.276 OA
ATOM     10  H   UNL     1       4.802   1.436  -1.067  0.00  0.00    +0.149 HD
BRANCH   7  11
ATOM     11  C   UNL     1       2.742   1.705  -1.504  0.00  0.00    +0.096 C 
BRANCH  11  12
ATOM     12  C   UNL     1       2.499   1.455  -0.015  0.00  0.00    +0.016 C 
BRANCH  12  17
ATOM     13  C   UNL     1       3.075   3.795   0.337  0.00  0.00    -0.078 C 
ATOM     14  C   UNL     1       3.544   4.630   1.555  0.00  0.00    -0.020 C 
ATOM     15  C   UNL     1       3.077   3.779   2.759  0.00  0.00    -0.020 C 
ATOM     16  C   UNL     1       2.918   2.352   2.204  0.00  0.00    -0.078 C 
ATOM     17  N   UNL     1       3.308   2.416   0.795  0.00  0.00    +0.387 N 
ATOM     18  H   UNL     1       4.303   2.182   0.700  0.00  0.00    -0.081 HD
ENDBRANCH  12  17
BRANCH  12  21
ATOM     19  C   UNL     1      -1.095   1.321   0.793  0.00  0.00    +0.041 A 
ATOM     20  C   UNL     1       0.149   0.687   0.569  0.00  0.00    +0.043 A 
ATOM     21  C   UNL     1       1.038   1.659   0.297  0.00  0.00    +0.093 A 
ATOM     22  O   UNL     1       0.404   2.842   0.349  0.00  0.00    -0.469 OA
ATOM     23  C   UNL     1      -0.889   2.643   0.653  0.00  0.00    +0.195 A 
ENDBRANCH  12  21
ENDBRANCH  11  12
ENDBRANCH   7  11
ENDBRANCH   1   8
BRANCH   4  24
ATOM     24  S   UNL     1       9.644   3.880  -4.839  0.00  0.00    +0.061 S 
ATOM     25  O   UNL     1      10.560   4.186  -3.797  0.00  0.00    -0.153 OA
ATOM     26  O   UNL     1      10.065   3.382  -6.102  0.00  0.00    -0.153 OA
BRANCH  24  27
ATOM     27  C   UNL     1       8.732   5.354  -5.157  0.00  0.00    +0.106 A 
ATOM     28  C   UNL     1       8.613   6.318  -4.174  0.00  0.00    +0.029 A 
ATOM     29  C   UNL     1       7.898   7.473  -4.426  0.00  0.00    +0.006 A 
ATOM     30  C   UNL     1       7.300   7.668  -5.660  0.00  0.00    -0.044 A 
ATOM     31  C   UNL     1       7.420   6.704  -6.642  0.00  0.00    -0.042 A 
ATOM     32  C   UNL     1       8.142   5.549  -6.390  0.00  0.00    +0.032 A 
ATOM     33  C   UNL     1       6.685   7.149  -7.888  0.00  0.00    +0.036 C 
ATOM     34  C   UNL     1       6.476   8.668  -7.713  0.00  0.00    +0.009 C 
ATOM     35  C   UNL     1       6.477   8.828  -6.178  0.00  0.00    +0.036 C 
ENDBRANCH  24  27
ENDBRANCH   4  24
TORSDOF 7
