REMARK  Name = ZINC40155508
REMARK  9 active torsions:
REMARK  status: ('A' for Active; 'I' for Inactive)
REMARK    1  A    between atoms: C_1  and  O_2
REMARK    2  A    between atoms: O_2  and  C_3
REMARK    3  A    between atoms: C_3  and  C_5
REMARK    4  A    between atoms: C_5  and  N_6
REMARK    5  A    between atoms: N_6  and  C_7
REMARK    6  A    between atoms: N_6  and  C_27
REMARK    7  A    between atoms: C_7  and  N_8
REMARK    8  A    between atoms: C_11  and  C_15
REMARK    9  A    between atoms: C_11  and  C_21
REMARK                            x       y       z     vdW  Elec       q    Type
REMARK                         _______ _______ _______ _____ _____    ______ ____
ROOT
ATOM      1  N   UNL     1       2.808  -3.630  -3.679  0.00  0.00    -0.210 N 
ATOM      2  C   UNL     1       3.069  -3.519  -4.996  0.00  0.00    +0.257 C 
ATOM      3  O   UNL     1       2.267  -3.525  -5.905  0.00  0.00    -0.272 OA
ATOM      4  C   UNL     1       4.575  -3.383  -5.105  0.00  0.00    +0.164 C 
ATOM      5  N   UNL     1       5.030  -3.439  -3.705  0.00  0.00    -0.278 N 
ATOM      6  C   UNL     1       3.927  -3.579  -2.948  0.00  0.00    +0.311 C 
ATOM      7  O   UNL     1       3.946  -3.655  -1.735  0.00  0.00    -0.252 OA
ATOM      8  H   UNL     1       5.946  -3.383  -3.391  0.00  0.00    +0.152 HD
ENDROOT
BRANCH   4   9
ATOM      9  C   UNL     1       4.944  -2.063  -5.731  0.00  0.00    -0.011 A 
ATOM     10  C   UNL     1       5.878  -1.246  -5.120  0.00  0.00    +0.006 A 
ATOM     11  C   UNL     1       6.217  -0.035  -5.694  0.00  0.00    +0.000 A 
ATOM     12  C   UNL     1       5.623   0.359  -6.878  0.00  0.00    +0.000 A 
ATOM     13  C   UNL     1       4.690  -0.458  -7.489  0.00  0.00    +0.000 A 
ATOM     14  C   UNL     1       4.354  -1.671  -6.918  0.00  0.00    +0.006 A 
ENDBRANCH   4   9
BRANCH   4  15
ATOM     15  C   UNL     1       5.154  -4.527  -5.897  0.00  0.00    -0.011 A 
ATOM     16  C   UNL     1       6.115  -5.343  -5.330  0.00  0.00    +0.006 A 
ATOM     17  C   UNL     1       6.646  -6.393  -6.057  0.00  0.00    +0.000 A 
ATOM     18  C   UNL     1       6.217  -6.626  -7.350  0.00  0.00    +0.000 A 
ATOM     19  C   UNL     1       5.255  -5.810  -7.916  0.00  0.00    +0.000 A 
ATOM     20  C   UNL     1       4.721  -4.764  -7.188  0.00  0.00    +0.006 A 
ENDBRANCH   4  15
BRANCH   1  21
ATOM     21  C   UNL     1       1.464  -3.782  -3.116  0.00  0.00    +0.205 C 
BRANCH  21  22
ATOM     22  N   UNL     1       1.067  -2.534  -2.451  0.00  0.00    -0.272 NA
BRANCH  22  23
ATOM     23  C   UNL     1       0.674  -1.515  -3.433  0.00  0.00    +0.081 C 
ATOM     24  C   UNL     1      -0.256  -2.141  -4.486  0.00  0.00    +0.043 C 
ATOM     25  C   UNL     1      -0.416  -1.179  -5.687  0.00  0.00    +0.167 C 
ATOM     26  S   UNL     1       1.167  -0.244  -5.670  0.00  0.00    -0.029 S 
ATOM     27  O   UNL     1       0.891   1.129  -5.429  0.00  0.00    -0.174 OA
ATOM     28  O   UNL     1       1.935  -0.614  -6.807  0.00  0.00    -0.174 OA
ATOM     29  C   UNL     1       1.936  -0.974  -4.163  0.00  0.00    +0.184 C 
ENDBRANCH  22  23
BRANCH  22  30
ATOM     30  C   UNL     1      -0.009  -2.773  -1.481  0.00  0.00    +0.207 C 
BRANCH  30  31
ATOM     31  C   UNL     1      -0.097  -1.608  -0.529  0.00  0.00    +0.321 C 
ATOM     32  O   UNL     1       0.722  -0.721  -0.584  0.00  0.00    -0.249 OA
BRANCH  31  34
ATOM     33  C   UNL     1      -1.105  -0.422   1.249  0.00  0.00    +0.280 C 
ATOM     34  O   UNL     1      -1.083  -1.556   0.379  0.00  0.00    -0.467 OA
ENDBRANCH  31  34
ENDBRANCH  30  31
ENDBRANCH  22  30
ENDBRANCH  21  22
ENDBRANCH   1  21
TORSDOF 8
