REMARK  Name = ZINC13635257
REMARK  8 active torsions:
REMARK  status: ('A' for Active; 'I' for Inactive)
REMARK    1  A    between atoms: C_1  and  C_2
REMARK    2  A    between atoms: C_5  and  N_9
REMARK    3  A    between atoms: C_6  and  C_8
REMARK    4  A    between atoms: N_9  and  S_10
REMARK    5  A    between atoms: S_10  and  C_13
REMARK    6  A    between atoms: C_26  and  C_29
REMARK    7  A    between atoms: C_32  and  O_35
REMARK    8  A    between atoms: O_35  and  C_36
REMARK                            x       y       z     vdW  Elec       q    Type
REMARK                         _______ _______ _______ _____ _____    ______ ____
ROOT
ATOM      1  C   UNL     1      -7.521   0.284  -0.949  0.00  0.00    +0.109 A 
ATOM      2  C   UNL     1      -7.090   0.978  -2.065  0.00  0.00    +0.030 A 
ATOM      3  C   UNL     1      -5.764   1.350  -2.169  0.00  0.00    +0.025 A 
ATOM      4  C   UNL     1      -4.870   1.028  -1.156  0.00  0.00    +0.031 A 
ATOM      5  C   UNL     1      -5.298   0.334  -0.034  0.00  0.00    -0.018 A 
ATOM      6  C   UNL     1      -6.634  -0.035   0.058  0.00  0.00    +0.034 A 
ATOM      7  C   UNL     1      -4.374  -0.031   1.083  0.00  0.00    +0.049 C 
ATOM      8  C   UNL     1      -4.029  -1.501   1.054  0.00  0.00    -0.023 C 
ATOM      9  C   UNL     1      -2.784  -1.683   1.421  0.00  0.00    -0.030 C 
ATOM     10  C   UNL     1      -2.128  -0.356   1.750  0.00  0.00    +0.033 C 
ATOM     11  C   UNL     1      -3.010   0.681   0.993  0.00  0.00    +0.029 C 
ATOM     12  C   UNL     1      -2.531   0.710  -0.462  0.00  0.00    +0.105 C 
ATOM     13  N   UNL     1      -3.530   1.409  -1.277  0.00  0.00    -0.336 N 
ATOM     14  H   UNL     1      -3.267   2.119  -1.884  0.00  0.00    +0.147 HD
ENDROOT
BRANCH  12  15
ATOM     15  C   UNL     1      -1.213   1.436  -0.545  0.00  0.00    -0.027 A 
ATOM     16  C   UNL     1      -0.034   0.720  -0.632  0.00  0.00    +0.009 A 
ATOM     17  C   UNL     1       1.175   1.383  -0.715  0.00  0.00    +0.046 A 
ATOM     18  C   UNL     1       1.205   2.770  -0.704  0.00  0.00    +0.120 A 
ATOM     19  C   UNL     1       0.021   3.487  -0.610  0.00  0.00    +0.046 A 
ATOM     20  C   UNL     1      -1.185   2.819  -0.527  0.00  0.00    +0.009 A 
BRANCH  18  21
ATOM     21  O   UNL     1       2.393   3.425  -0.785  0.00  0.00    -0.495 OA
ATOM     22  C   UNL     1       2.349   4.854  -0.768  0.00  0.00    +0.277 C 
ENDBRANCH  18  21
ENDBRANCH  12  15
BRANCH   1  23
ATOM     23  S   UNL     1      -9.211  -0.195  -0.813  0.00  0.00    +0.072 S 
ATOM     24  O   UNL     1      -9.724  -0.256  -2.137  0.00  0.00    -0.150 OA
ATOM     25  O   UNL     1      -9.248  -1.308   0.070  0.00  0.00    -0.150 OA
BRANCH  23  26
ATOM     26  N   UNL     1     -10.011   1.040  -0.052  0.00  0.00    -0.216 N 
ATOM     27  H   UNL     1     -10.459   0.879   0.793  0.00  0.00    +0.174 HD
BRANCH  26  32
ATOM     28  C   UNL     1     -10.131   6.206  -2.387  0.00  0.00    +0.044 C 
ATOM     29  C   UNL     1     -10.098   4.833  -1.767  0.00  0.00    -0.050 A 
ATOM     30  C   UNL     1     -10.136   3.710  -2.573  0.00  0.00    +0.005 A 
ATOM     31  C   UNL     1     -10.107   2.451  -2.008  0.00  0.00    +0.025 A 
ATOM     32  C   UNL     1     -10.040   2.312  -0.627  0.00  0.00    +0.051 A 
ATOM     33  C   UNL     1     -10.007   3.442   0.180  0.00  0.00    -0.028 A 
ATOM     34  C   UNL     1     -10.032   4.699  -0.392  0.00  0.00    +0.008 A 
ATOM     35  C   UNL     1      -9.941   3.296   1.679  0.00  0.00    +0.046 C 
ENDBRANCH  26  32
ENDBRANCH  23  26
ENDBRANCH   1  23
TORSDOF 5
