REMARK  Name = ZINC43227030
REMARK  9 active torsions:
REMARK  status: ('A' for Active; 'I' for Inactive)
REMARK    1  A    between atoms: C_4  and  C_7
REMARK    2  A    between atoms: C_7  and  O_8
REMARK    3  A    between atoms: O_8  and  C_9
REMARK    4  A    between atoms: C_9  and  C_11
REMARK    5  A    between atoms: C_11  and  C_13
REMARK    6  A    between atoms: C_11  and  N_24
REMARK    7  A    between atoms: C_13  and  C_14
REMARK    8  A    between atoms: C_25  and  C_27
REMARK    9  A    between atoms: C_30  and  C_32
REMARK                            x       y       z     vdW  Elec       q    Type
REMARK                         _______ _______ _______ _____ _____    ______ ____
ROOT
ATOM      1  C   UNL     1       5.821  -1.885   2.850  0.00  0.00    +0.186 C 
ENDROOT
BRANCH   1   2
ATOM      2  N   UNL     1       7.097  -2.599   2.757  0.00  0.00    -0.297 N 
ATOM      3  C   UNL     1       7.503  -3.390   3.770  0.00  0.00    +0.264 C 
ATOM      4  O   UNL     1       6.809  -3.511   4.762  0.00  0.00    -0.268 OA
ATOM      5  H   UNL     1       7.650  -2.502   1.966  0.00  0.00    +0.150 HD
BRANCH   3   6
ATOM      6  C   UNL     1       8.785  -4.107   3.676  0.00  0.00    +0.133 A 
ATOM      7  C   UNL     1       9.233  -4.926   4.678  0.00  0.00    +0.079 A 
ATOM      8  S   UNL     1      10.701  -5.472   4.070  0.00  0.00    -0.081 S 
ATOM      9  C   UNL     1      10.702  -4.666   2.598  0.00  0.00    +0.065 A 
ATOM     10  N   UNL     1       9.578  -4.003   2.604  0.00  0.00    -0.241 NA
BRANCH   9  11
ATOM     11  C   UNL     1      11.753  -4.703   1.518  0.00  0.00    -0.015 C 
ATOM     12  C   UNL     1      11.699  -6.058   0.781  0.00  0.00    -0.011 C 
ATOM     13  C   UNL     1      13.196  -6.376   0.526  0.00  0.00    -0.020 C 
ATOM     14  C   UNL     1      13.859  -5.811   1.807  0.00  0.00    -0.082 C 
ATOM     15  N   UNL     1      13.094  -4.581   2.118  0.00  0.00    +0.385 N 
ATOM     16  H   UNL     1      13.567  -3.778   1.732  0.00  0.00    -0.085 HD
ATOM     17  H   UNL     1      13.010  -4.477   3.118  0.00  0.00    -0.085 HD
ENDBRANCH   9  11
ENDBRANCH   3   6
ENDBRANCH   1   2
BRANCH   1  18
ATOM     18  C   UNL     1       5.304  -1.597   1.464  0.00  0.00    +0.328 C 
ATOM     19  O   UNL     1       5.936  -1.951   0.498  0.00  0.00    -0.249 OA
BRANCH  18  20
ATOM     20  O   UNL     1       4.141  -0.946   1.304  0.00  0.00    -0.459 OA
BRANCH  20  21
ATOM     21  C   UNL     1       3.711  -0.707  -0.038  0.00  0.00    +0.267 C 
BRANCH  21  25
ATOM     22  C   UNL     1      -0.017   1.378   0.010  0.00  0.00    +0.000 A 
ATOM     23  C   UNL     1       1.171   2.086   0.002  0.00  0.00    +0.000 A 
ATOM     24  C   UNL     1       2.377   1.411  -0.013  0.00  0.00    +0.007 A 
ATOM     25  C   UNL     1       2.396   0.029  -0.020  0.00  0.00    -0.010 A 
ATOM     26  C   UNL     1       1.208  -0.679  -0.012  0.00  0.00    +0.007 A 
ATOM     27  C   UNL     1       0.002  -0.004   0.002  0.00  0.00    +0.000 A 
ENDBRANCH  21  25
ENDBRANCH  20  21
ENDBRANCH  18  20
ENDBRANCH   1  18
BRANCH   1  28
ATOM     28  C   UNL     1       6.028  -0.568   3.602  0.00  0.00    +0.071 C 
BRANCH  28  29
ATOM     29  C   UNL     1       6.427  -0.860   5.025  0.00  0.00    -0.020 A 
ATOM     30  C   UNL     1       5.607  -0.930   6.086  0.00  0.00    +0.087 A 
ATOM     31  N   UNL     1       6.327  -1.214   7.214  0.00  0.00    -0.360 N 
ATOM     32  H   UNL     1       5.953  -1.315   8.104  0.00  0.00    +0.165 HD
ATOM     33  C   UNL     1       7.662  -1.336   6.899  0.00  0.00    +0.047 A 
ATOM     34  C   UNL     1       7.782  -1.125   5.513  0.00  0.00    +0.003 A 
ATOM     35  C   UNL     1       9.037  -1.194   4.904  0.00  0.00    +0.010 A 
ATOM     36  C   UNL     1      10.143  -1.470   5.659  0.00  0.00    +0.001 A 
ATOM     37  C   UNL     1      10.029  -1.682   7.025  0.00  0.00    +0.002 A 
ATOM     38  C   UNL     1       8.802  -1.610   7.648  0.00  0.00    +0.026 A 
ENDBRANCH  28  29
ENDBRANCH   1  28
TORSDOF 9
