REMARK  Name = ZINC22716511
REMARK  10 active torsions:
REMARK  status: ('A' for Active; 'I' for Inactive)
REMARK    1  A    between atoms: C_1  and  C_2
REMARK    2  A    between atoms: C_7  and  O_8
REMARK    3  A    between atoms: O_8  and  C_9
REMARK    4  A    between atoms: C_9  and  C_10
REMARK    5  A    between atoms: C_13  and  S_21
REMARK    6  A    between atoms: N_14  and  C_15
REMARK    7  A    between atoms: S_21  and  C_22
REMARK    8  A    between atoms: C_22  and  C_23
REMARK    9  A    between atoms: N_25  and  C_26
REMARK   10  A    between atoms: C_31  and  N_32
REMARK                            x       y       z     vdW  Elec       q    Type
REMARK                         _______ _______ _______ _____ _____    ______ ____
ROOT
ATOM      1  C   UNL     1      -1.807   2.813   1.061  0.00  0.00    +0.176 A 
ATOM      2  N   UNL     1      -2.970   3.247   0.663  0.00  0.00    -0.130 NA
ATOM      3  N   UNL     1      -3.234   2.794  -0.510  0.00  0.00    -0.122 NA
ATOM      4  C   UNL     1      -2.243   2.044  -0.933  0.00  0.00    +0.197 A 
ATOM      5  N   UNL     1      -1.301   2.027   0.059  0.00  0.00    -0.271 N 
ENDROOT
BRANCH   5   6
ATOM      6  C   UNL     1      -0.073   1.351   0.050  0.00  0.00    +0.050 A 
ATOM      7  C   UNL     1       1.116   2.068   0.060  0.00  0.00    +0.026 A 
ATOM      8  C   UNL     1       2.324   1.399   0.045  0.00  0.00    +0.002 A 
ATOM      9  C   UNL     1       2.351   0.017   0.021  0.00  0.00    +0.000 A 
ATOM     10  C   UNL     1       1.169  -0.700   0.012  0.00  0.00    +0.002 A 
ATOM     11  C   UNL     1      -0.043  -0.037   0.026  0.00  0.00    +0.026 A 
ENDBRANCH   5   6
BRANCH   1  12
ATOM     12  C   UNL     1      -1.141   3.120   2.377  0.00  0.00    +0.305 C 
BRANCH  12  13
ATOM     13  O   UNL     1      -0.341   4.296   2.244  0.00  0.00    -0.484 OA
BRANCH  13  20
ATOM     14  C   UNL     1       1.246   6.621   2.001  0.00  0.00    +0.047 C 
ATOM     15  C   UNL     1       1.127   5.849   3.289  0.00  0.00    -0.009 A 
ATOM     16  C   UNL     1       1.811   6.271   4.414  0.00  0.00    +0.007 A 
ATOM     17  C   UNL     1       1.703   5.563   5.596  0.00  0.00    +0.000 A 
ATOM     18  C   UNL     1       0.910   4.431   5.657  0.00  0.00    +0.004 A 
ATOM     19  C   UNL     1       0.221   4.008   4.538  0.00  0.00    +0.046 A 
ATOM     20  C   UNL     1       0.332   4.714   3.348  0.00  0.00    +0.124 A 
ENDBRANCH  13  20
ENDBRANCH  12  13
ENDBRANCH   1  12
BRANCH   4  21
ATOM     21  S   UNL     1      -2.145   1.214  -2.485  0.00  0.00    -0.076 S 
BRANCH  21  22
ATOM     22  C   UNL     1      -3.727   1.715  -3.209  0.00  0.00    +0.173 C 
BRANCH  22  23
ATOM     23  C   UNL     1      -3.867   1.105  -4.580  0.00  0.00    +0.228 C 
ATOM     24  O   UNL     1      -2.984   0.401  -5.024  0.00  0.00    -0.275 OA
ATOM     25  N   UNL     1      -4.973   1.342  -5.313  0.00  0.00    -0.283 N 
ATOM     26  H   UNL     1      -5.804   1.919  -4.883  0.00  0.00    +0.155 HD
BRANCH  25  27
ATOM     27  C   UNL     1      -5.063   0.852  -6.621  0.00  0.00    +0.064 A 
ATOM     28  C   UNL     1      -4.499  -0.374  -6.946  0.00  0.00    +0.025 A 
ATOM     29  C   UNL     1      -4.595  -0.857  -8.236  0.00  0.00    +0.002 A 
ATOM     30  C   UNL     1      -5.242  -0.115  -9.207  0.00  0.00    +0.002 A 
ATOM     31  C   UNL     1      -5.800   1.109  -8.888  0.00  0.00    +0.034 A 
ATOM     32  C   UNL     1      -5.712   1.595  -7.598  0.00  0.00    +0.147 A 
BRANCH  32  33
ATOM     33  N   UNL     1      -6.309   2.906  -7.258  0.00  0.00    +0.058 N 
ATOM     34  O   UNL     1      -6.964   3.511  -8.088  0.00  0.00    -0.126 OA
ATOM     35  O   UNL     1      -6.146   3.380  -6.148  0.00  0.00    -0.126 OA
ENDBRANCH  32  33
ENDBRANCH  25  27
ENDBRANCH  22  23
ENDBRANCH  21  22
ENDBRANCH   4  21
TORSDOF 9
