REMARK  Name = ZINC11616235
REMARK  6 active torsions:
REMARK  status: ('A' for Active; 'I' for Inactive)
REMARK    1  A    between atoms: C_1  and  C_2
REMARK    2  A    between atoms: C_2  and  C_24
REMARK    3  A    between atoms: CA_3  and  C_22
REMARK    4  A    between atoms: CA_9  and  N_13
REMARK    5  A    between atoms: C_14  and  C_16
REMARK    6  A    between atoms: C_16  and  N_44
REMARK                            x       y       z     vdW  Elec       q    Type
REMARK                         _______ _______ _______ _____ _____    ______ ____
ROOT
ATOM      1  N   UNL     1      -0.011   0.966   0.009  0.00  0.00    -0.303 N 
ATOM      2  C   UNL     1      -1.187   1.624   0.017  0.00  0.00    +0.202 C 
ATOM      3  O   UNL     1      -1.204   2.837   0.022  0.00  0.00    -0.277 OA
ATOM      4  H   UNL     1       0.002  -0.004   0.004  0.00  0.00    +0.149 HD
ENDROOT
BRANCH   1  11
ATOM      5  C   UNL     1       4.430  -1.834  -0.048  0.00  0.00    +0.025 C 
ATOM      6  C   UNL     1       2.964  -1.627   0.335  0.00  0.00    +0.042 C 
ATOM      7  CA  UNL     1       2.807  -0.525   1.420  0.00  0.00    +0.206 C 
ATOM      8  N   UNL     1       2.848   0.820   0.838  0.00  0.00    -0.271 N 
ATOM      9  C   UNL     1       2.419   0.925  -0.573  0.00  0.00    +0.165 C 
ATOM     10  S   UNL     1       2.014  -0.810  -1.025  0.00  0.00    -0.127 S 
ATOM     11  CA  UNL     1       1.248   1.716   0.001  0.00  0.00    +0.190 C 
ATOM     12  C   UNL     1       1.951   1.718   1.335  0.00  0.00    +0.240 C 
ATOM     13  O   UNL     1       1.788   2.279   2.398  0.00  0.00    -0.273 OA
ATOM     14  C   UNL     1       2.309  -2.940   0.768  0.00  0.00    +0.025 C 
BRANCH   7  15
ATOM     15  C   UNL     1       3.923  -0.661   2.423  0.00  0.00    +0.377 C 
ATOM     16  O   UNL     1       4.856   0.106   2.397  0.00  0.00    -0.244 OA
ATOM     17  OXT UNL     1       3.881  -1.635   3.347  0.00  0.00    -0.244 OA
ENDBRANCH   7  15
ENDBRANCH   1  11
BRANCH   2  18
ATOM     18  C   UNL     1      -2.482   0.853   0.018  0.00  0.00    +0.007 C 
ATOM     19  C   UNL     1      -3.616   1.759  -0.465  0.00  0.00    -0.004 C 
ATOM     20  C   UNL     1      -3.739   2.964   0.470  0.00  0.00    -0.001 C 
ATOM     21  C   UNL     1      -4.042   2.480   1.889  0.00  0.00    -0.000 C 
ATOM     22  C   UNL     1      -2.908   1.574   2.372  0.00  0.00    -0.001 C 
ATOM     23  C   UNL     1      -2.785   0.369   1.438  0.00  0.00    -0.004 C 
BRANCH  18  26
ATOM     24  H   UNL     1      -2.164  -0.011  -1.823  0.00  0.00    -0.089 HD
ATOM     25  H   UNL     1      -1.665  -0.951  -0.545  0.00  0.00    -0.089 HD
ATOM     26  N   UNL     1      -2.387  -0.314  -0.877  0.00  0.00    +0.388 N 
ATOM     27  H   UNL     1      -3.289  -0.806  -0.886  0.00  0.00    -0.089 HD
ENDBRANCH  18  26
ENDBRANCH   2  18
TORSDOF 4
