REMARK  Name = ZINC63796009
REMARK  9 active torsions:
REMARK  status: ('A' for Active; 'I' for Inactive)
REMARK    1  A    between atoms: C_1  and  C_2
REMARK    2  A    between atoms: C_4  and  C_19
REMARK    3  A    between atoms: C_7  and  N_10
REMARK    4  A    between atoms: N_10  and  C_11
REMARK    5  A    between atoms: C_16  and  C_18
REMARK    6  A    between atoms: C_25  and  C_27
REMARK    7  A    between atoms: C_27  and  C_28
REMARK    8  A    between atoms: C_27  and  C_29
REMARK    9  A    between atoms: C_27  and  C_30
REMARK                            x       y       z     vdW  Elec       q    Type
REMARK                         _______ _______ _______ _____ _____    ______ ____
ROOT
ATOM      1  C   UNL     1      -0.623   1.299  -0.158  0.00  0.00    +0.025 C 
ATOM      2  C   UNL     1      -0.257  -0.186  -0.164  0.00  0.00    +0.075 C 
ATOM      3  C   UNL     1      -1.554  -1.014  -0.028  0.00  0.00    +0.152 C 
ATOM      4  S   UNL     1      -1.156  -2.101   1.409  0.00  0.00    -0.108 S 
ATOM      5  C   UNL     1       0.673  -1.839   1.398  0.00  0.00    +0.205 C 
ATOM      6  N   UNL     1       0.715  -0.433   0.903  0.00  0.00    -0.286 NA
ATOM      7  H   UNL     1       1.647  -0.185   0.608  0.00  0.00    +0.125 HD
ENDROOT
BRANCH   3   8
ATOM      8  C   UNL     1      -2.732  -0.125   0.278  0.00  0.00    +0.233 C 
ATOM      9  O   UNL     1      -3.409   0.315  -0.626  0.00  0.00    -0.274 OA
ATOM     10  N   UNL     1      -3.032   0.180   1.556  0.00  0.00    -0.262 N 
ATOM     11  C   UNL     1      -4.119   1.001   1.837  0.00  0.00    +0.188 A 
ATOM     12  N   UNL     1      -4.971   1.567   1.006  0.00  0.00    -0.126 NA
ATOM     13  N   UNL     1      -5.919   2.295   1.414  0.00  0.00    -0.144 NA
ATOM     14  C   UNL     1      -6.062   2.495   2.709  0.00  0.00    +0.109 A 
ATOM     15  S   UNL     1      -4.696   1.525   3.332  0.00  0.00    -0.035 S 
ATOM     16  H   UNL     1      -2.490  -0.172   2.279  0.00  0.00    +0.157 HD
BRANCH  14  17
ATOM     17  C   UNL     1      -7.091   3.306   3.454  0.00  0.00    +0.013 C 
ATOM     18  C   UNL     1      -8.487   2.758   3.155  0.00  0.00    +0.018 C 
ATOM     19  C   UNL     1      -6.819   3.217   4.958  0.00  0.00    +0.018 C 
ATOM     20  C   UNL     1      -7.009   4.767   3.007  0.00  0.00    +0.018 C 
ENDBRANCH  14  17
ENDBRANCH   3   8
BRANCH   5  21
ATOM     21  N   UNL     1       1.236  -1.948   2.747  0.00  0.00    -0.274 N 
ATOM     22  C   UNL     1       1.467  -0.837   3.473  0.00  0.00    +0.214 C 
ATOM     23  O   UNL     1       1.130   0.247   3.045  0.00  0.00    -0.276 OA
ATOM     24  C   UNL     1       2.143  -0.940   4.815  0.00  0.00    +0.109 C 
BRANCH  21  25
ATOM     25  C   UNL     1       1.549  -3.266   3.305  0.00  0.00    +0.078 C 
ATOM     26  C   UNL     1       0.917  -3.409   4.706  0.00  0.00    +0.022 C 
ATOM     27  C   UNL     1       1.966  -4.213   5.514  0.00  0.00    +0.002 C 
ATOM     28  C   UNL     1       3.309  -3.640   4.999  0.00  0.00    +0.002 C 
ATOM     29  C   UNL     1       3.069  -3.412   3.492  0.00  0.00    +0.022 C 
ENDBRANCH  21  25
ENDBRANCH   5  21
TORSDOF 4
