REMARK  Name = ZINC59644868
REMARK  8 active torsions:
REMARK  status: ('A' for Active; 'I' for Inactive)
REMARK    1  A    between atoms: C_1  and  C_2
REMARK    2  A    between atoms: C_4  and  C_17
REMARK    3  A    between atoms: C_5  and  C_16
REMARK    4  A    between atoms: N_6  and  C_7
REMARK    5  A    between atoms: C_10  and  C_13
REMARK    6  A    between atoms: N_18  and  N_19
REMARK    7  A    between atoms: C_20  and  C_22
REMARK    8  A    between atoms: C_22  and  C_23
REMARK                            x       y       z     vdW  Elec       q    Type
REMARK                         _______ _______ _______ _____ _____    ______ ____
ROOT
ATOM      1  C   UNL     1      -0.018   1.503   0.010  0.00  0.00    +0.064 C 
ATOM      2  C   UNL     1       0.002  -0.004   0.002  0.00  0.00    +0.022 A 
ATOM      3  C   UNL     1       0.008  -0.780  -1.097  0.00  0.00    +0.032 A 
ATOM      4  C   UNL     1       0.029  -2.170  -0.628  0.00  0.00    +0.016 A 
ATOM      5  C   UNL     1       0.035  -2.114   0.736  0.00  0.00    +0.030 A 
ATOM      6  N   UNL     1       0.024  -0.805   1.109  0.00  0.00    -0.317 N 
ATOM      7  C   UNL     1       0.055  -3.298   1.668  0.00  0.00    +0.064 C 
ENDROOT
BRANCH   6   8
ATOM      8  C   UNL     1       0.030  -0.347   2.429  0.00  0.00    +0.047 A 
ATOM      9  C   UNL     1       1.137  -0.582   3.239  0.00  0.00    +0.027 A 
ATOM     10  C   UNL     1       1.147  -0.133   4.540  0.00  0.00    +0.017 A 
ATOM     11  C   UNL     1       0.043   0.559   5.048  0.00  0.00    +0.063 A 
ATOM     12  C   UNL     1      -1.068   0.793   4.230  0.00  0.00    +0.017 A 
ATOM     13  C   UNL     1      -1.068   0.346   2.928  0.00  0.00    +0.027 A 
BRANCH  11  14
ATOM     14  C   UNL     1       0.050   1.041   6.439  0.00  0.00    +0.387 C 
ATOM     15  O   UNL     1       1.021   0.835   7.153  0.00  0.00    -0.241 OA
ATOM     16  O   UNL     1      -0.917   1.647   6.882  0.00  0.00    -0.241 OA
ENDBRANCH  11  14
ENDBRANCH   6   8
BRANCH   4  17
ATOM     17  C   UNL     1       0.042  -3.384  -1.463  0.00  0.00    +0.140 C 
ATOM     18  N   UNL     1       0.061  -4.556  -0.905  0.00  0.00    -0.188 NA
BRANCH  18  19
ATOM     19  N   UNL     1       0.073  -5.710  -1.699  0.00  0.00    -0.207 N 
ATOM     20  C   UNL     1       0.092  -6.927  -1.119  0.00  0.00    +0.238 C 
ATOM     21  O   UNL     1       0.098  -7.022   0.091  0.00  0.00    -0.274 OA
ATOM     22  H   UNL     1       0.068  -5.634  -2.666  0.00  0.00    +0.177 HD
BRANCH  20  23
ATOM     23  C   UNL     1       0.105  -8.168  -1.973  0.00  0.00    +0.153 C 
BRANCH  23  24
ATOM     24  C   UNL     1       0.125  -9.387  -1.087  0.00  0.00    +0.059 A 
ATOM     25  C   UNL     1      -0.805 -10.364  -1.206  0.00  0.00    +0.072 A 
ATOM     26  S   UNL     1      -0.269 -11.494   0.068  0.00  0.00    -0.061 S 
ATOM     27  C   UNL     1       1.062 -10.618   0.610  0.00  0.00    +0.156 A 
ATOM     28  N   UNL     1       1.055  -9.553  -0.163  0.00  0.00    -0.230 NA
ATOM     29  N   UNL     1       1.953 -10.943   1.621  0.00  0.00    -0.338 N 
ATOM     30  H   UNL     1       1.845 -11.771   2.115  0.00  0.00    +0.144 HD
ATOM     31  H   UNL     1       2.684 -10.343   1.835  0.00  0.00    +0.144 HD
ENDBRANCH  23  24
ENDBRANCH  20  23
ENDBRANCH  18  19
ENDBRANCH   4  17
TORSDOF 6
