REMARK  Name = ZINC32144110
REMARK  7 active torsions:
REMARK  status: ('A' for Active; 'I' for Inactive)
REMARK    1  A    between atoms: C_1  and  C_2
REMARK    2  A    between atoms: C_4  and  C_20
REMARK    3  A    between atoms: C_6  and  O_8
REMARK    4  A    between atoms: O_8  and  C_9
REMARK    5  A    between atoms: C_9  and  C_10
REMARK    6  A    between atoms: C_16  and  C_18
REMARK    7  A    between atoms: C_18  and  N_19
REMARK                            x       y       z     vdW  Elec       q    Type
REMARK                         _______ _______ _______ _____ _____    ______ ____
ROOT
ATOM      1  C   UNL     1      -0.018   1.503   0.010  0.00  0.00    +0.193 A 
ATOM      2  N   UNL     1      -1.083   2.254   0.019  0.00  0.00    -0.128 NA
ATOM      3  N   UNL     1      -0.746   3.497   0.028  0.00  0.00    -0.120 NA
ATOM      4  C   UNL     1       0.549   3.592   0.016  0.00  0.00    +0.218 A 
ATOM      5  N   UNL     1       1.087   2.329   0.004  0.00  0.00    -0.187 N 
ATOM      6  N   UNL     1       2.473   2.247  -0.009  0.00  0.00    -0.163 NA
ATOM      7  C   UNL     1       3.215   3.314  -0.011  0.00  0.00    +0.085 A 
ATOM      8  S   UNL     1       1.996   4.620   0.008  0.00  0.00    -0.033 S 
ENDROOT
BRANCH   1   9
ATOM      9  C   UNL     1       0.002  -0.004   0.002  0.00  0.00    +0.307 C 
BRANCH   9  10
ATOM     10  O   UNL     1       0.021  -0.488   1.347  0.00  0.00    -0.484 OA
BRANCH  10  16
ATOM     11  C   UNL     1       0.065  -4.959  -0.609  0.00  0.00    +0.044 C 
ATOM     12  C   UNL     1       0.063  -4.046   0.589  0.00  0.00    -0.047 A 
ATOM     13  C   UNL     1       0.082  -4.580   1.865  0.00  0.00    +0.007 A 
ATOM     14  C   UNL     1       0.081  -3.745   2.966  0.00  0.00    -0.047 A 
ATOM     15  C   UNL     1       0.061  -2.374   2.796  0.00  0.00    +0.049 A 
ATOM     16  C   UNL     1       0.041  -1.836   1.517  0.00  0.00    +0.122 A 
ATOM     17  C   UNL     1       0.037  -2.676   0.413  0.00  0.00    +0.049 A 
ATOM     18  C   UNL     1       0.103  -4.330   4.355  0.00  0.00    +0.044 C 
ENDBRANCH  10  16
ENDBRANCH   9  10
ENDBRANCH   1   9
BRANCH   7  19
ATOM     19  C   UNL     1       4.718   3.422  -0.024  0.00  0.00    -0.020 C 
BRANCH  19  20
ATOM     20  N   UNL     1       5.194   3.464  -1.413  0.00  0.00    +0.382 N 
ATOM     21  H   UNL     1       6.291   3.543  -1.423  0.00  0.00    -0.090 HD
ATOM     22  H   UNL     1       4.759   4.336  -1.923  0.00  0.00    -0.090 HD
ATOM     23  H   UNL     1       4.887   2.545  -1.934  0.00  0.00    -0.090 HD
ENDBRANCH  19  20
ENDBRANCH   7  19
TORSDOF 5
