REMARK  Name = ZINC00902199
REMARK  7 active torsions:
REMARK  status: ('A' for Active; 'I' for Inactive)
REMARK    1  A    between atoms: C_1  and  C_2
REMARK    2  A    between atoms: N_7  and  S_9
REMARK    3  A    between atoms: S_9  and  C_12
REMARK    4  A    between atoms: C_15  and  N_18
REMARK    5  A    between atoms: C_19  and  C_21
REMARK    6  A    between atoms: C_21  and  N_22
REMARK    7  A    between atoms: N_22  and  C_23
REMARK                            x       y       z     vdW  Elec       q    Type
REMARK                         _______ _______ _______ _____ _____    ______ ____
ROOT
ATOM      1  C   UNL     1       2.555  -3.282  -0.212  0.00  0.00    +0.106 A 
ATOM      2  C   UNL     1       2.227  -4.487  -0.806  0.00  0.00    +0.030 A 
ATOM      3  C   UNL     1       2.652  -4.763  -2.091  0.00  0.00    +0.025 A 
ATOM      4  C   UNL     1       3.410  -3.829  -2.786  0.00  0.00    +0.033 A 
ATOM      5  C   UNL     1       3.738  -2.620  -2.186  0.00  0.00    +0.025 A 
ATOM      6  C   UNL     1       3.305  -2.348  -0.902  0.00  0.00    +0.030 A 
ENDROOT
BRANCH   4   7
ATOM      7  N   UNL     1       3.843  -4.106  -4.087  0.00  0.00    -0.287 N 
ATOM      8  C   UNL     1       3.075  -4.847  -4.909  0.00  0.00    +0.200 C 
ATOM      9  O   UNL     1       1.968  -5.194  -4.556  0.00  0.00    -0.278 OA
ATOM     10  H   UNL     1       4.696  -3.763  -4.397  0.00  0.00    +0.155 HD
BRANCH   8  11
ATOM     11  C   UNL     1       3.592  -5.245  -6.268  0.00  0.00    +0.015 C 
BRANCH  11  12
ATOM     12  N   UNL     1       2.574  -6.044  -6.964  0.00  0.00    +0.387 N 
ATOM     13  H   UNL     1       2.371  -6.872  -6.426  0.00  0.00    -0.085 HD
ATOM     14  H   UNL     1       1.733  -5.497  -7.072  0.00  0.00    -0.085 HD
BRANCH  12  15
ATOM     15  C   UNL     1       3.078  -6.432  -8.289  0.00  0.00    -0.071 C 
ATOM     16  C   UNL     1       3.208  -5.187  -9.190  0.00  0.00    -0.016 C 
ATOM     17  C   UNL     1       2.791  -5.689 -10.594  0.00  0.00    -0.002 C 
ATOM     18  C   UNL     1       1.631  -6.665 -10.277  0.00  0.00    -0.002 C 
ATOM     19  C   UNL     1       2.075  -7.372  -8.979  0.00  0.00    -0.016 C 
ENDBRANCH  12  15
ENDBRANCH  11  12
ENDBRANCH   8  11
ENDBRANCH   4   7
BRANCH   1  20
ATOM     20  S   UNL     1       2.010  -2.934   1.427  0.00  0.00    +0.061 S 
ATOM     21  O   UNL     1       2.904  -1.964   1.955  0.00  0.00    -0.153 OA
ATOM     22  O   UNL     1       1.789  -4.189   2.057  0.00  0.00    -0.153 OA
BRANCH  20  28
ATOM     23  C   UNL     1      -0.638   1.123  -0.087  0.00  0.00    +0.009 C 
ATOM     24  C   UNL     1      -0.407  -0.389  -0.036  0.00  0.00    +0.002 C 
ATOM     25  C   UNL     1      -1.756  -1.109   0.047  0.00  0.00    +0.006 C 
ATOM     26  C   UNL     1      -1.527  -2.622   0.066  0.00  0.00    +0.017 C 
ATOM     27  C   UNL     1      -0.703  -2.995   1.303  0.00  0.00    +0.109 C 
ATOM     28  N   UNL     1       0.531  -2.198   1.306  0.00  0.00    -0.176 NA
ATOM     29  C   UNL     1       0.430  -0.736   1.199  0.00  0.00    +0.112 C 
ENDBRANCH  20  28
ENDBRANCH   1  20
TORSDOF 6
