REMARK  Name = ZINC14535325
REMARK  9 active torsions:
REMARK  status: ('A' for Active; 'I' for Inactive)
REMARK    1  A    between atoms: C_1  and  C_2
REMARK    2  A    between atoms: C_5  and  C_7
REMARK    3  A    between atoms: C_7  and  N_8
REMARK    4  A    between atoms: C_9  and  C_11
REMARK    5  A    between atoms: N_14  and  C_16
REMARK    6  A    between atoms: C_19  and  N_22
REMARK    7  A    between atoms: N_22  and  C_23
REMARK    8  A    between atoms: N_26  and  C_29
REMARK    9  A    between atoms: C_29  and  C_30
REMARK                            x       y       z     vdW  Elec       q    Type
REMARK                         _______ _______ _______ _____ _____    ______ ____
ROOT
ATOM      1  C   UNL     1       3.013  -5.127  -2.549  0.00  0.00    +0.150 A 
ATOM      2  C   UNL     1       3.831  -6.124  -3.105  0.00  0.00    +0.007 A 
ATOM      3  C   UNL     1       3.689  -6.017  -4.449  0.00  0.00    +0.043 A 
ATOM      4  N   UNL     1       2.833  -5.007  -4.678  0.00  0.00    -0.270 N 
ATOM      5  N   UNL     1       2.440  -4.499  -3.562  0.00  0.00    -0.166 NA
ATOM      6  C   UNL     1       2.405  -4.554  -6.004  0.00  0.00    +0.172 C 
ATOM      7  C   UNL     1       4.393  -6.905  -5.442  0.00  0.00    +0.057 C 
ATOM      8  C   UNL     1       4.914  -8.142  -4.699  0.00  0.00    +0.025 C 
ATOM      9  C   UNL     1       5.687  -7.705  -3.452  0.00  0.00    +0.059 C 
ATOM     10  C   UNL     1       4.709  -7.133  -2.417  0.00  0.00    +0.058 C 
ENDROOT
BRANCH   1  12
ATOM     11  N   UNL     1       1.996  -3.848  -0.726  0.00  0.00    -0.303 N 
ATOM     12  C   UNL     1       2.824  -4.840  -1.112  0.00  0.00    +0.265 C 
ATOM     13  O   UNL     1       3.414  -5.498  -0.278  0.00  0.00    -0.268 OA
ATOM     14  H   UNL     1       1.525  -3.323  -1.392  0.00  0.00    +0.150 HD
BRANCH  11  15
ATOM     15  C   UNL     1       1.809  -3.564   0.699  0.00  0.00    +0.179 C 
BRANCH  15  20
ATOM     16  C   UNL     1      -0.003   1.121   1.161  0.00  0.00    +0.086 C 
ATOM     17  C   UNL     1       0.055  -0.382   1.061  0.00  0.00    +0.102 A 
ATOM     18  C   UNL     1      -1.001  -1.214   1.105  0.00  0.00    +0.045 A 
ATOM     19  C   UNL     1      -0.493  -2.527   0.975  0.00  0.00    +0.046 A 
ATOM     20  C   UNL     1       0.842  -2.419   0.859  0.00  0.00    +0.122 A 
ATOM     21  O   UNL     1       1.168  -1.117   0.906  0.00  0.00    -0.463 OA
ENDBRANCH  15  20
ENDBRANCH  11  15
ENDBRANCH   1  12
BRANCH   9  22
ATOM     22  N   UNL     1       6.385  -8.864  -2.877  0.00  0.00    -0.310 NA
ATOM     23  H   UNL     1       5.763  -9.411  -2.302  0.00  0.00    +0.122 HD
BRANCH  22  24
ATOM     24  C   UNL     1       7.570  -8.442  -2.119  0.00  0.00    +0.050 C 
ATOM     25  C   UNL     1       8.768  -8.325  -3.065  0.00  0.00    -0.000 C 
ATOM     26  C   UNL     1      10.016  -7.963  -2.256  0.00  0.00    -0.077 C 
ATOM     27  N   UNL     1      10.277  -9.008  -1.259  0.00  0.00    +0.382 N 
ATOM     28  C   UNL     1       9.163  -9.076  -0.305  0.00  0.00    -0.077 C 
ATOM     29  C   UNL     1       7.883  -9.481  -1.039  0.00  0.00    -0.000 C 
ATOM     30  H   UNL     1      10.376  -9.898  -1.723  0.00  0.00    -0.081 HD
BRANCH  27  31
ATOM     31  C   UNL     1      11.518  -8.696  -0.538  0.00  0.00    -0.043 C 
BRANCH  31  32
ATOM     32  C   UNL     1      11.854  -9.827   0.400  0.00  0.00    -0.064 A 
ATOM     33  C   UNL     1      11.367  -9.820   1.694  0.00  0.00    +0.002 A 
ATOM     34  C   UNL     1      11.674 -10.858   2.553  0.00  0.00    +0.000 A 
ATOM     35  C   UNL     1      12.468 -11.903   2.119  0.00  0.00    +0.000 A 
ATOM     36  C   UNL     1      12.954 -11.911   0.825  0.00  0.00    +0.000 A 
ATOM     37  C   UNL     1      12.643 -10.875  -0.036  0.00  0.00    +0.002 A 
ENDBRANCH  31  32
ENDBRANCH  27  31
ENDBRANCH  22  24
ENDBRANCH   9  22
TORSDOF 7
