REMARK  Name = ZINC19771081
REMARK  7 active torsions:
REMARK  status: ('A' for Active; 'I' for Inactive)
REMARK    1  A    between atoms: C_1  and  C_2
REMARK    2  A    between atoms: C_3  and  C_31
REMARK    3  A    between atoms: C_4  and  C_22
REMARK    4  A    between atoms: C_10  and  C_15
REMARK    5  A    between atoms: C_26  and  N_28
REMARK    6  A    between atoms: C_31  and  O_33
REMARK    7  A    between atoms: O_33  and  C_34
REMARK                            x       y       z     vdW  Elec       q    Type
REMARK                         _______ _______ _______ _____ _____    ______ ____
ROOT
ATOM      1  C   UNL     1      -2.696   6.764  -2.429  0.00  0.00    +0.061 C 
ATOM      2  C   UNL     1      -2.030   6.287  -1.165  0.00  0.00    +0.016 C 
ATOM      3  C   UNL     1      -0.764   5.837  -1.206  0.00  0.00    +0.065 C 
ATOM      4  C   UNL     1      -0.070   5.347   0.031  0.00  0.00    +0.092 C 
ATOM      5  C   UNL     1      -0.778   5.826   1.273  0.00  0.00    +0.024 C 
ATOM      6  C   UNL     1      -2.050   6.275   1.212  0.00  0.00    +0.016 C 
ATOM      7  N   UNL     1      -2.716   6.316   0.017  0.00  0.00    -0.321 N 
ATOM      8  C   UNL     1      -2.771   6.738   2.454  0.00  0.00    +0.059 C 
ATOM      9  C   UNL     1      -1.763   7.332   3.441  0.00  0.00    +0.033 C 
ATOM     10  C   UNL     1      -0.716   6.263   3.770  0.00  0.00    +0.088 C 
ATOM     11  C   UNL     1      -0.078   5.793   2.492  0.00  0.00    +0.162 C 
ATOM     12  O   UNL     1       1.063   5.376   2.513  0.00  0.00    -0.292 OA
ATOM     13  H   UNL     1      -3.815   6.372   0.013  0.00  0.00    +0.152 HD
ENDROOT
BRANCH   9  14
ATOM     14  C   UNL     1      -2.475   7.748   4.703  0.00  0.00    -0.025 A 
ATOM     15  C   UNL     1      -3.164   6.810   5.449  0.00  0.00    +0.005 A 
ATOM     16  C   UNL     1      -3.814   7.191   6.608  0.00  0.00    +0.000 A 
ATOM     17  C   UNL     1      -3.783   8.511   7.017  0.00  0.00    +0.001 A 
ATOM     18  C   UNL     1      -3.099   9.451   6.269  0.00  0.00    +0.020 A 
ATOM     19  C   UNL     1      -2.445   9.069   5.111  0.00  0.00    +0.044 A 
ATOM     20 CL   UNL     1      -1.586  10.249   4.170  0.00  0.00    -0.083 Cl
ENDBRANCH   9  14
BRANCH   4  21
ATOM     21  C   UNL     1      -0.050   3.840   0.022  0.00  0.00    -0.033 A 
ATOM     22  C   UNL     1      -1.238   3.133   0.029  0.00  0.00    +0.005 A 
ATOM     23  C   UNL     1      -1.219   1.751   0.017  0.00  0.00    +0.003 A 
ATOM     24  C   UNL     1      -0.013   1.076   0.008  0.00  0.00    +0.033 A 
ATOM     25  C   UNL     1       1.175   1.783   0.000  0.00  0.00    +0.126 A 
ATOM     26  C   UNL     1       1.156   3.166   0.008  0.00  0.00    +0.037 A 
BRANCH  25  27
ATOM     27  N   UNL     1       2.467   1.060  -0.015  0.00  0.00    +0.056 N 
ATOM     28  O   UNL     1       2.483  -0.157  -0.022  0.00  0.00    -0.126 OA
ATOM     29  O   UNL     1       3.513   1.684  -0.022  0.00  0.00    -0.126 OA
ENDBRANCH  25  27
ENDBRANCH   4  21
BRANCH   3  30
ATOM     30  C   UNL     1      -0.072   5.826  -2.440  0.00  0.00    +0.337 C 
ATOM     31  O   UNL     1      -0.623   6.221  -3.451  0.00  0.00    -0.245 OA
BRANCH  30  32
ATOM     32  O   UNL     1       1.199   5.377  -2.497  0.00  0.00    -0.465 OA
ATOM     33  C   UNL     1       1.837   5.393  -3.776  0.00  0.00    +0.280 C 
ENDBRANCH  30  32
ENDBRANCH   3  30
TORSDOF 5
