REMARK  Name = ZINC02777365
REMARK  16 active torsions:
REMARK  status: ('A' for Active; 'I' for Inactive)
REMARK    1  A    between atoms: C_1  and  C_2
REMARK    2  A    between atoms: C_2  and  O_3
REMARK    3  A    between atoms: O_3  and  C_4
REMARK    4  A    between atoms: C_4  and  C_6
REMARK    5  A    between atoms: C_7  and  C_39
REMARK    6  A    between atoms: C_11  and  C_13
REMARK    7  A    between atoms: C_16  and  O_21
REMARK    8  A    between atoms: C_17  and  O_19
REMARK    9  A    between atoms: O_19  and  C_20
REMARK   10  A    between atoms: O_21  and  C_22
REMARK   11  A    between atoms: C_22  and  C_23
REMARK   12  A    between atoms: C_24  and  C_31
REMARK   13  A    between atoms: C_26  and  C_30
REMARK   14  A    between atoms: C_28  and  C_29
REMARK   15  A    between atoms: C_35  and  C_37
REMARK   16  A    between atoms: C_35  and  C_38
REMARK                            x       y       z     vdW  Elec       q    Type
REMARK                         _______ _______ _______ _____ _____    ______ ____
ROOT
ATOM      1  C   UNL     1      -0.749   1.562   1.226  0.00  0.00    +0.065 C 
ATOM      2  C   UNL     1      -0.300   2.602   1.950  0.00  0.00    +0.016 C 
ATOM      3  N   UNL     1       0.850   3.249   1.594  0.00  0.00    -0.321 N 
ATOM      4  C   UNL     1       1.765   2.645   0.772  0.00  0.00    +0.016 C 
ATOM      5  C   UNL     1       1.405   1.600  -0.003  0.00  0.00    +0.024 C 
ATOM      6  C   UNL     1      -0.013   1.086   0.008  0.00  0.00    +0.092 C 
ATOM      7  C   UNL     1       2.337   0.962  -0.839  0.00  0.00    +0.162 C 
ATOM      8  O   UNL     1       1.978   0.031  -1.532  0.00  0.00    -0.292 OA
ATOM      9  C   UNL     1       3.772   1.411  -0.892  0.00  0.00    +0.086 C 
ATOM     10  C   UNL     1       4.151   2.030   0.458  0.00  0.00    -0.023 C 
ATOM     11  C   UNL     1       3.178   3.173   0.758  0.00  0.00    +0.058 C 
ATOM     12  C   UNL     1       4.051   0.970   1.556  0.00  0.00    +0.011 C 
ATOM     13  C   UNL     1       5.580   2.571   0.393  0.00  0.00    +0.011 C 
ATOM     14  C   UNL     1      -1.070   3.057   3.162  0.00  0.00    +0.061 C 
ATOM     15  H   UNL     1       1.049   4.264   1.968  0.00  0.00    +0.152 HD
ENDROOT
BRANCH   6  16
ATOM     16  C   UNL     1      -0.727   1.578  -1.224  0.00  0.00    -0.032 A 
ATOM     17  C   UNL     1      -0.879   2.935  -1.438  0.00  0.00    +0.008 A 
ATOM     18  C   UNL     1      -1.529   3.391  -2.570  0.00  0.00    +0.050 A 
ATOM     19  C   UNL     1      -2.040   2.487  -3.487  0.00  0.00    +0.162 A 
ATOM     20  C   UNL     1      -1.892   1.121  -3.269  0.00  0.00    +0.162 A 
ATOM     21  C   UNL     1      -1.234   0.670  -2.136  0.00  0.00    +0.054 A 
BRANCH  20  22
ATOM     22  O   UNL     1      -2.391   0.230  -4.167  0.00  0.00    -0.491 OA
ATOM     23  C   UNL     1      -2.203  -1.157  -3.878  0.00  0.00    +0.277 C 
ENDBRANCH  20  22
BRANCH  19  24
ATOM     24  O   UNL     1      -2.684   2.934  -4.598  0.00  0.00    -0.484 OA
BRANCH  24  25
ATOM     25  C   UNL     1      -2.799   4.350  -4.756  0.00  0.00    +0.265 C 
BRANCH  25  26
ATOM     26  C   UNL     1      -3.536   4.655  -6.035  0.00  0.00    -0.005 A 
ATOM     27  C   UNL     1      -2.835   4.818  -7.215  0.00  0.00    -0.044 A 
ATOM     28  C   UNL     1      -3.512   5.093  -8.388  0.00  0.00    +0.007 A 
ATOM     29  C   UNL     1      -4.889   5.214  -8.380  0.00  0.00    -0.050 A 
ATOM     30  C   UNL     1      -5.589   5.056  -7.199  0.00  0.00    +0.007 A 
ATOM     31  C   UNL     1      -4.913   4.777  -6.026  0.00  0.00    -0.044 A 
ATOM     32  C   UNL     1      -5.677   4.605  -4.738  0.00  0.00    +0.044 C 
ATOM     33  C   UNL     1      -5.627   5.518  -9.658  0.00  0.00    +0.044 C 
ATOM     34  C   UNL     1      -1.333   4.691  -7.223  0.00  0.00    +0.044 C 
ENDBRANCH  25  26
ENDBRANCH  24  25
ENDBRANCH  19  24
ENDBRANCH   6  16
BRANCH   1  35
ATOM     35  C   UNL     1      -1.938   0.904   1.619  0.00  0.00    +0.338 C 
ATOM     36  O   UNL     1      -2.544   1.281   2.605  0.00  0.00    -0.245 OA
BRANCH  35  37
ATOM     37  O   UNL     1      -2.400  -0.141   0.901  0.00  0.00    -0.462 OA
BRANCH  37  39
ATOM     38  C   UNL     1      -3.971  -1.914   0.424  0.00  0.00    +0.048 C 
ATOM     39  C   UNL     1      -3.606  -0.757   1.356  0.00  0.00    +0.229 C 
ENDBRANCH  37  39
ENDBRANCH  35  37
ENDBRANCH   1  35
TORSDOF 8
