REMARK  Name = ZINC12009235
REMARK  6 active torsions:
REMARK  status: ('A' for Active; 'I' for Inactive)
REMARK    1  A    between atoms: C_4  and  C_7
REMARK    2  A    between atoms: C_16  and  N_25
REMARK    3  A    between atoms: C_18  and  C_20
REMARK    4  A    between atoms: C_26  and  C_28
REMARK    5  A    between atoms: C_28  and  O_29
REMARK    6  A    between atoms: O_29  and  C_30
REMARK                            x       y       z     vdW  Elec       q    Type
REMARK                         _______ _______ _______ _____ _____    ______ ____
ROOT
ATOM      1  C   UNL     1      -3.660   5.164   0.063  0.00  0.00    +0.080 A 
ATOM      2  C   UNL     1      -3.142   6.449   0.066  0.00  0.00    +0.098 A 
ATOM      3  C   UNL     1      -1.747   6.613   0.053  0.00  0.00    +0.253 A 
ATOM      4  O   UNL     1      -1.252   7.728   0.055  0.00  0.00    -0.268 OA
ATOM      5  N   UNL     1      -0.964   5.513   0.045  0.00  0.00    -0.291 N 
ATOM      6  H   UNL     1       0.001   5.607   0.040  0.00  0.00    +0.172 HD
ATOM      7  C   UNL     1      -1.525   4.275   0.038  0.00  0.00    +0.234 A 
ATOM      8  N   UNL     1      -2.828   4.112   0.050  0.00  0.00    -0.212 NA
ATOM      9  N   UNL     1      -0.706   3.162   0.025  0.00  0.00    -0.184 N 
ATOM     10  C   UNL     1      -1.120   1.860   0.017  0.00  0.00    +0.132 A 
ATOM     11  C   UNL     1      -0.013   1.076   0.008  0.00  0.00    +0.077 A 
ATOM     12  C   UNL     1       1.116   1.923   0.002  0.00  0.00    +0.130 A 
ATOM     13  N   UNL     1       0.695   3.171   0.012  0.00  0.00    -0.159 NA
ENDROOT
BRANCH   1  17
ATOM     14  C   UNL     1      -7.867   4.558   0.102  0.00  0.00    +0.000 A 
ATOM     15  C   UNL     1      -7.014   3.469   0.087  0.00  0.00    +0.001 A 
ATOM     16  C   UNL     1      -5.648   3.659   0.075  0.00  0.00    +0.010 A 
ATOM     17  C   UNL     1      -5.127   4.953   0.077  0.00  0.00    +0.001 A 
ATOM     18  C   UNL     1      -5.991   6.047   0.097  0.00  0.00    +0.010 A 
ATOM     19  C   UNL     1      -7.356   5.844   0.104  0.00  0.00    +0.001 A 
ENDBRANCH   1  17
BRANCH  12  20
ATOM     20  C   UNL     1       2.528   1.485  -0.013  0.00  0.00    +0.155 A 
ATOM     21  C   UNL     1       3.616   2.300  -0.024  0.00  0.00    +0.051 A 
ATOM     22  C   UNL     1       4.750   1.463  -0.033  0.00  0.00    +0.042 A 
ATOM     23  C   UNL     1       4.303   0.192  -0.035  0.00  0.00    +0.196 A 
ATOM     24  O   UNL     1       2.960   0.209  -0.023  0.00  0.00    -0.461 OA
ENDBRANCH  12  20
BRANCH  10  25
ATOM     25  N   UNL     1      -2.441   1.417   0.020  0.00  0.00    -0.267 N 
ATOM     26  C   UNL     1      -2.709   0.097   0.014  0.00  0.00    +0.256 C 
ATOM     27  O   UNL     1      -1.800  -0.707   0.007  0.00  0.00    -0.272 OA
ATOM     28  H   UNL     1      -3.167   2.060   0.026  0.00  0.00    +0.156 HD
BRANCH  26  29
ATOM     29  C   UNL     1      -4.138  -0.382   0.018  0.00  0.00    +0.325 C 
BRANCH  29  30
ATOM     30  O   UNL     1      -4.161  -1.811   0.011  0.00  0.00    -0.481 OA
BRANCH  30  31
ATOM     31  C   UNL     1      -5.382  -2.408   0.012  0.00  0.00    +0.140 A 
ATOM     32  C   UNL     1      -6.534  -1.635   0.021  0.00  0.00    +0.048 A 
ATOM     33  C   UNL     1      -7.774  -2.244   0.023  0.00  0.00    +0.023 A 
ATOM     34  C   UNL     1      -7.869  -3.624   0.016  0.00  0.00    +0.043 A 
ATOM     35  C   UNL     1      -6.722  -4.398   0.008  0.00  0.00    +0.043 A 
ATOM     36  C   UNL     1      -5.479  -3.793   0.000  0.00  0.00    +0.084 A 
ATOM     37 CL   UNL     1      -4.040  -4.764  -0.018  0.00  0.00    -0.080 Cl
ATOM     38 CL   UNL     1      -9.429  -4.386   0.019  0.00  0.00    -0.083 Cl
ENDBRANCH  30  31
ENDBRANCH  29  30
ENDBRANCH  26  29
ENDBRANCH  10  25
TORSDOF 6
