REMARK  Name = ZINC01747811
REMARK  6 active torsions:
REMARK  status: ('A' for Active; 'I' for Inactive)
REMARK    1  A    between atoms: C_1  and  C_2
REMARK    2  A    between atoms: N_8  and  C_9
REMARK    3  A    between atoms: C_9  and  C_10
REMARK    4  A    between atoms: C_11  and  O_32
REMARK    5  A    between atoms: C_17  and  C_28
REMARK    6  A    between atoms: C_18  and  C_21
REMARK                            x       y       z     vdW  Elec       q    Type
REMARK                         _______ _______ _______ _____ _____    ______ ____
ROOT
ATOM      1  C   UNL     1       2.458  -0.566   2.995  0.00  0.00    +0.020 A 
ATOM      2  C   UNL     1       2.498   0.168   4.169  0.00  0.00    +0.122 A 
ATOM      3  C   UNL     1       3.431  -0.130   5.161  0.00  0.00    +0.046 A 
ATOM      4  C   UNL     1       4.318  -1.154   4.988  0.00  0.00    +0.019 A 
ATOM      5  C   UNL     1       4.287  -1.903   3.813  0.00  0.00    +0.065 A 
ATOM      6  C   UNL     1       3.351  -1.612   2.804  0.00  0.00    +0.144 A 
ATOM      7  O   UNL     1       3.332  -2.332   1.665  0.00  0.00    -0.450 OA
ATOM      8  C   UNL     1       3.957  -3.506   1.565  0.00  0.00    +0.219 A 
ATOM      9  C   UNL     1       4.894  -3.919   2.459  0.00  0.00    +0.076 A 
ATOM     10  C   UNL     1       5.221  -3.023   3.588  0.00  0.00    +0.201 A 
ATOM     11  O   UNL     1       6.194  -3.205   4.299  0.00  0.00    -0.286 OA
ENDROOT
BRANCH   9  12
ATOM     12  C   UNL     1       5.576  -5.226   2.299  0.00  0.00    -0.009 A 
ATOM     13  C   UNL     1       6.565  -5.385   1.329  0.00  0.00    +0.009 A 
ATOM     14  C   UNL     1       7.197  -6.603   1.184  0.00  0.00    +0.002 A 
ATOM     15  C   UNL     1       6.851  -7.666   1.999  0.00  0.00    +0.020 A 
ATOM     16  C   UNL     1       5.871  -7.514   2.964  0.00  0.00    +0.042 A 
ATOM     17  C   UNL     1       5.236  -6.298   3.122  0.00  0.00    +0.028 A 
ATOM     18 CL   UNL     1       5.443  -8.854   3.982  0.00  0.00    -0.084 Cl
ENDBRANCH   9  12
BRANCH   8  19
ATOM     19  C   UNL     1       3.611  -4.413   0.412  0.00  0.00    +0.451 C 
ATOM     20  F   UNL     1       4.233  -5.653   0.591  0.00  0.00    -0.163 F 
ATOM     21  F   UNL     1       2.224  -4.590   0.360  0.00  0.00    -0.163 F 
ATOM     22  F   UNL     1       4.052  -3.837  -0.783  0.00  0.00    -0.163 F 
ENDBRANCH   8  19
BRANCH   2  23
ATOM     23  O   UNL     1       1.621   1.186   4.355  0.00  0.00    -0.506 OA
ATOM     24  H   UNL     1       0.794   0.920   4.779  0.00  0.00    +0.292 HD
ENDBRANCH   2  23
BRANCH   1  25
ATOM     25  C   UNL     1       1.444  -0.234   1.931  0.00  0.00    -0.035 C 
BRANCH  25  32
ATOM     26  C   UNL     1      -1.041   0.920   1.319  0.00  0.00    -0.013 C 
ATOM     27  C   UNL     1      -0.812  -0.589   1.205  0.00  0.00    -0.071 C 
ATOM     28  C   UNL     1      -2.120  -1.326   1.502  0.00  0.00    -0.016 C 
ATOM     29  C   UNL     1      -1.886  -2.835   1.387  0.00  0.00    -0.003 C 
ATOM     30  C   UNL     1      -0.761  -3.242   2.343  0.00  0.00    -0.019 C 
ATOM     31  C   UNL     1       0.496  -2.433   2.016  0.00  0.00    -0.078 C 
ATOM     32  N   UNL     1       0.215  -1.001   2.170  0.00  0.00    +0.384 N 
ATOM     33  H   UNL     1      -0.114  -0.822   3.107  0.00  0.00    -0.081 HD
ENDBRANCH  25  32
ENDBRANCH   1  25
TORSDOF 5
