REMARK  Name = ZINC02470401
REMARK  9 active torsions:
REMARK  status: ('A' for Active; 'I' for Inactive)
REMARK    1  A    between atoms: C_1  and  C_2
REMARK    2  A    between atoms: C_2  and  C_3
REMARK    3  A    between atoms: C_3  and  O_4
REMARK    4  A    between atoms: O_4  and  C_5
REMARK    5  A    between atoms: C_8  and  C_11
REMARK    6  A    between atoms: C_11  and  C_13
REMARK    7  A    between atoms: C_11  and  N_24
REMARK    8  A    between atoms: C_22  and  O_23
REMARK    9  A    between atoms: N_24  and  C_25
REMARK                            x       y       z     vdW  Elec       q    Type
REMARK                         _______ _______ _______ _____ _____    ______ ____
ROOT
ATOM      1  C   UNL     1       2.592   3.796  -0.011  0.00  0.00    +0.136 C 
ENDROOT
BRANCH   1   2
ATOM      2  C   UNL     1       1.347   2.951  -0.102  0.00  0.00    +0.021 A 
ATOM      3  C   UNL     1       1.464   1.567  -0.200  0.00  0.00    +0.010 A 
ATOM      4  C   UNL     1       0.359   0.775  -0.283  0.00  0.00    +0.010 A 
ATOM      5  C   UNL     1      -0.918   1.360  -0.277  0.00  0.00    +0.004 A 
ATOM      6  C   UNL     1      -2.083   0.574  -0.367  0.00  0.00    +0.011 A 
ATOM      7  C   UNL     1      -3.291   1.211  -0.355  0.00  0.00    +0.020 A 
ATOM      8  C   UNL     1      -3.345   2.599  -0.256  0.00  0.00    +0.111 A 
ATOM      9  N   UNL     1      -2.258   3.326  -0.161  0.00  0.00    -0.251 NA
ATOM     10  C   UNL     1      -1.045   2.766  -0.172  0.00  0.00    +0.113 A 
ATOM     11  C   UNL     1       0.122   3.555  -0.088  0.00  0.00    +0.148 A 
BRANCH  11  12
ATOM     12  O   UNL     1       0.028   4.906   0.008  0.00  0.00    -0.504 OA
ATOM     13  H   UNL     1       0.021   5.362  -0.845  0.00  0.00    +0.292 HD
ENDBRANCH  11  12
ENDBRANCH   1   2
BRANCH   1  17
ATOM     14  C   UNL     1       3.550   4.482   4.097  0.00  0.00    +0.121 A 
ATOM     15  C   UNL     1       2.971   5.490   3.341  0.00  0.00    +0.046 A 
ATOM     16  C   UNL     1       2.662   5.266   2.013  0.00  0.00    +0.009 A 
ATOM     17  C   UNL     1       2.930   4.038   1.437  0.00  0.00    -0.023 A 
ATOM     18  C   UNL     1       3.502   3.029   2.190  0.00  0.00    +0.009 A 
ATOM     19  C   UNL     1       3.818   3.250   3.517  0.00  0.00    +0.046 A 
BRANCH  14  20
ATOM     20  O   UNL     1       3.854   4.699   5.403  0.00  0.00    -0.492 OA
BRANCH  20  21
ATOM     21  C   UNL     1       4.448   3.616   6.120  0.00  0.00    +0.229 C 
BRANCH  21  23
ATOM     22  C   UNL     1       5.353   2.885   8.332  0.00  0.00    +0.007 C 
ATOM     23  C   UNL     1       4.717   4.046   7.564  0.00  0.00    +0.038 C 
ENDBRANCH  21  23
ENDBRANCH  20  21
ENDBRANCH  14  20
ENDBRANCH   1  17
BRANCH   1  24
ATOM     24  N   UNL     1       3.704   3.100  -0.662  0.00  0.00    -0.320 N 
ATOM     25  H   UNL     1       4.305   2.548  -0.138  0.00  0.00    +0.148 HD
BRANCH  24  26
ATOM     26  C   UNL     1       3.898   3.229  -2.033  0.00  0.00    +0.097 A 
ATOM     27  C   UNL     1       2.968   3.925  -2.798  0.00  0.00    +0.041 A 
ATOM     28  C   UNL     1       3.173   4.046  -4.160  0.00  0.00    +0.005 A 
ATOM     29  C   UNL     1       4.307   3.465  -4.714  0.00  0.00    +0.018 A 
ATOM     30  C   UNL     1       5.188   2.788  -3.895  0.00  0.00    +0.084 A 
ATOM     31  N   UNL     1       5.021   2.655  -2.552  0.00  0.00    -0.350 N 
ATOM     32  H   UNL     1       5.699   2.153  -1.966  0.00  0.00    +0.166 HD
ENDBRANCH  24  26
ENDBRANCH   1  24
TORSDOF 8
