REMARK  Name = ZINC64636455
REMARK  5 active torsions:
REMARK  status: ('A' for Active; 'I' for Inactive)
REMARK    1  A    between atoms: C_1  and  C_2
REMARK    2  A    between atoms: C_5  and  C_19
REMARK    3  A    between atoms: C_10  and  C_12
REMARK    4  A    between atoms: C_19  and  N_20
REMARK    5  A    between atoms: C_21  and  C_23
REMARK                            x       y       z     vdW  Elec       q    Type
REMARK                         _______ _______ _______ _____ _____    ______ ____
ROOT
ATOM      1  C   UNL     1      -0.031   1.465   0.020  0.00  0.00    +0.042 C 
ATOM      2  C   UNL     1      -0.007  -0.042   0.006  0.00  0.00    -0.037 C 
ATOM      3  C   UNL     1       0.002  -0.845  -1.082  0.00  0.00    -0.000 A 
ATOM      4  C   UNL     1      -0.008  -0.567  -2.523  0.00  0.00    +0.015 A 
ATOM      5  C   UNL     1       0.004  -1.603  -3.392  0.00  0.00    -0.030 A 
ATOM      6  C   UNL     1       0.026  -2.934  -2.951  0.00  0.00    +0.007 A 
ATOM      7  C   UNL     1       0.037  -3.268  -1.643  0.00  0.00    +0.026 A 
ATOM      8  C   UNL     1       0.025  -2.258  -0.642  0.00  0.00    +0.043 A 
ATOM      9  N   UNL     1       0.031  -2.326   0.667  0.00  0.00    -0.373 N 
ATOM     10  C   UNL     1       0.017  -0.962   1.206  0.00  0.00    +0.139 C 
ATOM     11  H   UNL     1       0.046  -3.142   1.191  0.00  0.00    +0.161 HD
ENDROOT
BRANCH  10  12
ATOM     12  C   UNL     1      -1.215  -0.751   2.047  0.00  0.00    +0.014 A 
ATOM     13  C   UNL     1      -2.278  -1.629   1.949  0.00  0.00    +0.009 A 
ATOM     14  C   UNL     1      -3.408  -1.437   2.720  0.00  0.00    +0.001 A 
ATOM     15  C   UNL     1      -3.477  -0.365   3.592  0.00  0.00    +0.003 A 
ATOM     16  C   UNL     1      -2.416   0.514   3.692  0.00  0.00    +0.039 A 
ATOM     17  C   UNL     1      -1.281   0.319   2.924  0.00  0.00    +0.129 A 
ATOM     18  F   UNL     1      -0.241   1.175   3.025  0.00  0.00    -0.205 F 
ENDBRANCH  10  12
BRANCH   5  19
ATOM     19  C   UNL     1      -0.006  -1.321  -4.872  0.00  0.00    +0.139 C 
BRANCH  19  20
ATOM     20  N   UNL     1       1.372  -1.208  -5.357  0.00  0.00    -0.311 N 
ATOM     21  C   UNL     1       1.609  -0.956  -6.660  0.00  0.00    +0.218 C 
ATOM     22  O   UNL     1       0.682  -0.822  -7.430  0.00  0.00    -0.275 OA
ATOM     23  H   UNL     1       2.113  -1.314  -4.741  0.00  0.00    +0.149 HD
BRANCH  21  24
ATOM     24  C   UNL     1       3.026  -0.839  -7.159  0.00  0.00    +0.092 C 
ATOM     25  C   UNL     1       3.017  -0.554  -8.662  0.00  0.00    +0.016 C 
ATOM     26  C   UNL     1       4.455  -0.403  -9.164  0.00  0.00    +0.020 C 
ATOM     27  C   UNL     1       5.215  -1.712  -8.925  0.00  0.00    +0.109 C 
ATOM     28  N   UNL     1       5.105  -2.069  -7.504  0.00  0.00    -0.285 N 
ATOM     29  C   UNL     1       3.770  -2.152  -6.896  0.00  0.00    +0.122 C 
ATOM     30  C   UNL     1       6.209  -2.316  -6.771  0.00  0.00    +0.300 C 
ATOM     31  O   UNL     1       6.113  -2.517  -5.576  0.00  0.00    -0.253 OA
ATOM     32  N   UNL     1       7.420  -2.340  -7.364  0.00  0.00    -0.313 N 
ATOM     33  H   UNL     1       7.505  -2.108  -8.302  0.00  0.00    +0.146 HD
ATOM     34  H   UNL     1       8.206  -2.588  -6.851  0.00  0.00    +0.146 HD
ENDBRANCH  21  24
ENDBRANCH  19  20
ENDBRANCH   5  19
TORSDOF 4
