REMARK  Name = ZINC12766093
REMARK  7 active torsions:
REMARK  status: ('A' for Active; 'I' for Inactive)
REMARK    1  A    between atoms: C_9  and  C_18
REMARK    2  A    between atoms: C_18  and  N_19
REMARK    3  A    between atoms: C_20  and  C_22
REMARK    4  A    between atoms: C_22  and  C_23
REMARK    5  A    between atoms: C_23  and  C_24
REMARK    6  A    between atoms: C_27  and  S_30
REMARK    7  A    between atoms: S_30  and  N_33
REMARK                            x       y       z     vdW  Elec       q    Type
REMARK                         _______ _______ _______ _____ _____    ______ ____
ROOT
ATOM      1  N   UNL     1      -3.512   6.619  -2.483  0.00  0.00    -0.315 N 
ATOM      2  C   UNL     1      -4.454   7.553  -2.721  0.00  0.00    +0.213 C 
ATOM      3  O   UNL     1      -5.309   7.777  -1.890  0.00  0.00    -0.276 OA
ATOM      4  H   UNL     1      -2.829   6.440  -3.148  0.00  0.00    +0.149 HD
ENDROOT
BRANCH   1   5
ATOM      5  C   UNL     1      -3.520   5.875  -1.221  0.00  0.00    +0.108 C 
BRANCH   5  14
ATOM      6  C   UNL     1       1.178   1.779   0.000  0.00  0.00    +0.000 A 
ATOM      7  C   UNL     1      -0.013   1.076   0.008  0.00  0.00    +0.000 A 
ATOM      8  C   UNL     1      -1.227   1.749   0.017  0.00  0.00    +0.004 A 
ATOM      9  C   UNL     1      -1.223   3.115   0.031  0.00  0.00    -0.036 A 
ATOM     10  C   UNL     1      -0.022   3.823   0.023  0.00  0.00    -0.036 A 
ATOM     11  C   UNL     1       1.175   3.168   0.008  0.00  0.00    +0.004 A 
ATOM     12  C   UNL     1      -0.186   5.335   0.033  0.00  0.00    +0.050 C 
ATOM     13  C   UNL     1      -1.038   5.662  -1.214  0.00  0.00    +0.018 C 
ATOM     14  C   UNL     1      -2.353   4.885  -1.206  0.00  0.00    +0.019 C 
ATOM     15  C   UNL     1      -2.467   3.988   0.047  0.00  0.00    +0.054 C 
ATOM     16  C   UNL     1      -2.284   4.924   1.231  0.00  0.00    -0.036 A 
ATOM     17  C   UNL     1      -1.083   5.633   1.224  0.00  0.00    -0.036 A 
ATOM     18  C   UNL     1      -0.785   6.510   2.226  0.00  0.00    +0.004 A 
ATOM     19  C   UNL     1      -1.699   6.686   3.257  0.00  0.00    +0.000 A 
ATOM     20  C   UNL     1      -2.890   5.984   3.264  0.00  0.00    +0.000 A 
ATOM     21  C   UNL     1      -3.187   5.092   2.241  0.00  0.00    +0.004 A 
ENDBRANCH   5  14
ENDBRANCH   1   5
BRANCH   2  22
ATOM     22  C   UNL     1      -4.447   8.318  -4.019  0.00  0.00    +0.100 C 
BRANCH  22  23
ATOM     23  C   UNL     1      -5.613   9.308  -4.034  0.00  0.00    +0.044 C 
BRANCH  23  24
ATOM     24  C   UNL     1      -5.605  10.074  -5.332  0.00  0.00    -0.047 A 
ATOM     25  C   UNL     1      -4.905  11.262  -5.430  0.00  0.00    +0.005 A 
ATOM     26  C   UNL     1      -4.894  11.961  -6.622  0.00  0.00    +0.029 A 
ATOM     27  C   UNL     1      -5.591  11.478  -7.714  0.00  0.00    +0.105 A 
ATOM     28  C   UNL     1      -6.296  10.293  -7.614  0.00  0.00    +0.029 A 
ATOM     29  C   UNL     1      -6.303   9.591  -6.424  0.00  0.00    +0.005 A 
BRANCH  27  30
ATOM     30  S   UNL     1      -5.582  12.373  -9.232  0.00  0.00    +0.056 S 
ATOM     31  O   UNL     1      -4.404  13.168  -9.227  0.00  0.00    -0.153 OA
ATOM     32  O   UNL     1      -5.863  11.433 -10.259  0.00  0.00    -0.153 OA
BRANCH  30  33
ATOM     33  N   UNL     1      -6.861  13.424  -9.188  0.00  0.00    -0.204 NA
ATOM     34  H   UNL     1      -7.442  13.449  -8.412  0.00  0.00    +0.144 HD
ATOM     35  H   UNL     1      -7.031  14.013  -9.940  0.00  0.00    +0.144 HD
ENDBRANCH  30  33
ENDBRANCH  27  30
ENDBRANCH  23  24
ENDBRANCH  22  23
ENDBRANCH   2  22
TORSDOF 7
