REMARK  Name = ZINC66578372
REMARK  4 active torsions:
REMARK  status: ('A' for Active; 'I' for Inactive)
REMARK    1  A    between atoms: C_5  and  C_7
REMARK    2  A    between atoms: C_8  and  S_9
REMARK    3  A    between atoms: S_9  and  N_12
REMARK    4  A    between atoms: N_12  and  C_13
REMARK                            x       y       z     vdW  Elec       q    Type
REMARK                         _______ _______ _______ _____ _____    ______ ____
ROOT
ATOM      1  N   UNL     1      -0.500  -5.116   1.410  0.00  0.00    -0.098 NA
ENDROOT
BRANCH   1   2
ATOM      2  C   UNL     1      -0.603  -6.485   1.684  0.00  0.00    +0.076 A 
ATOM      3  C   UNL     1      -0.158  -7.412   0.751  0.00  0.00    +0.028 A 
ATOM      4  C   UNL     1      -0.258  -8.764   1.023  0.00  0.00    +0.018 A 
ATOM      5  C   UNL     1      -0.802  -9.191   2.222  0.00  0.00    +0.030 A 
ATOM      6  C   UNL     1      -1.255  -8.267   3.166  0.00  0.00    +0.049 A 
ATOM      7  C   UNL     1      -1.143  -6.909   2.889  0.00  0.00    +0.051 A 
ATOM      8  N   UNL     1      -1.815  -8.675   4.373  0.00  0.00    -0.284 N 
ATOM      9  C   UNL     1      -1.636  -9.852   4.966  0.00  0.00    +0.227 C 
ATOM     10  O   UNL     1      -2.189 -10.049   6.028  0.00  0.00    -0.275 OA
ATOM     11  C   UNL     1      -0.788 -10.954   4.392  0.00  0.00    +0.170 C 
ATOM     12  S   UNL     1      -0.929 -10.915   2.579  0.00  0.00    -0.114 S 
ATOM     13  H   UNL     1      -2.390  -8.039   4.827  0.00  0.00    +0.155 HD
ENDBRANCH   1   2
BRANCH   1  14
ATOM     14  S   UNL     1       0.145  -4.606  -0.027  0.00  0.00    +0.085 S 
ATOM     15  O   UNL     1      -0.753  -5.022  -1.046  0.00  0.00    -0.149 OA
ATOM     16  O   UNL     1       1.514  -4.987  -0.016  0.00  0.00    -0.149 OA
BRANCH  14  18
ATOM     17  C   UNL     1       1.249  -2.160  -0.023  0.00  0.00    +0.030 C 
ATOM     18  C   UNL     1       0.113  -2.844  -0.016  0.00  0.00    +0.159 C 
BRANCH  17  23
ATOM     19  C   UNL     1      -0.017   1.375   0.010  0.00  0.00    +0.001 A 
ATOM     20  C   UNL     1       1.170   2.087   0.002  0.00  0.00    +0.001 A 
ATOM     21  C   UNL     1       2.382   1.422  -0.013  0.00  0.00    +0.020 A 
ATOM     22  C   UNL     1       2.416   0.041  -0.021  0.00  0.00    +0.048 A 
ATOM     23  C   UNL     1       1.221  -0.682  -0.014  0.00  0.00    -0.005 A 
ATOM     24  C   UNL     1       0.002  -0.004   0.002  0.00  0.00    +0.009 A 
ATOM     25 CL   UNL     1       3.938  -0.793  -0.042  0.00  0.00    -0.083 Cl
ENDBRANCH  17  23
ENDBRANCH  14  18
ENDBRANCH   1  14
TORSDOF 4
