REMARK  Name = ZINC39227515
REMARK  7 active torsions:
REMARK  status: ('A' for Active; 'I' for Inactive)
REMARK    1  A    between atoms: C_1  and  C_2
REMARK    2  A    between atoms: C_2  and  C_3
REMARK    3  A    between atoms: C_2  and  N_4
REMARK    4  A    between atoms: C_15  and  C_20
REMARK    5  A    between atoms: C_23  and  C_26
REMARK    6  A    between atoms: N_28  and  C_29
REMARK    7  A    between atoms: C_29  and  C_30
REMARK                            x       y       z     vdW  Elec       q    Type
REMARK                         _______ _______ _______ _____ _____    ______ ____
ROOT
ATOM      1  N   UNL     1      -1.376  -0.512   0.012  0.00  0.00    +0.381 N 
ATOM      2  C   UNL     1      -1.354  -1.980   0.014  0.00  0.00    -0.075 C 
ATOM      3  C   UNL     1      -2.785  -2.515   0.107  0.00  0.00    +0.030 C 
ATOM      4  C   UNL     1      -3.591  -2.013  -1.093  0.00  0.00    +0.114 C 
ATOM      5  C   UNL     1      -3.544  -0.484  -1.129  0.00  0.00    +0.030 C 
ATOM      6  C   UNL     1      -2.085  -0.025  -1.177  0.00  0.00    -0.075 C 
ATOM      7  C   UNL     1      -5.050  -2.472  -0.954  0.00  0.00    +0.127 C 
ATOM      8  C   UNL     1      -5.795  -1.968  -2.177  0.00  0.00    +0.170 C 
ATOM      9  O   UNL     1      -6.921  -1.524  -2.100  0.00  0.00    -0.292 OA
ATOM     10  C   UNL     1      -5.078  -2.045  -3.463  0.00  0.00    +0.060 A 
ATOM     11  C   UNL     1      -5.752  -1.839  -4.665  0.00  0.00    +0.023 A 
ATOM     12  C   UNL     1      -5.052  -1.912  -5.864  0.00  0.00    -0.017 A 
ATOM     13  C   UNL     1      -3.682  -2.191  -5.856  0.00  0.00    +0.012 A 
ATOM     14  C   UNL     1      -3.016  -2.396  -4.668  0.00  0.00    +0.047 A 
ATOM     15  C   UNL     1      -3.701  -2.328  -3.460  0.00  0.00    +0.132 A 
ATOM     16  O   UNL     1      -3.040  -2.540  -2.298  0.00  0.00    -0.485 OA
ATOM     17  H   UNL     1      -1.848  -0.184   0.842  0.00  0.00    -0.081 HD
ENDROOT
BRANCH  12  18
ATOM     18  C   UNL     1      -5.758  -1.696  -7.150  0.00  0.00    -0.018 A 
ATOM     19  C   UNL     1      -7.124  -1.413  -7.156  0.00  0.00    +0.009 A 
ATOM     20  C   UNL     1      -7.780  -1.213  -8.350  0.00  0.00    +0.013 A 
ATOM     21  C   UNL     1      -7.077  -1.292  -9.555  0.00  0.00    +0.037 A 
ATOM     22  C   UNL     1      -5.709  -1.575  -9.547  0.00  0.00    +0.013 A 
ATOM     23  C   UNL     1      -5.054  -1.770  -8.352  0.00  0.00    +0.009 A 
BRANCH  21  24
ATOM     24  C   UNL     1      -7.781  -1.078 -10.835  0.00  0.00    +0.244 C 
ATOM     25  O   UNL     1      -8.971  -0.832 -10.842  0.00  0.00    -0.270 OA
ATOM     26  N   UNL     1      -7.102  -1.155 -11.998  0.00  0.00    -0.309 N 
ATOM     27  H   UNL     1      -6.152  -1.351 -11.993  0.00  0.00    +0.149 HD
BRANCH  26  28
ATOM     28  C   UNL     1      -7.800  -0.942 -13.268  0.00  0.00    +0.136 C 
BRANCH  28  29
ATOM     29  C   UNL     1      -6.808  -1.084 -14.425  0.00  0.00    +0.135 C 
ATOM     30  C   UNL     1      -7.506  -0.743 -15.758  0.00  0.00    +0.035 C 
ATOM     31  C   UNL     1      -6.903  -1.798 -16.725  0.00  0.00    +0.031 C 
ATOM     32  C   UNL     1      -6.733  -3.007 -15.772  0.00  0.00    +0.160 C 
ATOM     33  O   UNL     1      -6.349  -2.438 -14.508  0.00  0.00    -0.375 OA
ENDBRANCH  28  29
ENDBRANCH  26  28
ENDBRANCH  21  24
ENDBRANCH  12  18
BRANCH   1  35
ATOM     34  C   UNL     1      -0.019   1.526   0.010  0.00  0.00    -0.014 C 
ATOM     35  C   UNL     1       0.002  -0.004   0.002  0.00  0.00    -0.075 C 
ATOM     36  C   UNL     1       0.742  -0.511   1.242  0.00  0.00    -0.014 C 
ENDBRANCH   1  35
TORSDOF 5
