REMARK  Name = ZINC20150829
REMARK  14 active torsions:
REMARK  status: ('A' for Active; 'I' for Inactive)
REMARK    1  A    between atoms: C_1  and  C_2
REMARK    2  A    between atoms: C_2  and  C_4
REMARK    3  A    between atoms: C_8  and  N_10
REMARK    4  A    between atoms: C_15  and  C_31
REMARK    5  A    between atoms: C_18  and  C_23
REMARK    6  A    between atoms: C_18  and  C_27
REMARK    7  A    between atoms: C_23  and  C_24
REMARK    8  A    between atoms: C_24  and  S_25
REMARK    9  A    between atoms: S_25  and  C_26
REMARK   10  A    between atoms: C_27  and  O_29
REMARK   11  A    between atoms: O_29  and  C_30
REMARK   12  A    between atoms: C_34  and  N_37
REMARK   13  A    between atoms: N_37  and  C_38
REMARK   14  A    between atoms: N_37  and  C_39
REMARK                            x       y       z     vdW  Elec       q    Type
REMARK                         _______ _______ _______ _____ _____    ______ ____
ROOT
ATOM      1  N   UNL     1      -2.927  -4.134   0.163  0.00  0.00    -0.210 N 
ATOM      2  C   UNL     1      -1.685  -4.718   0.183  0.00  0.00    +0.232 C 
ATOM      3  O   UNL     1      -0.625  -4.197   0.455  0.00  0.00    -0.274 OA
ATOM      4  C   UNL     1      -1.923  -6.093  -0.192  0.00  0.00    +0.111 C 
ATOM      5  C   UNL     1      -1.272  -7.409  -0.125  0.00  0.00    +0.097 C 
ATOM      6  N   UNL     1      -2.392  -8.387  -0.327  0.00  0.00    -0.293 NA
ATOM      7  C   UNL     1      -3.670  -7.604  -0.381  0.00  0.00    +0.130 C 
ATOM      8  C   UNL     1      -3.327  -6.369   0.479  0.00  0.00    +0.120 C 
ATOM      9  C   UNL     1      -3.941  -5.048   0.102  0.00  0.00    +0.232 C 
ATOM     10  O   UNL     1      -5.097  -4.839  -0.197  0.00  0.00    -0.274 OA
ATOM     11  H   UNL     1      -2.259  -8.919  -1.174  0.00  0.00    +0.124 HD
ENDROOT
BRANCH   1  16
ATOM     12  C   UNL     1      -2.261  -0.507   0.312  0.00  0.00    +0.019 A 
ATOM     13  C   UNL     1      -3.566  -0.005   0.293  0.00  0.00    +0.011 A 
ATOM     14  C   UNL     1      -4.637  -0.871   0.232  0.00  0.00    +0.003 A 
ATOM     15  C   UNL     1      -4.426  -2.237   0.188  0.00  0.00    +0.024 A 
ATOM     16  C   UNL     1      -3.134  -2.748   0.206  0.00  0.00    +0.045 A 
ATOM     17  C   UNL     1      -2.050  -1.888   0.263  0.00  0.00    +0.035 A 
BRANCH  12  19
ATOM     18  C   UNL     1      -1.347   1.902   0.430  0.00  0.00    +0.091 C 
ATOM     19  C   UNL     1      -1.115   0.414   0.377  0.00  0.00    +0.160 C 
ATOM     20  O   UNL     1       0.015  -0.024   0.388  0.00  0.00    -0.292 OA
ENDBRANCH  12  19
ENDBRANCH   1  16
BRANCH   5  21
ATOM     21  C   UNL     1      -0.631  -7.611   1.224  0.00  0.00    -0.030 A 
ATOM     22  C   UNL     1      -1.403  -7.994   2.305  0.00  0.00    +0.007 A 
ATOM     23  C   UNL     1      -0.818  -8.180   3.542  0.00  0.00    +0.023 A 
ATOM     24  C   UNL     1       0.548  -7.981   3.699  0.00  0.00    +0.029 A 
ATOM     25  C   UNL     1       1.321  -7.596   2.611  0.00  0.00    +0.023 A 
ATOM     26  C   UNL     1       0.730  -7.418   1.376  0.00  0.00    +0.007 A 
BRANCH  24  27
ATOM     27  N   UNL     1       1.143  -8.168   4.949  0.00  0.00    -0.336 N 
ATOM     28  C   UNL     1       0.327  -8.574   6.096  0.00  0.00    +0.129 C 
ATOM     29  C   UNL     1       2.584  -7.958   5.114  0.00  0.00    +0.129 C 
ENDBRANCH  24  27
ENDBRANCH   5  21
BRANCH   7  30
ATOM     30  C   UNL     1      -4.799  -8.383   0.243  0.00  0.00    +0.328 C 
ATOM     31  O   UNL     1      -5.649  -7.808   0.882  0.00  0.00    -0.249 OA
BRANCH  30  32
ATOM     32  O   UNL     1      -4.862  -9.715   0.090  0.00  0.00    -0.467 OA
ATOM     33  C   UNL     1      -5.960 -10.388   0.709  0.00  0.00    +0.280 C 
ENDBRANCH  30  32
ENDBRANCH   7  30
BRANCH   7  34
ATOM     34  C   UNL     1      -4.008  -7.216  -1.822  0.00  0.00    +0.045 C 
BRANCH  34  35
ATOM     35  C   UNL     1      -4.255  -8.482  -2.646  0.00  0.00    +0.071 C 
BRANCH  35  36
ATOM     36  S   UNL     1      -4.656  -8.022  -4.354  0.00  0.00    -0.164 S 
ATOM     37  C   UNL     1      -4.916  -9.612  -5.187  0.00  0.00    +0.084 C 
ENDBRANCH  35  36
ENDBRANCH  34  35
ENDBRANCH   7  34
TORSDOF 9
