REMARK  Name = ZINC66366065
REMARK  10 active torsions:
REMARK  status: ('A' for Active; 'I' for Inactive)
REMARK    1  A    between atoms: C_1  and  C_2
REMARK    2  A    between atoms: C_2  and  C_3
REMARK    3  A    between atoms: C_3  and  C_5
REMARK    4  A    between atoms: C_3  and  N_8
REMARK    5  A    between atoms: C_5  and  C_6
REMARK    6  A    between atoms: C_5  and  C_7
REMARK    7  A    between atoms: N_11  and  N_12
REMARK    8  A    between atoms: C_13  and  C_15
REMARK    9  A    between atoms: C_18  and  S_21
REMARK   10  A    between atoms: S_21  and  N_24
REMARK                            x       y       z     vdW  Elec       q    Type
REMARK                         _______ _______ _______ _____ _____    ______ ____
ROOT
ATOM      1  N   UNL     1      -1.530   0.600  -4.615  0.00  0.00    -0.229 N 
ATOM      2  C   UNL     1      -2.241   0.953  -5.704  0.00  0.00    +0.260 C 
ATOM      3  O   UNL     1      -1.686   1.081  -6.777  0.00  0.00    -0.269 OA
ATOM      4  H   UNL     1      -1.973   0.498  -3.758  0.00  0.00    +0.173 HD
ENDROOT
BRANCH   1   8
ATOM      5  N   UNL     1      -0.055  -0.114  -2.441  0.00  0.00    -0.295 N 
ATOM      6  C   UNL     1       0.561   0.028  -3.631  0.00  0.00    +0.316 C 
ATOM      7  O   UNL     1       1.758  -0.163  -3.722  0.00  0.00    -0.251 OA
ATOM      8  N   UNL     1      -0.150   0.381  -4.720  0.00  0.00    -0.218 N 
ATOM      9  H   UNL     1      -1.010   0.038  -2.368  0.00  0.00    +0.151 HD
ATOM     10  H   UNL     1       0.293   0.483  -5.577  0.00  0.00    +0.174 HD
BRANCH   5  11
ATOM     11  C   UNL     1       0.718  -0.497  -1.257  0.00  0.00    +0.077 C 
BRANCH  11  12
ATOM     12  C   UNL     1       0.849  -2.021  -1.205  0.00  0.00    +0.003 C 
ATOM     13  C   UNL     1       1.565  -2.514  -2.464  0.00  0.00    +0.009 C 
ATOM     14  C   UNL     1       1.657  -2.422   0.031  0.00  0.00    +0.009 C 
ENDBRANCH  11  12
BRANCH  11  16
ATOM     15  C   UNL     1      -0.019   1.526   0.010  0.00  0.00    +0.006 C 
ATOM     16  C   UNL     1       0.002  -0.004   0.002  0.00  0.00    +0.019 C 
ENDBRANCH  11  16
ENDBRANCH   5  11
ENDBRANCH   1   8
BRANCH   2  17
ATOM     17  C   UNL     1      -3.697   1.185  -5.593  0.00  0.00    +0.038 A 
ATOM     18  C   UNL     1      -4.337   1.045  -4.360  0.00  0.00    +0.015 A 
ATOM     19  C   UNL     1      -5.696   1.263  -4.263  0.00  0.00    +0.029 A 
ATOM     20  C   UNL     1      -6.424   1.620  -5.384  0.00  0.00    +0.106 A 
ATOM     21  C   UNL     1      -5.796   1.760  -6.609  0.00  0.00    +0.029 A 
ATOM     22  C   UNL     1      -4.437   1.551  -6.718  0.00  0.00    +0.015 A 
BRANCH  20  23
ATOM     23  S   UNL     1      -8.159   1.897  -5.252  0.00  0.00    +0.061 S 
ATOM     24  O   UNL     1      -8.704   1.687  -6.547  0.00  0.00    -0.153 OA
ATOM     25  O   UNL     1      -8.600   1.170  -4.113  0.00  0.00    -0.153 OA
BRANCH  23  26
ATOM     26  N   UNL     1      -8.374   3.501  -4.902  0.00  0.00    -0.177 NA
ATOM     27  C   UNL     1      -8.429   4.084  -3.553  0.00  0.00    +0.109 C 
ATOM     28  C   UNL     1      -8.668   5.600  -3.719  0.00  0.00    +0.018 C 
ATOM     29  C   UNL     1      -9.298   5.700  -5.133  0.00  0.00    +0.018 C 
ATOM     30  C   UNL     1      -8.535   4.582  -5.891  0.00  0.00    +0.109 C 
ENDBRANCH  23  26
ENDBRANCH  20  23
ENDBRANCH   2  17
TORSDOF 7
