REMARK  Name = ZINC09012822
REMARK  9 active torsions:
REMARK  status: ('A' for Active; 'I' for Inactive)
REMARK    1  A    between atoms: C_1  and  N_61
REMARK    2  A    between atoms: C_8  and  O_31
REMARK    3  A    between atoms: C_10  and  C_12
REMARK    4  A    between atoms: C_12  and  N_13
REMARK    5  A    between atoms: C_14  and  C_15
REMARK    6  A    between atoms: C_19  and  S_30
REMARK    7  A    between atoms: N_20  and  C_23
REMARK    8  A    between atoms: C_23  and  C_24
REMARK    9  A    between atoms: O_31  and  C_32
REMARK                            x       y       z     vdW  Elec       q    Type
REMARK                         _______ _______ _______ _____ _____    ______ ____
ROOT
ATOM      1  N   UNL     1       2.329  -4.061   1.018  0.00  0.00    -0.296 NA
ATOM      2  C   UNL     1       3.146  -4.672   1.899  0.00  0.00    +0.099 C 
ENDROOT
BRANCH   2   3
ATOM      3  C   UNL     1       3.137  -6.050   2.009  0.00  0.00    +0.204 C 
ATOM      4  C   UNL     1       2.153  -6.877   1.280  0.00  0.00    +0.255 C 
ATOM      5  O   UNL     1       1.317  -6.360   0.557  0.00  0.00    -0.272 OA
ATOM      6  N   UNL     1       2.204  -8.209   1.428  0.00  0.00    -0.158 NA
ATOM      7  C   UNL     1       3.090  -8.789   2.205  0.00  0.00    +0.152 C 
ATOM      8  N   UNL     1       4.030  -8.107   2.916  0.00  0.00    -0.247 N 
ATOM      9  C   UNL     1       4.105  -6.760   2.863  0.00  0.00    +0.239 C 
ATOM     10  O   UNL     1       4.945  -6.152   3.499  0.00  0.00    -0.274 OA
BRANCH   7  11
ATOM     11  S   UNL     1       3.062 -10.546   2.332  0.00  0.00    -0.110 S 
ATOM     12  H   UNL     1       1.983 -10.837   1.473  0.00  0.00    +0.110 HD
ENDBRANCH   7  11
BRANCH   8  13
ATOM     13  C   UNL     1       4.975  -8.847   3.755  0.00  0.00    +0.150 C 
BRANCH  13  14
ATOM     14  C   UNL     1       4.400  -9.008   5.139  0.00  0.00    -0.030 A 
ATOM     15  C   UNL     1       4.653  -8.054   6.107  0.00  0.00    +0.005 A 
ATOM     16  C   UNL     1       4.122  -8.198   7.375  0.00  0.00    +0.000 A 
ATOM     17  C   UNL     1       3.346  -9.302   7.678  0.00  0.00    +0.000 A 
ATOM     18  C   UNL     1       3.098 -10.258   6.711  0.00  0.00    +0.000 A 
ATOM     19  C   UNL     1       3.625 -10.111   5.442  0.00  0.00    +0.005 A 
ENDBRANCH  13  14
ENDBRANCH   8  13
ENDBRANCH   2   3
BRANCH   1  20
ATOM     20  C   UNL     1       2.338  -2.601   0.902  0.00  0.00    +0.130 C 
BRANCH  20  30
ATOM     21  C   UNL     1       2.747  -2.273  -1.958  0.00  0.00    -0.095 C 
ATOM     22  C   UNL     1       0.355  -2.489  -2.286  0.00  0.00    -0.074 C 
ATOM     23  C   UNL     1      -0.843  -3.322  -1.829  0.00  0.00    +0.017 C 
ATOM     24  C   UNL     1      -1.073  -3.126  -0.352  0.00  0.00    -0.040 A 
ATOM     25  C   UNL     1      -2.296  -3.505   0.181  0.00  0.00    +0.053 A 
ATOM     26  C   UNL     1      -2.550  -3.354   1.534  0.00  0.00    +0.170 A 
ATOM     27  C   UNL     1      -1.571  -2.818   2.364  0.00  0.00    +0.208 A 
ATOM     28  C   UNL     1      -0.349  -2.438   1.827  0.00  0.00    +0.167 A 
ATOM     29  C   UNL     1      -0.100  -2.591   0.466  0.00  0.00    -0.011 A 
ATOM     30  C   UNL     1       1.240  -2.160  -0.069  0.00  0.00    -0.012 C 
ATOM     31  O   UNL     1      -2.056  -2.773   3.640  0.00  0.00    -0.449 OA
ATOM     32  C   UNL     1      -3.189  -3.663   3.651  0.00  0.00    +0.467 C 
ATOM     33  O   UNL     1      -3.651  -3.644   2.288  0.00  0.00    -0.452 OA
ATOM     34  N   UNL     1       1.483  -2.784  -1.380  0.00  0.00    +0.384 N 
ATOM     35  H   UNL     1       1.558  -3.801  -1.258  0.00  0.00    -0.081 HD
BRANCH  28  36
ATOM     36  O   UNL     1       0.611  -1.913   2.635  0.00  0.00    -0.491 OA
ATOM     37  C   UNL     1       0.611  -0.495   2.805  0.00  0.00    +0.277 C 
ENDBRANCH  28  36
ENDBRANCH  20  30
ENDBRANCH   1  20
TORSDOF 7
