REMARK  Name = ZINC12314502
REMARK  9 active torsions:
REMARK  status: ('A' for Active; 'I' for Inactive)
REMARK    1  A    between atoms: C_5  and  C_7
REMARK    2  A    between atoms: C_8  and  C_19
REMARK    3  A    between atoms: N_10  and  C_12
REMARK    4  A    between atoms: C_19  and  N_57
REMARK    5  A    between atoms: C_20  and  C_21
REMARK    6  A    between atoms: C_20  and  N_57
REMARK    7  A    between atoms: C_26  and  C_27
REMARK    8  A    between atoms: C_26  and  N_60
REMARK    9  A    between atoms: C_27  and  O_28
REMARK                            x       y       z     vdW  Elec       q    Type
REMARK                         _______ _______ _______ _____ _____    ______ ____
ROOT
ATOM      1  C   UNL     1       0.893   4.525   1.238  0.00  0.00    +0.096 A 
ATOM      2  C   UNL     1       1.098   3.669   0.138  0.00  0.00    -0.019 A 
ATOM      3  C   UNL     1       1.165   4.432  -0.975  0.00  0.00    +0.116 A 
ATOM      4  N   UNL     1       0.998   5.728  -0.602  0.00  0.00    -0.239 N 
ATOM      5  N   UNL     1       0.834   5.761   0.788  0.00  0.00    -0.166 NA
ENDROOT
BRANCH   1  10
ATOM      6  C   UNL     1       1.565   2.833   4.528  0.00  0.00    +0.001 A 
ATOM      7  C   UNL     1       0.530   3.326   5.302  0.00  0.00    +0.001 A 
ATOM      8  C   UNL     1      -0.388   4.207   4.761  0.00  0.00    +0.020 A 
ATOM      9  C   UNL     1      -0.272   4.605   3.443  0.00  0.00    +0.050 A 
ATOM     10  C   UNL     1       0.766   4.107   2.656  0.00  0.00    +0.021 A 
ATOM     11  C   UNL     1       1.687   3.219   3.208  0.00  0.00    +0.011 A 
ATOM     12 CL   UNL     1      -1.419   5.718   2.765  0.00  0.00    -0.083 Cl
ENDBRANCH   1  10
BRANCH   4  13
ATOM     13  C   UNL     1       0.998   6.838  -1.459  0.00  0.00    +0.066 A 
ATOM     14  C   UNL     1       1.178   6.662  -2.824  0.00  0.00    +0.030 A 
ATOM     15  C   UNL     1       1.172   7.756  -3.667  0.00  0.00    +0.040 A 
ATOM     16  C   UNL     1       0.996   9.029  -3.150  0.00  0.00    +0.124 A 
ATOM     17  C   UNL     1       0.821   9.206  -1.788  0.00  0.00    +0.040 A 
ATOM     18  C   UNL     1       0.822   8.114  -0.942  0.00  0.00    +0.030 A 
ATOM     19  F   UNL     1       0.996  10.098  -3.975  0.00  0.00    -0.205 F 
ENDBRANCH   4  13
BRANCH   2  20
ATOM     20  C   UNL     1       1.228   2.169   0.194  0.00  0.00    -0.043 C 
BRANCH  20  21
ATOM     21  N   UNL     1      -0.113   1.574   0.348  0.00  0.00    +0.382 N 
ATOM     22  H   UNL     1      -0.671   1.775  -0.490  0.00  0.00    -0.085 HD
ATOM     23  H   UNL     1      -0.573   1.981   1.171  0.00  0.00    -0.085 HD
BRANCH  21  24
ATOM     24  C   UNL     1      -0.008   0.113   0.523  0.00  0.00    -0.079 C 
BRANCH  24  25
ATOM     25  C   UNL     1      -1.400  -0.461   0.799  0.00  0.00    -0.032 C 
ATOM     26  C   UNL     1      -1.914   0.068   2.141  0.00  0.00    -0.017 C 
ATOM     27  C   UNL     1      -3.279  -0.556   2.440  0.00  0.00    -0.079 C 
ATOM     28  C   UNL     1      -2.703  -2.553   1.194  0.00  0.00    -0.079 C 
ATOM     29  C   UNL     1      -1.321  -1.989   0.857  0.00  0.00    -0.017 C 
ATOM     30  N   UNL     1      -3.130  -2.025   2.508  0.00  0.00    +0.381 N 
ATOM     31  H   UNL     1      -2.415  -2.256   3.208  0.00  0.00    -0.082 HD
BRANCH  30  32
ATOM     32  C   UNL     1      -4.410  -2.644   2.908  0.00  0.00    -0.051 C 
BRANCH  32  33
ATOM     33  C   UNL     1      -5.567  -2.057   2.098  0.00  0.00    +0.137 C 
BRANCH  33  34
ATOM     34  O   UNL     1      -5.408  -2.404   0.720  0.00  0.00    -0.397 OA
ATOM     35  H   UNL     1      -6.108  -2.063   0.146  0.00  0.00    +0.209 HD
ENDBRANCH  33  34
ENDBRANCH  32  33
ENDBRANCH  30  32
ENDBRANCH  24  25
ENDBRANCH  21  24
ENDBRANCH  20  21
ENDBRANCH   2  20
TORSDOF 9
