REMARK  Name = ZINC02288873
REMARK  8 active torsions:
REMARK  status: ('A' for Active; 'I' for Inactive)
REMARK    1  A    between atoms: C_1  and  C_2
REMARK    2  A    between atoms: N_5  and  C_7
REMARK    3  A    between atoms: C_14  and  N_34
REMARK    4  A    between atoms: C_15  and  C_32
REMARK    5  A    between atoms: C_16  and  C_18
REMARK    6  A    between atoms: C_21  and  O_24
REMARK    7  A    between atoms: O_24  and  C_25
REMARK    8  A    between atoms: C_25  and  C_26
REMARK                            x       y       z     vdW  Elec       q    Type
REMARK                         _______ _______ _______ _____ _____    ______ ____
ROOT
ATOM      1  C   UNL     1      -4.665   6.595   1.016  0.00  0.00    +0.068 C 
ATOM      2  C   UNL     1      -3.971   5.364   0.489  0.00  0.00    +0.068 A 
ATOM      3  C   UNL     1      -4.548   4.383  -0.306  0.00  0.00    +0.050 A 
ATOM      4  C   UNL     1      -3.595   3.441  -0.576  0.00  0.00    +0.230 A 
ATOM      5  N   UNL     1      -2.458   3.824   0.046  0.00  0.00    -0.200 N 
ATOM      6  N   UNL     1      -2.719   5.036   0.704  0.00  0.00    -0.168 NA
ATOM      7  O   UNL     1      -3.843   2.342  -1.330  0.00  0.00    -0.423 OA
ATOM      8  C   UNL     1      -4.980   2.328  -2.055  0.00  0.00    +0.200 C 
ATOM      9  C   UNL     1      -5.997   3.200  -1.877  0.00  0.00    +0.098 C 
ATOM     10  C   UNL     1      -5.957   4.287  -0.832  0.00  0.00    +0.101 C 
ENDROOT
BRANCH   5  11
ATOM     11  C   UNL     1      -1.236   3.138   0.031  0.00  0.00    +0.069 A 
ATOM     12  C   UNL     1      -1.218   1.749   0.017  0.00  0.00    +0.028 A 
ATOM     13  C   UNL     1      -0.013   1.076   0.008  0.00  0.00    +0.002 A 
ATOM     14  C   UNL     1       1.176   1.783   0.000  0.00  0.00    +0.000 A 
ATOM     15  C   UNL     1       1.161   3.166   0.008  0.00  0.00    +0.002 A 
ATOM     16  C   UNL     1      -0.041   3.845   0.023  0.00  0.00    +0.028 A 
ENDBRANCH   5  11
BRANCH  10  17
ATOM     17  C   UNL     1      -6.898   3.943   0.294  0.00  0.00    -0.034 A 
ATOM     18  C   UNL     1      -6.731   2.765   0.998  0.00  0.00    +0.008 A 
ATOM     19  C   UNL     1      -7.589   2.450   2.034  0.00  0.00    +0.046 A 
ATOM     20  C   UNL     1      -8.625   3.312   2.361  0.00  0.00    +0.121 A 
ATOM     21  C   UNL     1      -8.794   4.492   1.650  0.00  0.00    +0.046 A 
ATOM     22  C   UNL     1      -7.930   4.804   0.619  0.00  0.00    +0.008 A 
BRANCH  20  23
ATOM     23  O   UNL     1      -9.474   3.002   3.376  0.00  0.00    -0.487 OA
BRANCH  23  24
ATOM     24  C   UNL     1      -9.240   1.772   4.064  0.00  0.00    +0.264 C 
BRANCH  24  25
ATOM     25  C   UNL     1     -10.273   1.598   5.148  0.00  0.00    -0.010 A 
ATOM     26  C   UNL     1     -10.027   2.082   6.420  0.00  0.00    +0.007 A 
ATOM     27  C   UNL     1     -10.977   1.928   7.413  0.00  0.00    +0.000 A 
ATOM     28  C   UNL     1     -12.166   1.280   7.137  0.00  0.00    +0.000 A 
ATOM     29  C   UNL     1     -12.409   0.791   5.867  0.00  0.00    +0.000 A 
ATOM     30  C   UNL     1     -11.462   0.950   4.873  0.00  0.00    +0.007 A 
ENDBRANCH  24  25
ENDBRANCH  23  24
ENDBRANCH  20  23
ENDBRANCH  10  17
BRANCH   8  31
ATOM     31  N   UNL     1      -5.113   1.371  -3.031  0.00  0.00    -0.328 N 
ATOM     32  H   UNL     1      -5.919   1.336  -3.569  0.00  0.00    +0.145 HD
ATOM     33  H   UNL     1      -4.400   0.731  -3.182  0.00  0.00    +0.145 HD
ENDBRANCH   8  31
BRANCH   9  34
ATOM     34  C   UNL     1      -7.154   3.090  -2.713  0.00  0.00    +0.101 C 
ATOM     35  N   UNL     1      -8.073   3.002  -3.376  0.00  0.00    -0.191 NA
ENDBRANCH   9  34
TORSDOF 7
