REMARK  Name = ZINC35669366
REMARK  12 active torsions:
REMARK  status: ('A' for Active; 'I' for Inactive)
REMARK    1  A    between atoms: C_1  and  C_2
REMARK    2  A    between atoms: C_2  and  O_3
REMARK    3  A    between atoms: O_3  and  C_4
REMARK    4  A    between atoms: C_6  and  C_14
REMARK    5  A    between atoms: C_9  and  O_10
REMARK    6  A    between atoms: O_10  and  C_11
REMARK    7  A    between atoms: C_11  and  C_12
REMARK    8  A    between atoms: N_18  and  C_32
REMARK    9  A    between atoms: N_20  and  C_21
REMARK   10  A    between atoms: C_24  and  C_27
REMARK   11  A    between atoms: C_27  and  O_29
REMARK   12  A    between atoms: O_29  and  C_30
REMARK                            x       y       z     vdW  Elec       q    Type
REMARK                         _______ _______ _______ _____ _____    ______ ____
ROOT
ATOM      1  C   UNL     1      -0.115  -5.391  -2.177  0.00  0.00    +0.028 C 
ATOM      2  C   UNL     1      -0.086  -6.627  -1.616  0.00  0.00    +0.078 C 
ATOM      3  C   UNL     1       0.965  -7.661  -1.682  0.00  0.00    +0.259 C 
ATOM      4  O   UNL     1       1.996  -7.481  -2.303  0.00  0.00    -0.269 OA
ATOM      5  N   UNL     1       0.736  -8.791  -1.035  0.00  0.00    -0.249 N 
ATOM      6  C   UNL     1      -0.436  -8.976  -0.338  0.00  0.00    +0.168 C 
ATOM      7  N   UNL     1      -0.820 -10.029   0.353  0.00  0.00    -0.226 NA
ATOM      8  S   UNL     1      -1.306  -7.438  -0.592  0.00  0.00    -0.049 S 
ATOM      9  C   UNL     1       1.739  -9.858  -1.062  0.00  0.00    +0.140 C 
ENDROOT
BRANCH   1  12
ATOM     10  C   UNL     1      -2.438  -2.448  -2.252  0.00  0.00    +0.164 A 
ATOM     11  C   UNL     1      -1.282  -3.201  -2.312  0.00  0.00    +0.057 A 
ATOM     12  C   UNL     1      -1.341  -4.586  -2.114  0.00  0.00    -0.019 A 
ATOM     13  C   UNL     1      -2.572  -5.200  -1.856  0.00  0.00    +0.027 A 
ATOM     14  C   UNL     1      -3.721  -4.441  -1.798  0.00  0.00    +0.064 A 
ATOM     15  C   UNL     1      -3.660  -3.066  -1.990  0.00  0.00    +0.176 A 
ATOM     16 BR   UNL     1      -5.384  -5.271  -1.450  0.00  0.00    -0.046 Br
BRANCH  10  17
ATOM     17  O   UNL     1      -2.385  -1.103  -2.444  0.00  0.00    -0.489 OA
BRANCH  17  19
ATOM     18  C   UNL     1      -1.238   0.976  -2.895  0.00  0.00    +0.048 C 
ATOM     19  C   UNL     1      -1.100  -0.536  -2.709  0.00  0.00    +0.226 C 
ENDBRANCH  17  19
ENDBRANCH  10  17
BRANCH  15  20
ATOM     20  O   UNL     1      -4.795  -2.322  -1.925  0.00  0.00    -0.487 OA
BRANCH  20  21
ATOM     21  C   UNL     1      -5.519  -2.137  -3.143  0.00  0.00    +0.226 C 
ATOM     22  C   UNL     1      -6.758  -1.280  -2.875  0.00  0.00    +0.048 C 
ENDBRANCH  20  21
ENDBRANCH  15  20
ENDBRANCH   1  12
BRANCH   7  23
ATOM     23  C   UNL     1      -0.076 -11.170   0.326  0.00  0.00    +0.067 A 
ATOM     24  C   UNL     1       0.944 -11.363   1.266  0.00  0.00    +0.028 A 
ATOM     25  C   UNL     1       1.689 -12.505   1.239  0.00  0.00    +0.017 A 
ATOM     26  C   UNL     1       1.434 -13.485   0.271  0.00  0.00    +0.059 A 
ATOM     27  C   UNL     1       0.415 -13.291  -0.669  0.00  0.00    +0.017 A 
ATOM     28  C   UNL     1      -0.335 -12.152  -0.638  0.00  0.00    +0.028 A 
BRANCH  26  29
ATOM     29  C   UNL     1       2.239 -14.717   0.242  0.00  0.00    +0.339 C 
ATOM     30  O   UNL     1       3.124 -14.885   1.058  0.00  0.00    -0.245 OA
BRANCH  29  31
ATOM     31  O   UNL     1       1.993 -15.660  -0.690  0.00  0.00    -0.464 OA
ATOM     32  C   UNL     1       2.812 -16.830  -0.659  0.00  0.00    +0.280 C 
ENDBRANCH  29  31
ENDBRANCH  26  29
ENDBRANCH   7  23
TORSDOF 8
