REMARK  Name = ZINC65254703
REMARK  7 active torsions:
REMARK  status: ('A' for Active; 'I' for Inactive)
REMARK    1  A    between atoms: C_1  and  C_2
REMARK    2  A    between atoms: C_2  and  N_3
REMARK    3  A    between atoms: C_8  and  S_13
REMARK    4  A    between atoms: S_13  and  N_16
REMARK    5  A    between atoms: N_16  and  C_17
REMARK    6  A    between atoms: C_20  and  C_24
REMARK    7  A    between atoms: C_22  and  C_23
REMARK                            x       y       z     vdW  Elec       q    Type
REMARK                         _______ _______ _______ _____ _____    ______ ____
ROOT
ATOM      1  N   UNL     1      -1.372  -0.511   0.012  0.00  0.00    -0.295 N 
ATOM      2  C   UNL     1      -2.025  -0.757   1.292  0.00  0.00    +0.129 C 
ATOM      3  C   UNL     1      -3.502  -0.363   1.288  0.00  0.00    +0.141 C 
ATOM      4  N   UNL     1      -4.139  -0.901   0.083  0.00  0.00    -0.340 N 
ATOM      5  C   UNL     1      -5.408  -1.292  -0.128  0.00  0.00    +0.115 A 
ATOM      6  C   UNL     1      -5.527  -1.722  -1.411  0.00  0.00    +0.128 A 
ATOM      7  C   UNL     1      -4.274  -1.593  -2.029  0.00  0.00    +0.061 A 
ATOM      8  C   UNL     1      -3.424  -1.083  -1.094  0.00  0.00    +0.107 A 
ATOM      9  C   UNL     1      -2.000  -0.732  -1.168  0.00  0.00    +0.263 C 
ATOM     10  O   UNL     1      -1.415  -0.648  -2.232  0.00  0.00    -0.268 OA
ENDROOT
BRANCH   6  11
ATOM     11  S   UNL     1      -6.996  -2.336  -2.166  0.00  0.00    +0.093 S 
ATOM     12  O   UNL     1      -6.583  -3.161  -3.247  0.00  0.00    -0.148 OA
ATOM     13  O   UNL     1      -7.823  -2.815  -1.115  0.00  0.00    -0.148 OA
BRANCH  11  14
ATOM     14  N   UNL     1      -7.781  -1.040  -2.833  0.00  0.00    -0.098 NA
BRANCH  14  15
ATOM     15  C   UNL     1      -8.991  -1.227  -3.506  0.00  0.00    +0.077 A 
ATOM     16  C   UNL     1      -9.539  -2.499  -3.612  0.00  0.00    +0.027 A 
ATOM     17  C   UNL     1     -10.735  -2.681  -4.278  0.00  0.00    +0.005 A 
ATOM     18  C   UNL     1     -11.387  -1.598  -4.840  0.00  0.00    -0.050 A 
ATOM     19  C   UNL     1     -10.844  -0.331  -4.736  0.00  0.00    +0.008 A 
ATOM     20  C   UNL     1      -9.651  -0.141  -4.066  0.00  0.00    -0.026 A 
ATOM     21  C   UNL     1      -9.063   1.242  -3.949  0.00  0.00    +0.046 C 
ATOM     22  C   UNL     1     -12.692  -1.800  -5.566  0.00  0.00    +0.044 C 
ENDBRANCH  14  15
ENDBRANCH  11  14
ENDBRANCH   6  11
BRANCH   1  24
ATOM     23  C   UNL     1      -0.019   1.526   0.010  0.00  0.00    +0.024 C 
ATOM     24  C   UNL     1       0.002  -0.004   0.002  0.00  0.00    +0.105 C 
ENDBRANCH   1  24
TORSDOF 4
