REMARK  Name = ZINC26786784
REMARK  7 active torsions:
REMARK  status: ('A' for Active; 'I' for Inactive)
REMARK    1  A    between atoms: C_1  and  C_2
REMARK    2  A    between atoms: C_5  and  S_8
REMARK    3  A    between atoms: S_8  and  N_11
REMARK    4  A    between atoms: C_14  and  N_23
REMARK    5  A    between atoms: N_23  and  N_24
REMARK    6  A    between atoms: C_25  and  C_27
REMARK    7  A    between atoms: C_34  and  O_37
REMARK                            x       y       z     vdW  Elec       q    Type
REMARK                         _______ _______ _______ _____ _____    ______ ____
ROOT
ATOM      1  N   UNL     1       7.048   9.625  -0.017  0.00  0.00    -0.129 NA
ATOM      2  C   UNL     1       5.942  10.313   0.071  0.00  0.00    +0.091 C 
ATOM      3  C   UNL     1       4.648   9.621   0.058  0.00  0.00    +0.058 C 
ATOM      4  C   UNL     1       3.505  10.335   0.150  0.00  0.00    +0.094 C 
ATOM      5  C   UNL     1       3.566  11.804   0.258  0.00  0.00    +0.205 C 
ATOM      6  O   UNL     1       2.537  12.448   0.338  0.00  0.00    -0.286 OA
ATOM      7  C   UNL     1       4.866  12.496   0.276  0.00  0.00    +0.010 C 
ATOM      8  C   UNL     1       6.000  11.790   0.184  0.00  0.00    -0.010 C 
ATOM      9  C   UNL     1       7.349  12.455   0.191  0.00  0.00    +0.064 C 
ATOM     10  C   UNL     1       7.288  13.814   0.815  0.00  0.00    -0.026 C 
ATOM     11  C   UNL     1       6.190  14.498   0.904  0.00  0.00    -0.026 C 
ATOM     12  C   UNL     1       4.876  13.996   0.392  0.00  0.00    +0.066 C 
ENDROOT
BRANCH   1  13
ATOM     13  S   UNL     1       8.342  10.238  -0.849  0.00  0.00    +0.099 S 
ATOM     14  O   UNL     1       7.809  11.073  -1.868  0.00  0.00    -0.146 OA
ATOM     15  O   UNL     1       9.262  10.715   0.123  0.00  0.00    -0.146 OA
BRANCH  13  20
ATOM     16  C   UNL     1      11.026   5.610  -3.638  0.00  0.00    +0.044 C 
ATOM     17  C   UNL     1      10.355   6.766  -2.942  0.00  0.00    -0.050 A 
ATOM     18  C   UNL     1       9.350   7.468  -3.580  0.00  0.00    +0.005 A 
ATOM     19  C   UNL     1       8.735   8.528  -2.940  0.00  0.00    +0.029 A 
ATOM     20  C   UNL     1       9.125   8.886  -1.664  0.00  0.00    +0.112 A 
ATOM     21  C   UNL     1      10.135   8.188  -1.028  0.00  0.00    +0.029 A 
ATOM     22  C   UNL     1      10.746   7.124  -1.665  0.00  0.00    +0.005 A 
ENDBRANCH  13  20
ENDBRANCH   1  13
BRANCH   4  23
ATOM     23  N   UNL     1       2.275   9.688   0.138  0.00  0.00    -0.261 N 
ATOM     24  H   UNL     1       1.346  10.271   0.213  0.00  0.00    +0.170 HD
BRANCH  23  25
ATOM     25  N   UNL     1       2.220   8.292   0.029  0.00  0.00    -0.232 N 
ATOM     26  C   UNL     1       1.027   7.664   0.017  0.00  0.00    +0.260 C 
ATOM     27  O   UNL     1      -0.000   8.309   0.100  0.00  0.00    -0.269 OA
ATOM     28  H   UNL     1       3.149   7.709  -0.046  0.00  0.00    +0.173 HD
BRANCH  26  29
ATOM     29  C   UNL     1       0.968   6.193  -0.097  0.00  0.00    +0.039 A 
ATOM     30  C   UNL     1       2.160   5.452  -0.192  0.00  0.00    +0.014 A 
ATOM     31  C   UNL     1       2.131   4.099  -0.299  0.00  0.00    +0.009 A 
ATOM     32  C   UNL     1       0.898   3.420  -0.314  0.00  0.00    -0.014 A 
ATOM     33  C   UNL     1       0.846   2.021  -0.423  0.00  0.00    +0.009 A 
ATOM     34  C   UNL     1      -0.358   1.384  -0.436  0.00  0.00    +0.004 A 
ATOM     35  C   UNL     1      -1.550   2.097  -0.348  0.00  0.00    +0.046 A 
ATOM     36  C   UNL     1      -1.542   3.469  -0.234  0.00  0.00    +0.125 A 
ATOM     37  C   UNL     1      -0.309   4.157  -0.217  0.00  0.00    +0.024 A 
ATOM     38  C   UNL     1      -0.261   5.553  -0.109  0.00  0.00    +0.025 A 
BRANCH  36  39
ATOM     39  O   UNL     1      -2.710   4.155  -0.143  0.00  0.00    -0.506 OA
ATOM     40  H   UNL     1      -2.698   5.252  -0.052  0.00  0.00    +0.292 HD
ENDBRANCH  36  39
ENDBRANCH  26  29
ENDBRANCH  23  25
ENDBRANCH   4  23
TORSDOF 6
