REMARK  Name = ZINC04819859
REMARK  13 active torsions:
REMARK  status: ('A' for Active; 'I' for Inactive)
REMARK    1  A    between atoms: C_1  and  C_2
REMARK    2  A    between atoms: C_4  and  C_25
REMARK    3  A    between atoms: C_6  and  C_16
REMARK    4  A    between atoms: C_8  and  C_15
REMARK    5  A    between atoms: C_10  and  C_11
REMARK    6  A    between atoms: C_10  and  O_14
REMARK    7  A    between atoms: C_11  and  C_12
REMARK    8  A    between atoms: C_19  and  N_22
REMARK    9  A    between atoms: N_22  and  C_23
REMARK   10  A    between atoms: N_22  and  C_24
REMARK   11  A    between atoms: C_28  and  N_31
REMARK   12  A    between atoms: N_31  and  C_32
REMARK   13  A    between atoms: N_31  and  C_33
REMARK                            x       y       z     vdW  Elec       q    Type
REMARK                         _______ _______ _______ _____ _____    ______ ____
ROOT
ATOM      1  C   UNL     1       1.416   3.402   1.139  0.00  0.00    +0.009 C 
ATOM      2  C   UNL     1       1.563   2.427  -0.030  0.00  0.00    +0.008 C 
ATOM      3  C   UNL     1       1.061   1.044   0.391  0.00  0.00    -0.034 C 
ATOM      4  C   UNL     1      -1.179   1.559  -0.378  0.00  0.00    -0.034 C 
ATOM      5  C   UNL     1      -0.743   2.958  -0.822  0.00  0.00    +0.008 C 
ATOM      6  C   UNL     1       0.735   2.925  -1.218  0.00  0.00    +0.072 C 
ATOM      7  C   UNL     1      -1.584   3.397  -2.023  0.00  0.00    +0.009 C 
ATOM      8  N   UNL     1      -0.362   1.126   0.772  0.00  0.00    +0.389 N 
ATOM      9  H   UNL     1      -0.469   1.803   1.537  0.00  0.00    -0.084 HD
ATOM     10  H   UNL     1      -0.682   0.202   1.085  0.00  0.00    -0.084 HD
ENDROOT
BRANCH   4  11
ATOM     11  C   UNL     1      -1.001   0.592  -1.519  0.00  0.00    -0.061 A 
ATOM     12  C   UNL     1      -1.528   0.887  -2.763  0.00  0.00    +0.004 A 
ATOM     13  C   UNL     1      -1.362   0.005  -3.813  0.00  0.00    +0.023 A 
ATOM     14  C   UNL     1      -0.674  -1.185  -3.615  0.00  0.00    +0.029 A 
ATOM     15  C   UNL     1      -0.151  -1.482  -2.363  0.00  0.00    +0.023 A 
ATOM     16  C   UNL     1      -0.316  -0.593  -1.319  0.00  0.00    +0.004 A 
BRANCH  14  17
ATOM     17  N   UNL     1      -0.509  -2.082  -4.673  0.00  0.00    -0.336 N 
ATOM     18  C   UNL     1       0.216  -3.337  -4.463  0.00  0.00    +0.129 C 
ATOM     19  C   UNL     1      -1.062  -1.767  -5.993  0.00  0.00    +0.129 C 
ENDBRANCH  14  17
ENDBRANCH   4  11
BRANCH   3  20
ATOM     20  C   UNL     1       1.860   0.558   1.573  0.00  0.00    -0.061 A 
ATOM     21  C   UNL     1       1.564   1.020   2.842  0.00  0.00    +0.004 A 
ATOM     22  C   UNL     1       2.290   0.573   3.928  0.00  0.00    +0.023 A 
ATOM     23  C   UNL     1       3.327  -0.333   3.743  0.00  0.00    +0.029 A 
ATOM     24  C   UNL     1       3.625  -0.791   2.466  0.00  0.00    +0.023 A 
ATOM     25  C   UNL     1       2.891  -0.344   1.385  0.00  0.00    +0.004 A 
BRANCH  23  26
ATOM     26  N   UNL     1       4.067  -0.784   4.839  0.00  0.00    -0.336 N 
ATOM     27  C   UNL     1       5.235  -1.642   4.630  0.00  0.00    +0.129 C 
ATOM     28  C   UNL     1       3.675  -0.397   6.196  0.00  0.00    +0.129 C 
ENDBRANCH  23  26
ENDBRANCH   3  20
BRANCH   6  29
ATOM     29  O   UNL     1       0.913   2.041  -2.328  0.00  0.00    -0.388 OA
ATOM     30  H   UNL     1       0.416   2.297  -3.117  0.00  0.00    +0.210 HD
ENDBRANCH   6  29
BRANCH   6  31
ATOM     31  C   UNL     1       1.192   4.332  -1.606  0.00  0.00    +0.061 C 
BRANCH  31  32
ATOM     32  C   UNL     1       2.674   4.322  -1.879  0.00  0.00    -0.032 C 
ATOM     33  C   UNL     1       3.126   4.678  -3.056  0.00  0.00    +0.004 C 
ENDBRANCH  31  32
ENDBRANCH   6  31
TORSDOF 7
