REMARK  Name = ZINC41034093
REMARK  4 active torsions:
REMARK  status: ('A' for Active; 'I' for Inactive)
REMARK    1  A    between atoms: C_1  and  C_2
REMARK    2  A    between atoms: C_7  and  C_9
REMARK    3  A    between atoms: C_7  and  N_12
REMARK    4  A    between atoms: C_13  and  C_15
REMARK                            x       y       z     vdW  Elec       q    Type
REMARK                         _______ _______ _______ _____ _____    ______ ____
ROOT
ATOM      1  N   UNL     1       2.256   1.486   1.044  0.00  0.00    -0.295 N 
ATOM      2  C   UNL     1       1.859   2.148   2.149  0.00  0.00    +0.261 C 
ATOM      3  O   UNL     1       1.516   1.530   3.139  0.00  0.00    -0.269 OA
ATOM      4  H   UNL     1       2.530   1.979   0.255  0.00  0.00    +0.150 HD
ENDROOT
BRANCH   1  10
ATOM      5  C   UNL     1      -0.087   1.524   0.176  0.00  0.00    +0.007 C 
ATOM      6  C   UNL     1      -0.066  -0.006   0.168  0.00  0.00    -0.012 C 
ATOM      7  C   UNL     1       0.442  -0.502  -1.188  0.00  0.00    +0.003 C 
ATOM      8  C   UNL     1       1.857   0.029  -1.427  0.00  0.00    +0.003 C 
ATOM      9  C   UNL     1       2.785  -0.475  -0.319  0.00  0.00    +0.037 C 
ATOM     10  C   UNL     1       2.276   0.021   1.036  0.00  0.00    +0.136 C 
ATOM     11  C   UNL     1       0.861  -0.509   1.275  0.00  0.00    +0.040 C 
BRANCH  10  12
ATOM     12  C   UNL     1       3.190  -0.475   2.128  0.00  0.00    +0.379 C 
ATOM     13  O   UNL     1       3.770   0.321   2.845  0.00  0.00    -0.244 OA
ATOM     14  O   UNL     1       3.348  -1.673   2.292  0.00  0.00    -0.244 OA
ENDBRANCH  10  12
ENDBRANCH   1  10
BRANCH   2  15
ATOM     15  C   UNL     1       1.839   3.615   2.157  0.00  0.00    +0.103 A 
ATOM     16  C   UNL     1       1.463   4.419   3.212  0.00  0.00    +0.052 A 
ATOM     17  C   UNL     1       1.596   5.745   2.787  0.00  0.00    +0.059 A 
ATOM     18  C   UNL     1       2.041   5.728   1.507  0.00  0.00    +0.103 A 
ATOM     19  N   UNL     1       2.197   4.439   1.114  0.00  0.00    -0.356 N 
ATOM     20  H   UNL     1       2.508   4.147   0.243  0.00  0.00    +0.166 HD
ATOM     21 CL   UNL     1       1.252   7.161   3.730  0.00  0.00    -0.082 Cl
ENDBRANCH   2  15
TORSDOF 3
