REMARK  Name = ZINC02310690
REMARK  10 active torsions:
REMARK  status: ('A' for Active; 'I' for Inactive)
REMARK    1  A    between atoms: C_1  and  O_2
REMARK    2  A    between atoms: O_2  and  C_3
REMARK    3  A    between atoms: C_3  and  C_5
REMARK    4  A    between atoms: C_5  and  C_6
REMARK    5  A    between atoms: C_6  and  C_7
REMARK    6  A    between atoms: C_7  and  C_9
REMARK    7  A    between atoms: C_7  and  N_28
REMARK    8  A    between atoms: N_14  and  C_15
REMARK    9  A    between atoms: C_15  and  C_16
REMARK   10  A    between atoms: C_15  and  C_22
REMARK                            x       y       z     vdW  Elec       q    Type
REMARK                         _______ _______ _______ _____ _____    ______ ____
ROOT
ATOM      1  C   UNL     1      -0.723   1.947   1.250  0.00  0.00    +0.241 C 
ATOM      2  O   UNL     1      -0.843   1.212   2.207  0.00  0.00    -0.273 OA
ATOM      3  N   UNL     1      -1.220   3.199   1.295  0.00  0.00    -0.239 N 
ATOM      4  C   UNL     1      -1.851   3.633   2.404  0.00  0.00    +0.307 C 
ATOM      5  O   UNL     1      -1.972   2.896   3.363  0.00  0.00    -0.252 OA
ATOM      6  N   UNL     1      -2.349   4.885   2.450  0.00  0.00    -0.288 N 
ATOM      7  H   UNL     1      -1.124   3.787   0.530  0.00  0.00    +0.159 HD
ATOM      8  H   UNL     1      -2.252   5.473   1.684  0.00  0.00    +0.151 HD
ENDROOT
BRANCH   1   9
ATOM      9  C   UNL     1      -0.018   1.461   0.010  0.00  0.00    +0.171 C 
BRANCH   9  10
ATOM     10  N   UNL     1       0.002  -0.004   0.002  0.00  0.00    -0.222 N 
ATOM     11  C   UNL     1       0.581  -0.763   0.950  0.00  0.00    +0.254 C 
ATOM     12  O   UNL     1       1.161  -0.348   1.934  0.00  0.00    -0.270 OA
ATOM     13  C   UNL     1       0.391  -2.185   0.596  0.00  0.00    +0.049 A 
ATOM     14  C   UNL     1       0.758  -3.386   1.183  0.00  0.00    +0.014 A 
ATOM     15  C   UNL     1       0.418  -4.582   0.571  0.00  0.00    +0.001 A 
ATOM     16  C   UNL     1      -0.285  -4.585  -0.620  0.00  0.00    +0.001 A 
ATOM     17  C   UNL     1      -0.659  -3.392  -1.218  0.00  0.00    +0.014 A 
ATOM     18  C   UNL     1      -0.326  -2.188  -0.617  0.00  0.00    +0.049 A 
ATOM     19  C   UNL     1      -0.551  -0.768  -0.957  0.00  0.00    +0.254 C 
ATOM     20  O   UNL     1      -1.138  -0.358  -1.939  0.00  0.00    -0.270 OA
ENDBRANCH   9  10
BRANCH   9  21
ATOM     21  C   UNL     1       1.418   1.990  -0.001  0.00  0.00    +0.043 C 
BRANCH  21  22
ATOM     22  C   UNL     1       2.095   1.602  -1.317  0.00  0.00    +0.123 C 
BRANCH  22  23
ATOM     23  C   UNL     1       3.508   2.124  -1.327  0.00  0.00    +0.307 C 
ATOM     24  O   UNL     1       3.931   2.743  -0.380  0.00  0.00    -0.251 OA
BRANCH  23  26
ATOM     25  C   UNL     1       5.648   2.432  -2.331  0.00  0.00    +0.280 C 
ATOM     26  O   UNL     1       4.298   1.901  -2.390  0.00  0.00    -0.468 OA
ENDBRANCH  23  26
ENDBRANCH  22  23
ENDBRANCH  21  22
ENDBRANCH   9  21
ENDBRANCH   1   9
BRANCH   6  27
ATOM     27  C   UNL     1      -3.034   5.358   3.655  0.00  0.00    +0.135 C 
BRANCH  27  28
ATOM     28  C   UNL     1      -2.948   6.860   3.726  0.00  0.00    -0.023 A 
ATOM     29  C   UNL     1      -3.086   7.616   2.576  0.00  0.00    +0.006 A 
ATOM     30  C   UNL     1      -3.011   8.994   2.642  0.00  0.00    +0.000 A 
ATOM     31  C   UNL     1      -2.788   9.617   3.856  0.00  0.00    +0.000 A 
ATOM     32  C   UNL     1      -2.645   8.862   5.004  0.00  0.00    +0.000 A 
ATOM     33  C   UNL     1      -2.725   7.484   4.939  0.00  0.00    +0.006 A 
ENDBRANCH  27  28
BRANCH  27  34
ATOM     34  C   UNL     1      -4.481   4.939   3.606  0.00  0.00    -0.023 A 
ATOM     35  C   UNL     1      -5.180   5.007   2.416  0.00  0.00    +0.006 A 
ATOM     36  C   UNL     1      -6.506   4.619   2.370  0.00  0.00    +0.000 A 
ATOM     37  C   UNL     1      -7.136   4.173   3.517  0.00  0.00    +0.000 A 
ATOM     38  C   UNL     1      -6.439   4.111   4.709  0.00  0.00    +0.000 A 
ATOM     39  C   UNL     1      -5.111   4.494   4.753  0.00  0.00    +0.006 A 
ENDBRANCH  27  34
ENDBRANCH   6  27
TORSDOF 9
