REMARK  Name = ZINC60339359
REMARK  9 active torsions:
REMARK  status: ('A' for Active; 'I' for Inactive)
REMARK    1  A    between atoms: C_1  and  C_2
REMARK    2  A    between atoms: C_2  and  C_3
REMARK    3  A    between atoms: C_2  and  C_4
REMARK    4  A    between atoms: C_2  and  C_19
REMARK    5  A    between atoms: C_4  and  N_5
REMARK    6  A    between atoms: N_8  and  C_9
REMARK    7  A    between atoms: C_9  and  C_10
REMARK    8  A    between atoms: N_12  and  C_13
REMARK    9  A    between atoms: C_13  and  C_14
REMARK                            x       y       z     vdW  Elec       q    Type
REMARK                         _______ _______ _______ _____ _____    ______ ____
ROOT
ATOM      1  N   UNL     1      -2.119  -0.061   1.218  0.00  0.00    -0.299 N 
ATOM      2  C   UNL     1      -3.403  -0.406   1.442  0.00  0.00    +0.300 C 
ATOM      3  O   UNL     1      -3.992  -1.108   0.643  0.00  0.00    -0.253 OA
ATOM      4  N   UNL     1      -4.034   0.029   2.551  0.00  0.00    -0.291 N 
ATOM      5  H   UNL     1      -1.649   0.499   1.855  0.00  0.00    +0.150 HD
ATOM      6  H   UNL     1      -3.564   0.590   3.188  0.00  0.00    +0.151 HD
ENDROOT
BRANCH   1   7
ATOM      7  C   UNL     1      -1.433  -0.534   0.013  0.00  0.00    +0.116 C 
BRANCH   7   9
ATOM      8  C   UNL     1      -0.019   1.526   0.010  0.00  0.00    +0.017 C 
ATOM      9  C   UNL     1       0.002  -0.004   0.002  0.00  0.00    +0.008 C 
ATOM     10  C   UNL     1       0.742  -0.511   1.242  0.00  0.00    +0.017 C 
BRANCH   9  11
ATOM     11  C   UNL     1       0.707  -0.490  -1.238  0.00  0.00    -0.005 A 
ATOM     12  C   UNL     1       0.036  -1.284  -2.149  0.00  0.00    +0.007 A 
ATOM     13  C   UNL     1       0.683  -1.730  -3.286  0.00  0.00    +0.000 A 
ATOM     14  C   UNL     1       2.002  -1.382  -3.514  0.00  0.00    +0.003 A 
ATOM     15  C   UNL     1       2.675  -0.588  -2.605  0.00  0.00    +0.038 A 
ATOM     16  C   UNL     1       2.026  -0.137  -1.468  0.00  0.00    +0.127 A 
ATOM     17  F   UNL     1       2.681   0.644  -0.581  0.00  0.00    -0.205 F 
ENDBRANCH   9  11
ENDBRANCH   7   9
ENDBRANCH   1   7
BRANCH   4  18
ATOM     18  C   UNL     1      -5.429  -0.345   2.794  0.00  0.00    +0.201 C 
BRANCH  18  19
ATOM     19  C   UNL     1      -5.894   0.265   4.091  0.00  0.00    +0.231 C 
ATOM     20  O   UNL     1      -5.135   0.946   4.748  0.00  0.00    -0.274 OA
ATOM     21  N   UNL     1      -7.154   0.055   4.521  0.00  0.00    -0.307 N 
ATOM     22  H   UNL     1      -7.761  -0.489   3.996  0.00  0.00    +0.149 HD
BRANCH  21  23
ATOM     23  C   UNL     1      -7.606   0.648   5.782  0.00  0.00    +0.178 C 
BRANCH  23  24
ATOM     24  C   UNL     1      -9.041   0.263   6.032  0.00  0.00    +0.122 A 
ATOM     25  C   UNL     1      -9.458  -0.824   6.705  0.00  0.00    +0.046 A 
ATOM     26  C   UNL     1     -10.872  -0.793   6.699  0.00  0.00    +0.041 A 
ATOM     27  C   UNL     1     -11.234   0.312   6.023  0.00  0.00    +0.195 A 
ATOM     28  O   UNL     1     -10.121   0.951   5.626  0.00  0.00    -0.466 OA
ENDBRANCH  23  24
ENDBRANCH  21  23
ENDBRANCH  18  19
ENDBRANCH   4  18
TORSDOF 7
