REMARK  Name = ZINC08328238
REMARK  8 active torsions:
REMARK  status: ('A' for Active; 'I' for Inactive)
REMARK    1  A    between atoms: C_1  and  C_2
REMARK    2  A    between atoms: C_2  and  C_4
REMARK    3  A    between atoms: C_2  and  N_12
REMARK    4  A    between atoms: C_4  and  C_5
REMARK    5  A    between atoms: C_5  and  C_6
REMARK    6  A    between atoms: C_13  and  C_15
REMARK    7  A    between atoms: C_15  and  C_17
REMARK    8  A    between atoms: C_15  and  N_18
REMARK                            x       y       z     vdW  Elec       q    Type
REMARK                         _______ _______ _______ _____ _____    ______ ____
ROOT
ATOM      1  C   UNL     1      -1.330   1.944   0.019  0.00  0.00    +0.168 C 
ATOM      2  C   UNL     1      -1.417   2.816   1.273  0.00  0.00    +0.038 C 
ENDROOT
BRANCH   1   3
ATOM      3  N   UNL     1      -2.430   0.977   0.019  0.00  0.00    -0.212 N 
ATOM      4  C   UNL     1      -3.376   0.904  -0.941  0.00  0.00    +0.247 C 
ATOM      5  O   UNL     1      -3.474   1.599  -1.929  0.00  0.00    -0.273 OA
ATOM      6  C   UNL     1      -4.285  -0.227  -0.524  0.00  0.00    +0.113 C 
ATOM      7  C   UNL     1      -5.705   0.233  -0.353  0.00  0.00    +0.035 C 
ATOM      8  C   UNL     1      -6.412  -0.484   0.817  0.00  0.00    +0.003 C 
ATOM      9  C   UNL     1      -6.086  -1.990   0.876  0.00  0.00    +0.000 C 
ATOM     10  C   UNL     1      -6.077  -2.633  -0.483  0.00  0.00    +0.000 C 
ATOM     11  C   UNL     1      -4.629  -2.638  -1.013  0.00  0.00    +0.003 C 
ATOM     12  C   UNL     1      -4.238  -1.353  -1.575  0.00  0.00    +0.035 C 
ATOM     13  N   UNL     1      -3.709  -0.705   0.738  0.00  0.00    -0.285 N 
ATOM     14  C   UNL     1      -2.626   0.060   0.974  0.00  0.00    +0.310 C 
ATOM     15  O   UNL     1      -1.906  -0.069   1.945  0.00  0.00    -0.252 OA
ATOM     16  H   UNL     1      -4.042  -1.428   1.292  0.00  0.00    +0.151 HD
ENDBRANCH   1   3
BRANCH   1  18
ATOM     17  N   UNL     1       1.143   1.898   0.001  0.00  0.00    -0.311 N 
ATOM     18  C   UNL     1      -0.014   1.209   0.009  0.00  0.00    +0.234 C 
ATOM     19  O   UNL     1       0.002  -0.004   0.002  0.00  0.00    -0.274 OA
ATOM     20  H   UNL     1       1.130   2.868   0.007  0.00  0.00    +0.149 HD
BRANCH  17  22
ATOM     21  C   UNL     1       2.792   0.832  -1.457  0.00  0.00    +0.028 C 
ATOM     22  C   UNL     1       2.422   1.183  -0.015  0.00  0.00    +0.070 C 
BRANCH  22  23
ATOM     23  C   UNL     1       3.511   2.072   0.589  0.00  0.00    +0.026 C 
BRANCH  23  24
ATOM     24  C   UNL     1       3.205   2.320   2.068  0.00  0.00    +0.037 C 
BRANCH  24  25
ATOM     25  C   UNL     1       4.278   3.196   2.663  0.00  0.00    -0.047 A 
ATOM     26  C   UNL     1       5.398   2.623   3.235  0.00  0.00    +0.003 A 
ATOM     27  C   UNL     1       6.385   3.427   3.776  0.00  0.00    +0.000 A 
ATOM     28  C   UNL     1       6.245   4.802   3.754  0.00  0.00    +0.000 A 
ATOM     29  C   UNL     1       5.122   5.374   3.187  0.00  0.00    +0.000 A 
ATOM     30  C   UNL     1       4.138   4.571   2.641  0.00  0.00    +0.003 A 
ENDBRANCH  24  25
ENDBRANCH  23  24
ENDBRANCH  22  23
ENDBRANCH  17  22
ENDBRANCH   1  18
TORSDOF 6
