REMARK  Name = ZINC20708773
REMARK  3 active torsions:
REMARK  status: ('A' for Active; 'I' for Inactive)
REMARK    1  A    between atoms: C_3  and  O_28
REMARK    2  A    between atoms: C_4  and  C_10
REMARK    3  A    between atoms: C_6  and  N_7
REMARK                            x       y       z     vdW  Elec       q    Type
REMARK                         _______ _______ _______ _____ _____    ______ ____
ROOT
ATOM      1  C   UNL     1       1.317   4.566   0.290  0.00  0.00    +0.109 C 
ATOM      2  C   UNL     1       0.693   3.240   0.674  0.00  0.00    +0.029 C 
ATOM      3  C   UNL     1       1.229   1.972   0.001  0.00  0.00    +0.033 C 
ATOM      4  C   UNL     1      -0.013   1.076   0.008  0.00  0.00    -0.030 C 
ATOM      5  C   UNL     1      -1.111   1.824   0.017  0.00  0.00    -0.023 C 
ATOM      6  C   UNL     1      -0.709   3.251  -0.011  0.00  0.00    +0.049 C 
ATOM      7  C   UNL     1      -1.496   4.319   0.644  0.00  0.00    -0.017 A 
ATOM      8  C   UNL     1      -2.863   4.221   0.796  0.00  0.00    +0.026 A 
ATOM      9  C   UNL     1      -3.580   5.251   1.378  0.00  0.00    +0.043 A 
ATOM     10  C   UNL     1      -2.917   6.386   1.811  0.00  0.00    +0.041 A 
ATOM     11  C   UNL     1      -1.550   6.487   1.671  0.00  0.00    +0.063 A 
ATOM     12  C   UNL     1      -0.812   5.452   1.092  0.00  0.00    +0.050 A 
ATOM     13  N   UNL     1       0.570   5.617   1.000  0.00  0.00    -0.335 N 
ATOM     14 CL   UNL     1      -0.735   7.917   2.222  0.00  0.00    -0.082 Cl
ATOM     15 CL   UNL     1      -5.301   5.120   1.565  0.00  0.00    -0.083 Cl
ATOM     16  H   UNL     1       1.104   6.479   1.426  0.00  0.00    +0.147 HD
ENDROOT
BRANCH   1  20
ATOM     17  C   UNL     1       5.424   4.641   1.474  0.00  0.00    +0.036 A 
ATOM     18  C   UNL     1       5.068   4.078   0.264  0.00  0.00    +0.048 A 
ATOM     19  C   UNL     1       3.736   4.052  -0.123  0.00  0.00    +0.122 A 
ATOM     20  C   UNL     1       2.765   4.592   0.708  0.00  0.00    +0.017 A 
ATOM     21  C   UNL     1       3.127   5.159   1.914  0.00  0.00    +0.041 A 
ATOM     22  C   UNL     1       4.455   5.179   2.300  0.00  0.00    +0.127 A 
BRANCH  22  23
ATOM     23  N   UNL     1       4.839   5.782   3.596  0.00  0.00    +0.056 N 
ATOM     24  O   UNL     1       6.008   5.804   3.934  0.00  0.00    -0.126 OA
ATOM     25  O   UNL     1       3.985   6.255   4.324  0.00  0.00    -0.126 OA
ENDBRANCH  22  23
BRANCH  19  26
ATOM     26  O   UNL     1       3.384   3.498  -1.313  0.00  0.00    -0.506 OA
ATOM     27  H   UNL     1       2.327   3.478  -1.618  0.00  0.00    +0.292 HD
ENDBRANCH  19  26
ENDBRANCH   1  20
TORSDOF 3
