REMARK  Name = ZINC27744266
REMARK  8 active torsions:
REMARK  status: ('A' for Active; 'I' for Inactive)
REMARK    1  A    between atoms: C_3  and  C_6
REMARK    2  A    between atoms: C_6  and  C_8
REMARK    3  A    between atoms: C_6  and  N_23
REMARK    4  A    between atoms: C_8  and  N_9
REMARK    5  A    between atoms: C_10  and  C_12
REMARK    6  A    between atoms: C_12  and  O_13
REMARK    7  A    between atoms: O_13  and  C_14
REMARK    8  A    between atoms: C_17  and  N_20
REMARK                            x       y       z     vdW  Elec       q    Type
REMARK                         _______ _______ _______ _____ _____    ______ ____
ROOT
ATOM      1  C   UNL     1       0.113   0.121  -0.426  0.00  0.00    +0.094 C 
ENDROOT
BRANCH   1   2
ATOM      2  N   UNL     1       0.190   1.580  -0.312  0.00  0.00    -0.314 N 
ATOM      3  C   UNL     1      -0.877   2.339  -0.630  0.00  0.00    +0.251 C 
ATOM      4  O   UNL     1      -1.903   1.814  -1.010  0.00  0.00    -0.272 OA
ATOM      5  H   UNL     1       1.120   2.056   0.033  0.00  0.00    +0.149 HD
BRANCH   3   6
ATOM      6  C   UNL     1      -0.797   3.839  -0.513  0.00  0.00    +0.324 C 
BRANCH   6   7
ATOM      7  O   UNL     1      -2.046   4.415  -0.903  0.00  0.00    -0.483 OA
BRANCH   7   8
ATOM      8  C   UNL     1      -2.142   5.769  -0.855  0.00  0.00    +0.121 A 
ATOM      9  C   UNL     1      -1.060   6.529  -0.436  0.00  0.00    +0.048 A 
ATOM     10  C   UNL     1      -1.159   7.906  -0.392  0.00  0.00    +0.036 A 
ATOM     11  C   UNL     1      -2.339   8.527  -0.757  0.00  0.00    +0.126 A 
ATOM     12  C   UNL     1      -3.421   7.772  -1.170  0.00  0.00    +0.036 A 
ATOM     13  C   UNL     1      -3.325   6.395  -1.220  0.00  0.00    +0.048 A 
BRANCH  11  14
ATOM     14  N   UNL     1      -2.445  10.002  -0.704  0.00  0.00    +0.056 N 
ATOM     15  O   UNL     1      -3.484  10.550  -1.026  0.00  0.00    -0.126 OA
ATOM     16  O   UNL     1      -1.492  10.668  -0.340  0.00  0.00    -0.126 OA
ENDBRANCH  11  14
ENDBRANCH   7   8
ENDBRANCH   6   7
ENDBRANCH   3   6
ENDBRANCH   1   2
BRANCH   1  17
ATOM     17  C   UNL     1       1.451  -0.494  -0.015  0.00  0.00    -0.013 C 
BRANCH  17  18
ATOM     18  N   UNL     1       2.530   0.099  -0.816  0.00  0.00    +0.386 N 
ATOM     19  C   UNL     1       2.255  -0.043  -2.263  0.00  0.00    -0.078 C 
ATOM     20  C   UNL     1       3.444   0.299  -3.120  0.00  0.00    -0.019 C 
ATOM     21  C   UNL     1       4.219  -1.000  -3.423  0.00  0.00    -0.002 C 
ATOM     22  C   UNL     1       5.049  -1.421  -2.300  0.00  0.00    -0.002 C 
ATOM     23  C   UNL     1       4.213  -1.718  -1.037  0.00  0.00    -0.019 C 
ATOM     24  C   UNL     1       3.852  -0.410  -0.386  0.00  0.00    -0.078 C 
ATOM     25  H   UNL     1       2.558   1.182  -0.628  0.00  0.00    -0.081 HD
ENDBRANCH  17  18
BRANCH  17  28
ATOM     26  C   UNL     1       1.547  -4.297   0.189  0.00  0.00    +0.008 A 
ATOM     27  C   UNL     1       1.640  -2.990   0.630  0.00  0.00    +0.009 A 
ATOM     28  C   UNL     1       1.412  -1.983  -0.248  0.00  0.00    -0.022 A 
ATOM     29  S   UNL     1       1.046  -2.876  -1.749  0.00  0.00    -0.103 S 
ATOM     30  C   UNL     1       1.231  -4.532  -1.108  0.00  0.00    +0.045 A 
ENDBRANCH  17  28
ENDBRANCH   1  17
TORSDOF 8
