REMARK  Name = ZINC08737989
REMARK  7 active torsions:
REMARK  status: ('A' for Active; 'I' for Inactive)
REMARK    1  A    between atoms: C_8  and  C_11
REMARK    2  A    between atoms: N_13  and  C_14
REMARK    3  A    between atoms: C_14  and  C_16
REMARK    4  A    between atoms: C_14  and  C_27
REMARK    5  A    between atoms: C_16  and  C_17
REMARK    6  A    between atoms: N_29  and  C_30
REMARK    7  A    between atoms: C_30  and  C_31
REMARK                            x       y       z     vdW  Elec       q    Type
REMARK                         _______ _______ _______ _____ _____    ______ ____
ROOT
ATOM      1  C   UNL     1      -1.290   1.681   0.017  0.00  0.00    +0.163 C 
ENDROOT
BRANCH   1   4
ATOM      2  C   UNL     1       1.147   1.655   0.000  0.00  0.00    +0.200 C 
ATOM      3  O   UNL     1       1.130   2.868   0.007  0.00  0.00    -0.278 OA
ATOM      4  N   UNL     1      -0.011   0.966   0.007  0.00  0.00    -0.305 N 
ATOM      5  H   UNL     1       0.002  -0.004   0.002  0.00  0.00    +0.149 HD
BRANCH   2  13
ATOM      6  C   UNL     1       5.835  -1.333  -2.710  0.00  0.00    +0.000 A 
ATOM      7  C   UNL     1       6.766  -1.045  -1.730  0.00  0.00    +0.000 A 
ATOM      8  C   UNL     1       6.407  -0.269  -0.647  0.00  0.00    +0.002 A 
ATOM      9  C   UNL     1       5.115   0.225  -0.535  0.00  0.00    -0.061 A 
ATOM     10  C   UNL     1       4.188  -0.060  -1.515  0.00  0.00    -0.047 A 
ATOM     11  C   UNL     1       4.550  -0.841  -2.602  0.00  0.00    +0.004 A 
ATOM     12  C   UNL     1       2.775   0.459  -1.440  0.00  0.00    +0.028 C 
ATOM     13  C   UNL     1       2.462   0.920  -0.017  0.00  0.00    +0.021 C 
ATOM     14  C   UNL     1       4.768   1.060   0.669  0.00  0.00    -0.045 C 
ATOM     15  N   UNL     1       3.537   1.825   0.430  0.00  0.00    +0.389 N 
ATOM     16  H   UNL     1       3.251   2.290   1.300  0.00  0.00    -0.084 HD
ATOM     17  H   UNL     1       3.710   2.532  -0.294  0.00  0.00    -0.084 HD
ENDBRANCH   2  13
ENDBRANCH   1   4
BRANCH   1  18
ATOM     18  C   UNL     1      -2.360   0.806  -0.583  0.00  0.00    +0.234 C 
ATOM     19  O   UNL     1      -2.081  -0.306  -0.980  0.00  0.00    -0.274 OA
ATOM     20  N   UNL     1      -3.625   1.258  -0.678  0.00  0.00    -0.311 N 
ATOM     21  H   UNL     1      -3.848   2.147  -0.361  0.00  0.00    +0.149 HD
BRANCH  20  22
ATOM     22  C   UNL     1      -4.665   0.407  -1.262  0.00  0.00    +0.135 C 
BRANCH  22  23
ATOM     23  C   UNL     1      -6.001   1.154  -1.252  0.00  0.00    +0.135 C 
ATOM     24  C   UNL     1      -7.125   0.225  -1.758  0.00  0.00    +0.035 C 
ATOM     25  C   UNL     1      -7.989   1.189  -2.615  0.00  0.00    +0.031 C 
ATOM     26  C   UNL     1      -6.899   2.126  -3.193  0.00  0.00    +0.160 C 
ATOM     27  O   UNL     1      -5.936   2.278  -2.138  0.00  0.00    -0.375 OA
ENDBRANCH  22  23
ENDBRANCH  20  22
ENDBRANCH   1  18
BRANCH   1  28
ATOM     28  C   UNL     1      -1.667   2.032   1.458  0.00  0.00    +0.069 C 
BRANCH  28  29
ATOM     29  C   UNL     1      -0.661   3.005   2.018  0.00  0.00    -0.020 A 
ATOM     30  C   UNL     1       0.421   2.701   2.751  0.00  0.00    +0.087 A 
ATOM     31  N   UNL     1       1.098   3.844   3.080  0.00  0.00    -0.360 N 
ATOM     32  H   UNL     1       1.912   3.878   3.606  0.00  0.00    +0.165 HD
ATOM     33  C   UNL     1       0.451   4.939   2.552  0.00  0.00    +0.047 A 
ATOM     34  C   UNL     1      -0.676   4.461   1.859  0.00  0.00    +0.003 A 
ATOM     35  C   UNL     1      -1.533   5.359   1.220  0.00  0.00    +0.010 A 
ATOM     36  C   UNL     1      -1.266   6.699   1.262  0.00  0.00    +0.001 A 
ATOM     37  C   UNL     1      -0.153   7.175   1.940  0.00  0.00    +0.002 A 
ATOM     38  C   UNL     1       0.703   6.307   2.582  0.00  0.00    +0.026 A 
ENDBRANCH  28  29
ENDBRANCH   1  28
TORSDOF 7
