REMARK  Name = ZINC63588446
REMARK  10 active torsions:
REMARK  status: ('A' for Active; 'I' for Inactive)
REMARK    1  A    between atoms: C_1  and  N_2
REMARK    2  A    between atoms: C_6  and  C_7
REMARK    3  A    between atoms: C_18  and  C_20
REMARK    4  A    between atoms: C_20  and  C_21
REMARK    5  A    between atoms: C_21  and  C_22
REMARK    6  A    between atoms: N_24  and  C_25
REMARK    7  A    between atoms: C_25  and  C_26
REMARK    8  A    between atoms: C_26  and  C_27
REMARK    9  A    between atoms: C_30  and  O_36
REMARK   10  A    between atoms: O_36  and  C_37
REMARK                            x       y       z     vdW  Elec       q    Type
REMARK                         _______ _______ _______ _____ _____    ______ ____
ROOT
ATOM      1  C   UNL     1       4.866  -2.088   5.113  0.00  0.00    +0.105 C 
ENDROOT
BRANCH   1  11
ATOM      2  C   UNL     1       0.031  -0.335   2.538  0.00  0.00    +0.119 C 
ATOM      3  C   UNL     1       1.486  -0.295   3.082  0.00  0.00    +0.066 C 
ATOM      4  C   UNL     1       1.292  -0.811   4.519  0.00  0.00    +0.163 C 
ATOM      5  N   UNL     1       2.472  -1.466   5.082  0.00  0.00    -0.284 N 
ATOM      6  C   UNL     1       2.256  -2.210   6.341  0.00  0.00    +0.110 C 
ATOM      7  C   UNL     1       1.071  -3.166   6.192  0.00  0.00    +0.036 C 
ATOM      8  C   UNL     1      -0.134  -2.445   5.563  0.00  0.00    +0.106 C 
ATOM      9  N   UNL     1       0.275  -1.876   4.296  0.00  0.00    -0.222 NA
ATOM     10  N   UNL     1      -0.698  -1.303   3.400  0.00  0.00    -0.243 NA
ATOM     11  C   UNL     1       3.681  -1.395   4.491  0.00  0.00    +0.217 C 
ATOM     12  O   UNL     1       3.816  -0.774   3.458  0.00  0.00    -0.276 OA
ATOM     13  H   UNL     1      -1.438  -0.847   3.911  0.00  0.00    +0.142 HD
BRANCH   2  19
ATOM     14  C   UNL     1      -0.018   1.461   0.010  0.00  0.00    +0.148 C 
ATOM     15  N   UNL     1       0.002  -0.004   0.002  0.00  0.00    -0.352 N 
ATOM     16  C   UNL     1       0.008  -0.792  -1.110  0.00  0.00    +0.085 A 
ATOM     17  C   UNL     1       0.027  -2.081  -0.714  0.00  0.00    +0.019 A 
ATOM     18  C   UNL     1       0.033  -2.089   0.695  0.00  0.00    +0.024 A 
ATOM     19  C   UNL     1       0.023  -0.804   1.106  0.00  0.00    +0.037 A 
ENDBRANCH   2  19
ENDBRANCH   1  11
BRANCH   1  20
ATOM     20  C   UNL     1       6.107  -1.852   4.250  0.00  0.00    +0.105 C 
BRANCH  20  21
ATOM     21  C   UNL     1       7.291  -2.545   4.872  0.00  0.00    +0.213 C 
ATOM     22  O   UNL     1       7.157  -3.167   5.904  0.00  0.00    -0.276 OA
ATOM     23  N   UNL     1       8.501  -2.474   4.280  0.00  0.00    -0.315 N 
ATOM     24  H   UNL     1       8.608  -1.977   3.455  0.00  0.00    +0.149 HD
BRANCH  23  25
ATOM     25  C   UNL     1       9.652  -3.148   4.885  0.00  0.00    +0.108 C 
BRANCH  25  26
ATOM     26  C   UNL     1      10.893  -2.912   4.021  0.00  0.00    +0.052 C 
BRANCH  26  27
ATOM     27  C   UNL     1      12.078  -3.605   4.644  0.00  0.00    -0.040 C 
ATOM     28  C   UNL     1      12.551  -4.835   4.341  0.00  0.00    +0.002 A 
ATOM     29  C   UNL     1      12.123  -5.858   3.381  0.00  0.00    +0.055 A 
ATOM     30  C   UNL     1      12.807  -7.024   3.299  0.00  0.00    +0.121 A 
ATOM     31  C   UNL     1      13.925  -7.297   4.106  0.00  0.00    +0.047 A 
ATOM     32  C   UNL     1      14.394  -6.419   5.019  0.00  0.00    +0.029 A 
ATOM     33  C   UNL     1      13.729  -5.123   5.191  0.00  0.00    +0.043 A 
ATOM     34  N   UNL     1      13.973  -4.113   5.987  0.00  0.00    -0.380 N 
ATOM     35  C   UNL     1      12.981  -3.063   5.728  0.00  0.00    +0.144 C 
ATOM     36  H   UNL     1      14.693  -4.064   6.637  0.00  0.00    +0.160 HD
BRANCH  30  37
ATOM     37  O   UNL     1      12.399  -7.963   2.405  0.00  0.00    -0.495 OA
ATOM     38  C   UNL     1      13.149  -9.178   2.351  0.00  0.00    +0.277 C 
ENDBRANCH  30  37
ENDBRANCH  26  27
ENDBRANCH  25  26
ENDBRANCH  23  25
ENDBRANCH  20  21
ENDBRANCH   1  20
TORSDOF 8
