REMARK  Name = ZINC39653730
REMARK  12 active torsions:
REMARK  status: ('A' for Active; 'I' for Inactive)
REMARK    1  A    between atoms: C_1  and  C_2
REMARK    2  A    between atoms: C_2  and  O_3
REMARK    3  A    between atoms: O_3  and  C_4
REMARK    4  A    between atoms: C_7  and  C_10
REMARK    5  A    between atoms: C_10  and  C_11
REMARK    6  A    between atoms: C_11  and  N_12
REMARK    7  A    between atoms: C_13  and  C_15
REMARK    8  A    between atoms: C_26  and  C_28
REMARK    9  A    between atoms: C_31  and  O_36
REMARK   10  A    between atoms: C_33  and  O_34
REMARK   11  A    between atoms: O_34  and  C_35
REMARK   12  A    between atoms: O_36  and  C_37
REMARK                            x       y       z     vdW  Elec       q    Type
REMARK                         _______ _______ _______ _____ _____    ______ ____
ROOT
ATOM      1  C   UNL     1      -0.827 -10.171  -3.639  0.00  0.00    +0.100 C 
ATOM      2  C   UNL     1       0.340 -10.508  -4.594  0.00  0.00    +0.121 C 
ATOM      3  N   UNL     1      -0.145 -11.665  -5.384  0.00  0.00    -0.296 N 
ATOM      4  C   UNL     1      -1.572 -11.359  -5.646  0.00  0.00    +0.115 C 
ATOM      5  C   UNL     1      -2.080 -10.730  -4.333  0.00  0.00    -0.004 C 
ATOM      6  C   UNL     1      -3.064  -9.604  -4.635  0.00  0.00    -0.010 C 
ATOM      7  C   UNL     1      -4.327 -10.192  -5.272  0.00  0.00    -0.082 C 
ATOM      8  N   UNL     1      -4.931 -11.166  -4.354  0.00  0.00    +0.379 N 
ATOM      9  C   UNL     1      -4.014 -12.292  -4.143  0.00  0.00    -0.082 C 
ATOM     10  C   UNL     1      -2.739 -11.792  -3.459  0.00  0.00    -0.010 C 
ATOM     11  C   UNL     1       0.553 -12.749  -5.775  0.00  0.00    +0.250 C 
ATOM     12  O   UNL     1       1.699 -12.903  -5.397  0.00  0.00    -0.270 OA
ATOM     13  H   UNL     1      -5.123 -10.719  -3.470  0.00  0.00    -0.086 HD
ATOM     14  H   UNL     1      -5.795 -11.507  -4.750  0.00  0.00    -0.086 HD
ENDROOT
BRANCH  11  15
ATOM     15  C   UNL     1      -0.071 -13.747  -6.661  0.00  0.00    +0.079 A 
ATOM     16  C   UNL     1      -0.974 -13.341  -7.649  0.00  0.00    +0.020 A 
ATOM     17  C   UNL     1      -1.554 -14.276  -8.475  0.00  0.00    +0.046 A 
ATOM     18  C   UNL     1      -1.247 -15.626  -8.330  0.00  0.00    +0.124 A 
ATOM     19  C   UNL     1      -0.354 -16.039  -7.353  0.00  0.00    +0.092 A 
ATOM     20  C   UNL     1       0.242 -15.107  -6.520  0.00  0.00    +0.136 A 
BRANCH  20  21
ATOM     21  O   UNL     1       1.120 -15.509  -5.567  0.00  0.00    -0.494 OA
ATOM     22  C   UNL     1       1.390 -16.909  -5.483  0.00  0.00    +0.277 C 
ENDBRANCH  20  21
BRANCH  18  23
ATOM     23  O   UNL     1      -1.825 -16.542  -9.148  0.00  0.00    -0.495 OA
ATOM     24  C   UNL     1      -2.736 -16.049 -10.133  0.00  0.00    +0.277 C 
ENDBRANCH  18  23
ENDBRANCH  11  15
BRANCH   1  26
ATOM     25  N   UNL     1      -1.590  -8.176  -2.392  0.00  0.00    -0.315 N 
ATOM     26  C   UNL     1      -0.946  -8.679  -3.464  0.00  0.00    +0.218 C 
ATOM     27  O   UNL     1      -0.463  -7.931  -4.287  0.00  0.00    -0.275 OA
ATOM     28  H   UNL     1      -1.977  -8.774  -1.734  0.00  0.00    +0.149 HD
BRANCH  25  29
ATOM     29  C   UNL     1      -1.707  -6.725  -2.221  0.00  0.00    +0.109 C 
BRANCH  29  30
ATOM     30  C   UNL     1      -2.477  -6.423  -0.934  0.00  0.00    +0.054 C 
BRANCH  30  34
ATOM     31  C   UNL     1      -2.816  -2.193  -0.436  0.00  0.00    +0.121 A 
ATOM     32  C   UNL     1      -3.792  -2.891  -1.132  0.00  0.00    +0.046 A 
ATOM     33  C   UNL     1      -3.680  -4.258  -1.292  0.00  0.00    +0.007 A 
ATOM     34  C   UNL     1      -2.596  -4.931  -0.758  0.00  0.00    -0.046 A 
ATOM     35  C   UNL     1      -1.623  -4.238  -0.064  0.00  0.00    +0.007 A 
ATOM     36  C   UNL     1      -1.727  -2.870   0.093  0.00  0.00    +0.046 A 
BRANCH  31  37
ATOM     37  O   UNL     1      -2.924  -0.847  -0.277  0.00  0.00    -0.492 OA
BRANCH  37  39
ATOM     38  C   UNL     1      -4.019   1.287  -0.570  0.00  0.00    +0.048 C 
ATOM     39  C   UNL     1      -4.072  -0.217  -0.849  0.00  0.00    +0.225 C 
ENDBRANCH  37  39
ENDBRANCH  31  37
ENDBRANCH  30  34
ENDBRANCH  29  30
ENDBRANCH  25  29
ENDBRANCH   1  26
TORSDOF 9
