REMARK  Name = ZINC12803073
REMARK  9 active torsions:
REMARK  status: ('A' for Active; 'I' for Inactive)
REMARK    1  A    between atoms: C_1  and  C_2
REMARK    2  A    between atoms: C_2  and  C_3
REMARK    3  A    between atoms: C_2  and  N_4
REMARK    4  A    between atoms: C_14  and  S_15
REMARK    5  A    between atoms: S_15  and  C_16
REMARK    6  A    between atoms: C_16  and  C_17
REMARK    7  A    between atoms: N_19  and  C_20
REMARK    8  A    between atoms: C_20  and  C_21
REMARK    9  A    between atoms: C_21  and  N_27
REMARK                            x       y       z     vdW  Elec       q    Type
REMARK                         _______ _______ _______ _____ _____    ______ ____
ROOT
ATOM      1  C   UNL     1      -2.716  -1.653   3.212  0.00  0.00    +0.173 C 
ENDROOT
BRANCH   1   2
ATOM      2  C   UNL     1      -2.432  -3.129   3.103  0.00  0.00    +0.223 C 
ATOM      3  O   UNL     1      -1.997  -3.588   2.068  0.00  0.00    -0.275 OA
ATOM      4  N   UNL     1      -2.661  -3.938   4.156  0.00  0.00    -0.313 N 
ATOM      5  H   UNL     1      -3.055  -3.522   5.095  0.00  0.00    +0.149 HD
BRANCH   4   6
ATOM      6  C   UNL     1      -2.385  -5.373   4.050  0.00  0.00    +0.126 C 
BRANCH   6   7
ATOM      7  C   UNL     1      -2.845  -6.077   5.328  0.00  0.00    +0.038 C 
ATOM      8  C   UNL     1      -2.438  -7.550   5.275  0.00  0.00    +0.024 C 
ATOM      9  C   UNL     1      -3.091  -8.216   4.062  0.00  0.00    +0.002 C 
ATOM     10  C   UNL     1      -4.613  -8.112   4.181  0.00  0.00    +0.000 C 
ATOM     11  C   UNL     1      -5.020  -6.639   4.235  0.00  0.00    +0.002 C 
ATOM     12  C   UNL     1      -4.367  -5.973   5.448  0.00  0.00    +0.024 C 
BRANCH   7  13
ATOM     13  N   UNL     1      -2.218  -5.437   6.493  0.00  0.00    -0.291 NA
ATOM     14  C   UNL     1      -0.752  -5.470   6.386  0.00  0.00    +0.113 C 
ATOM     15  C   UNL     1      -0.142  -4.743   7.587  0.00  0.00    +0.175 C 
ATOM     16  O   UNL     1      -0.611  -5.349   8.794  0.00  0.00    -0.377 OA
ATOM     17  C   UNL     1      -2.035  -5.333   8.931  0.00  0.00    +0.175 C 
ATOM     18  C   UNL     1      -2.664  -6.067   7.744  0.00  0.00    +0.113 C 
ENDBRANCH   7  13
ENDBRANCH   6   7
ENDBRANCH   4   6
ENDBRANCH   1   2
BRANCH   1  19
ATOM     19  S   UNL     1      -2.309  -0.843   1.645  0.00  0.00    -0.078 S 
BRANCH  19  30
ATOM     20  N   UNL     1      -2.555   1.782   1.088  0.00  0.00    -0.285 N 
ATOM     21  C   UNL     1      -2.866   3.074   1.347  0.00  0.00    +0.263 A 
ATOM     22  O   UNL     1      -2.724   3.939   0.502  0.00  0.00    -0.267 OA
ATOM     23  C   UNL     1      -3.382   3.393   2.685  0.00  0.00    +0.065 A 
ATOM     24  C   UNL     1      -3.729   4.694   3.048  0.00  0.00    +0.017 A 
ATOM     25  C   UNL     1      -4.204   4.942   4.305  0.00  0.00    +0.021 A 
ATOM     26  C   UNL     1      -4.345   3.910   5.227  0.00  0.00    +0.043 A 
ATOM     27  C   UNL     1      -4.009   2.616   4.895  0.00  0.00    +0.048 A 
ATOM     28  C   UNL     1      -3.521   2.338   3.615  0.00  0.00    +0.080 A 
ATOM     29  N   UNL     1      -3.178   1.082   3.245  0.00  0.00    -0.223 NA
ATOM     30  C   UNL     1      -2.725   0.822   2.043  0.00  0.00    +0.173 A 
ATOM     31 CL   UNL     1      -4.952   4.258   6.816  0.00  0.00    -0.083 Cl
BRANCH  20  33
ATOM     32  C   UNL     1      -0.737   2.170  -0.501  0.00  0.00    +0.031 C 
ATOM     33  C   UNL     1      -2.038   1.411  -0.232  0.00  0.00    +0.087 C 
ATOM     34  C   UNL     1      -3.069   1.770  -1.304  0.00  0.00    +0.031 C 
ENDBRANCH  20  33
ENDBRANCH  19  30
ENDBRANCH   1  19
TORSDOF 7
