REMARK  Name = ZINC20170683
REMARK  14 active torsions:
REMARK  status: ('A' for Active; 'I' for Inactive)
REMARK    1  A    between atoms: C_1  and  C_2
REMARK    2  A    between atoms: C_7  and  N_8
REMARK    3  A    between atoms: C_9  and  C_11
REMARK    4  A    between atoms: C_11  and  S_12
REMARK    5  A    between atoms: S_12  and  C_13
REMARK    6  A    between atoms: C_14  and  C_35
REMARK    7  A    between atoms: C_15  and  C_28
REMARK    8  A    between atoms: C_17  and  C_21
REMARK    9  A    between atoms: C_18  and  C_20
REMARK   10  A    between atoms: C_21  and  O_23
REMARK   11  A    between atoms: O_23  and  C_24
REMARK   12  A    between atoms: C_24  and  C_25
REMARK   13  A    between atoms: C_25  and  O_26
REMARK   14  A    between atoms: O_26  and  C_27
REMARK                            x       y       z     vdW  Elec       q    Type
REMARK                         _______ _______ _______ _____ _____    ______ ____
ROOT
ATOM      1  C   UNL     1      -4.431   2.196  -1.361  0.00  0.00    +0.080 C 
ATOM      2  C   UNL     1      -3.354   1.371  -1.444  0.00  0.00    +0.069 C 
ATOM      3  C   UNL     1      -2.543   1.023  -0.228  0.00  0.00    +0.100 C 
ATOM      4  C   UNL     1      -3.293   1.361   1.029  0.00  0.00    +0.066 C 
ATOM      5  C   UNL     1      -4.360   2.178   1.017  0.00  0.00    +0.016 C 
ATOM      6  N   UNL     1      -4.812   2.730  -0.149  0.00  0.00    -0.312 N 
ATOM      7  C   UNL     1      -5.069   2.490   2.309  0.00  0.00    +0.061 C 
ATOM      8  H   UNL     1      -5.481   3.602  -0.118  0.00  0.00    +0.152 HD
ENDROOT
BRANCH   3   9
ATOM      9  C   UNL     1      -1.250   1.797  -0.257  0.00  0.00    -0.035 A 
ATOM     10  C   UNL     1      -0.043   1.124  -0.303  0.00  0.00    +0.006 A 
ATOM     11  C   UNL     1       1.143   1.833  -0.337  0.00  0.00    +0.020 A 
ATOM     12  C   UNL     1       1.122   3.216  -0.317  0.00  0.00    +0.041 A 
ATOM     13  C   UNL     1      -0.086   3.889  -0.265  0.00  0.00    +0.020 A 
ATOM     14  C   UNL     1      -1.271   3.179  -0.232  0.00  0.00    +0.006 A 
ATOM     15 CL   UNL     1       2.611   4.107  -0.359  0.00  0.00    -0.084 Cl
ENDBRANCH   3   9
BRANCH   4  16
ATOM     16  C   UNL     1      -2.865   0.806   2.256  0.00  0.00    +0.338 C 
ATOM     17  O   UNL     1      -3.166  -0.338   2.545  0.00  0.00    -0.245 OA
BRANCH  16  18
ATOM     18  O   UNL     1      -2.122   1.543   3.108  0.00  0.00    -0.459 OA
BRANCH  18  19
ATOM     19  C   UNL     1      -1.724   0.918   4.330  0.00  0.00    +0.260 C 
BRANCH  19  20
ATOM     20  C   UNL     1      -0.895   1.901   5.160  0.00  0.00    +0.200 C 
BRANCH  20  21
ATOM     21  O   UNL     1      -1.715   3.005   5.549  0.00  0.00    -0.380 OA
ATOM     22  C   UNL     1      -1.034   3.987   6.332  0.00  0.00    +0.194 C 
ENDBRANCH  20  21
ENDBRANCH  19  20
ENDBRANCH  18  19
ENDBRANCH  16  18
ENDBRANCH   4  16
BRANCH   2  23
ATOM     23  C   UNL     1      -2.986   0.822  -2.714  0.00  0.00    +0.098 C 
ATOM     24  N   UNL     1      -2.693   0.387  -3.722  0.00  0.00    -0.191 NA
ENDBRANCH   2  23
BRANCH   1  25
ATOM     25  S   UNL     1      -5.347   2.587  -2.814  0.00  0.00    -0.100 S 
BRANCH  25  26
ATOM     26  C   UNL     1      -6.608   3.678  -2.108  0.00  0.00    +0.171 C 
BRANCH  26  28
ATOM     27  N   UNL     1      -8.555   4.977  -2.906  0.00  0.00    -0.285 N 
ATOM     28  C   UNL     1      -7.533   4.149  -3.200  0.00  0.00    +0.227 C 
ATOM     29  O   UNL     1      -7.358   3.784  -4.343  0.00  0.00    -0.275 OA
ATOM     30  H   UNL     1      -8.671   5.367  -1.884  0.00  0.00    +0.155 HD
BRANCH  27  37
ATOM     31  C   UNL     1     -11.273   5.367  -2.158  0.00  0.00    +0.045 C 
ATOM     32  C   UNL     1     -10.805   5.541  -3.580  0.00  0.00    -0.029 A 
ATOM     33  C   UNL     1     -11.705   5.899  -4.565  0.00  0.00    +0.005 A 
ATOM     34  C   UNL     1     -11.277   6.059  -5.870  0.00  0.00    +0.000 A 
ATOM     35  C   UNL     1      -9.947   5.861  -6.193  0.00  0.00    +0.002 A 
ATOM     36  C   UNL     1      -9.041   5.507  -5.212  0.00  0.00    +0.023 A 
ATOM     37  C   UNL     1      -9.469   5.340  -3.902  0.00  0.00    +0.036 A 
ENDBRANCH  27  37
ENDBRANCH  26  28
ENDBRANCH  25  26
ENDBRANCH   1  25
TORSDOF 11
