REMARK  Name = ZINC46486465
REMARK  2 active torsions:
REMARK  status: ('A' for Active; 'I' for Inactive)
REMARK    1  A    between atoms: C_3  and  C_9
REMARK    2  A    between atoms: C_6  and  C_7
REMARK                            x       y       z     vdW  Elec       q    Type
REMARK                         _______ _______ _______ _____ _____    ______ ____
ROOT
ATOM      1  C   UNL     1       3.656   2.173  -0.023  0.00  0.00    +0.247 C 
ATOM      2  O   UNL     1       3.641   3.384  -0.124  0.00  0.00    -0.270 OA
ATOM      3  N   UNL     1       4.831   1.518   0.064  0.00  0.00    -0.290 N 
ATOM      4  C   UNL     1       4.891   0.046   0.053  0.00  0.00    +0.136 C 
ATOM      5  C   UNL     1       5.924  -0.400  -0.987  0.00  0.00    +0.179 C 
ATOM      6  O   UNL     1       7.158   0.294  -0.774  0.00  0.00    -0.373 OA
ATOM      7  C   UNL     1       7.046   1.709  -0.912  0.00  0.00    +0.139 C 
ATOM      8  C   UNL     1       6.104   2.243   0.167  0.00  0.00    +0.105 C 
ATOM      9  C   UNL     1       5.898   3.740  -0.055  0.00  0.00    +0.025 C 
ATOM     10  C   UNL     1       7.251   4.449   0.062  0.00  0.00    +0.002 C 
ATOM     11  C   UNL     1       8.223   3.895  -0.980  0.00  0.00    +0.003 C 
ATOM     12  C   UNL     1       8.402   2.393  -0.754  0.00  0.00    +0.033 C 
ENDROOT
BRANCH   1  15
ATOM     13  C   UNL     1       0.090   1.189  -0.669  0.00  0.00    +0.019 A 
ATOM     14  C   UNL     1       1.274   1.893  -0.694  0.00  0.00    +0.014 A 
ATOM     15  C   UNL     1       2.384   1.417   0.006  0.00  0.00    +0.037 A 
ATOM     16  C   UNL     1       2.295   0.228   0.732  0.00  0.00    +0.014 A 
ATOM     17  C   UNL     1       1.112  -0.476   0.758  0.00  0.00    +0.019 A 
ATOM     18  C   UNL     1       0.001  -0.001   0.058  0.00  0.00    +0.052 A 
BRANCH  18  19
ATOM     19  C   UNL     1      -1.230  -0.732   0.085  0.00  0.00    +0.099 C 
ATOM     20  N   UNL     1      -2.206  -1.313   0.106  0.00  0.00    -0.191 NA
ENDBRANCH  18  19
ENDBRANCH   1  15
TORSDOF 2
