REMARK  Name = ZINC41586649
REMARK  12 active torsions:
REMARK  status: ('A' for Active; 'I' for Inactive)
REMARK    1  A    between atoms: C_1  and  C_2
REMARK    2  A    between atoms: C_2  and  O_3
REMARK    3  A    between atoms: O_3  and  C_4
REMARK    4  A    between atoms: C_4  and  C_6
REMARK    5  A    between atoms: N_11  and  C_13
REMARK    6  A    between atoms: C_13  and  C_14
REMARK    7  A    between atoms: C_15  and  O_35
REMARK    8  A    between atoms: C_21  and  C_34
REMARK    9  A    between atoms: C_22  and  O_25
REMARK   10  A    between atoms: O_25  and  C_26
REMARK   11  A    between atoms: C_29  and  O_32
REMARK   12  A    between atoms: O_32  and  C_33
REMARK                            x       y       z     vdW  Elec       q    Type
REMARK                         _______ _______ _______ _____ _____    ______ ____
ROOT
ATOM      1  C   UNL     1       2.764  -6.538   4.846  0.00  0.00    +0.020 A 
ATOM      2  C   UNL     1       4.122  -6.790   4.938  0.00  0.00    +0.122 A 
ATOM      3  C   UNL     1       4.679  -7.253   6.128  0.00  0.00    +0.046 A 
ATOM      4  C   UNL     1       3.891  -7.466   7.223  0.00  0.00    +0.019 A 
ATOM      5  C   UNL     1       2.520  -7.216   7.147  0.00  0.00    +0.068 A 
ATOM      6  C   UNL     1       1.950  -6.742   5.952  0.00  0.00    +0.144 A 
ATOM      7  O   UNL     1       0.625  -6.500   5.892  0.00  0.00    -0.456 OA
ATOM      8  C   UNL     1      -0.187  -6.688   6.940  0.00  0.00    +0.148 A 
ATOM      9  C   UNL     1       0.254  -7.132   8.134  0.00  0.00    +0.213 A 
ATOM     10  C   UNL     1       1.635  -7.433   8.305  0.00  0.00    +0.235 A 
ATOM     11  O   UNL     1       2.070  -7.838   9.370  0.00  0.00    -0.283 OA
ATOM     12  C   UNL     1      -1.655  -6.389   6.778  0.00  0.00    +0.090 C 
ENDROOT
BRANCH   2  13
ATOM     13  O   UNL     1       4.919  -6.585   3.857  0.00  0.00    -0.506 OA
ATOM     14  H   UNL     1       5.287  -5.692   3.804  0.00  0.00    +0.292 HD
ENDBRANCH   2  13
BRANCH   1  15
ATOM     15  C   UNL     1       2.172  -6.037   3.554  0.00  0.00    -0.036 C 
BRANCH  15  20
ATOM     16  C   UNL     1       1.467  -2.550   2.360  0.00  0.00    +0.081 C 
ATOM     17  C   UNL     1       2.897  -2.004   2.385  0.00  0.00    +0.011 C 
ATOM     18  C   UNL     1       3.632  -2.580   3.599  0.00  0.00    -0.018 C 
ATOM     19  C   UNL     1       3.595  -4.108   3.533  0.00  0.00    -0.078 C 
ATOM     20  N   UNL     1       2.201  -4.568   3.539  0.00  0.00    +0.383 N 
ATOM     21  C   UNL     1       1.509  -4.079   2.341  0.00  0.00    -0.064 C 
ATOM     22  H   UNL     1       1.736  -4.216   4.362  0.00  0.00    -0.081 HD
BRANCH  16  23
ATOM     23  C   UNL     1       0.759  -2.050   1.127  0.00  0.00    +0.308 C 
ATOM     24  O   UNL     1       0.331  -2.836   0.316  0.00  0.00    -0.251 OA
BRANCH  23  25
ATOM     25  O   UNL     1       0.605  -0.731   0.930  0.00  0.00    -0.465 OA
BRANCH  25  27
ATOM     26  C   UNL     1      -0.155   1.198  -0.311  0.00  0.00    +0.048 C 
ATOM     27  C   UNL     1      -0.076  -0.329  -0.261  0.00  0.00    +0.229 C 
ENDBRANCH  25  27
ENDBRANCH  23  25
ENDBRANCH  16  23
ENDBRANCH  15  20
ENDBRANCH   1  15
BRANCH   9  28
ATOM     28  O   UNL     1      -0.618  -7.304   9.165  0.00  0.00    -0.449 OA
BRANCH  28  29
ATOM     29  C   UNL     1      -0.496  -6.489  10.246  0.00  0.00    +0.129 A 
ATOM     30  C   UNL     1       0.413  -5.441  10.226  0.00  0.00    +0.050 A 
ATOM     31  C   UNL     1       0.537  -4.612  11.324  0.00  0.00    +0.049 A 
ATOM     32  C   UNL     1      -0.247  -4.828  12.447  0.00  0.00    +0.120 A 
ATOM     33  C   UNL     1      -1.156  -5.876  12.468  0.00  0.00    +0.049 A 
ATOM     34  C   UNL     1      -1.284  -6.701  11.368  0.00  0.00    +0.050 A 
BRANCH  32  35
ATOM     35  O   UNL     1      -0.125  -4.013  13.529  0.00  0.00    -0.495 OA
ATOM     36  C   UNL     1      -0.964  -4.294  14.651  0.00  0.00    +0.277 C 
ENDBRANCH  32  35
ENDBRANCH  28  29
ENDBRANCH   9  28
TORSDOF 9
