REMARK  Name = ZINC28052678
REMARK  7 active torsions:
REMARK  status: ('A' for Active; 'I' for Inactive)
REMARK    1  A    between atoms: C_1  and  C_2
REMARK    2  A    between atoms: C_10  and  C_12
REMARK    3  A    between atoms: C_23  and  C_26
REMARK    4  A    between atoms: C_29  and  O_34
REMARK    5  A    between atoms: C_30  and  O_32
REMARK    6  A    between atoms: O_32  and  C_33
REMARK    7  A    between atoms: O_34  and  C_35
REMARK                            x       y       z     vdW  Elec       q    Type
REMARK                         _______ _______ _______ _____ _____    ______ ____
ROOT
ATOM      1  C   UNL     1       4.206   1.373   3.141  0.00  0.00    +0.069 C 
ATOM      2  C   UNL     1       3.973   2.738   2.545  0.00  0.00    +0.087 A 
ATOM      3  C   UNL     1       3.752   3.038   1.203  0.00  0.00    +0.049 A 
ATOM      4  C   UNL     1       3.600   4.400   1.177  0.00  0.00    +0.226 A 
ATOM      5  O   UNL     1       3.728   4.814   2.433  0.00  0.00    -0.339 OA
ATOM      6  N   UNL     1       3.937   3.880   3.184  0.00  0.00    -0.081 NA
ATOM      7  N   UNL     1       3.367   5.069  -0.007  0.00  0.00    -0.286 N 
ATOM      8  C   UNL     1       3.581   4.404  -1.191  0.00  0.00    +0.019 C 
ATOM      9  C   UNL     1       3.729   3.064  -1.254  0.00  0.00    +0.024 C 
ATOM     10  C   UNL     1       3.672   2.184  -0.021  0.00  0.00    +0.091 C 
ATOM     11  C   UNL     1       3.943   2.416  -2.484  0.00  0.00    +0.162 C 
ATOM     12  O   UNL     1       4.092   1.210  -2.503  0.00  0.00    -0.292 OA
ATOM     13  C   UNL     1       3.991   3.182  -3.777  0.00  0.00    +0.088 C 
ATOM     14  C   UNL     1       3.134   4.445  -3.637  0.00  0.00    +0.032 C 
ATOM     15  C   UNL     1       3.653   5.248  -2.443  0.00  0.00    +0.059 C 
ATOM     16  H   UNL     1       3.018   6.112   0.011  0.00  0.00    +0.155 HD
ENDROOT
BRANCH  10  17
ATOM     17  C   UNL     1       2.378   1.413  -0.013  0.00  0.00    -0.034 A 
ATOM     18  C   UNL     1       2.397   0.030  -0.021  0.00  0.00    +0.007 A 
ATOM     19  C   UNL     1       1.211  -0.679  -0.013  0.00  0.00    +0.040 A 
ATOM     20  C   UNL     1       0.002  -0.004   0.002  0.00  0.00    +0.137 A 
ATOM     21  C   UNL     1      -0.017   1.381   0.010  0.00  0.00    +0.053 A 
ATOM     22  C   UNL     1       1.172   2.088   0.002  0.00  0.00    +0.022 A 
ATOM     23 BR   UNL     1      -1.667   2.305   0.022  0.00  0.00    -0.047 Br
ATOM     24  F   UNL     1      -1.158  -0.696   0.009  0.00  0.00    -0.204 F 
ENDBRANCH  10  17
BRANCH  14  25
ATOM     25  C   UNL     1       3.241   5.273  -4.891  0.00  0.00    -0.040 A 
ATOM     26  C   UNL     1       4.472   5.756  -5.296  0.00  0.00    +0.008 A 
ATOM     27  C   UNL     1       4.576   6.512  -6.449  0.00  0.00    +0.049 A 
ATOM     28  C   UNL     1       3.444   6.796  -7.196  0.00  0.00    +0.161 A 
ATOM     29  C   UNL     1       2.204   6.314  -6.785  0.00  0.00    +0.162 A 
ATOM     30  C   UNL     1       2.108   5.553  -5.631  0.00  0.00    +0.053 A 
BRANCH  29  31
ATOM     31  O   UNL     1       1.090   6.591  -7.514  0.00  0.00    -0.491 OA
ATOM     32  C   UNL     1      -0.148   6.064  -7.033  0.00  0.00    +0.277 C 
ENDBRANCH  29  31
BRANCH  28  33
ATOM     33  O   UNL     1       3.543   7.544  -8.327  0.00  0.00    -0.491 OA
ATOM     34  C   UNL     1       4.847   8.004  -8.688  0.00  0.00    +0.277 C 
ENDBRANCH  28  33
ENDBRANCH  14  25
TORSDOF 4
