REMARK  Name = ZINC20827081
REMARK  7 active torsions:
REMARK  status: ('A' for Active; 'I' for Inactive)
REMARK    1  A    between atoms: C_1  and  N_2
REMARK    2  A    between atoms: N_12  and  C_21
REMARK    3  A    between atoms: C_13  and  S_15
REMARK    4  A    between atoms: S_15  and  C_16
REMARK    5  A    between atoms: C_16  and  C_17
REMARK    6  A    between atoms: C_17  and  O_19
REMARK    7  A    between atoms: O_19  and  C_20
REMARK                            x       y       z     vdW  Elec       q    Type
REMARK                         _______ _______ _______ _____ _____    ______ ____
ROOT
ATOM      1  C   UNL     1      -0.349   1.509   0.442  0.00  0.00    +0.105 C 
ATOM      2  N   UNL     1      -0.275   0.045   0.340  0.00  0.00    -0.300 NA
ATOM      3  C   UNL     1      -1.613  -0.557   0.426  0.00  0.00    +0.089 C 
ATOM      4  C   UNL     1      -1.566  -2.010  -0.050  0.00  0.00    +0.052 C 
ATOM      5  C   UNL     1      -0.453  -2.728   0.710  0.00  0.00    -0.020 A 
ATOM      6  C   UNL     1       0.504  -2.004   1.338  0.00  0.00    +0.010 A 
ATOM      7  S   UNL     1       1.578  -3.203   2.083  0.00  0.00    -0.072 S 
ATOM      8  C   UNL     1       0.746  -4.667   1.554  0.00  0.00    +0.117 A 
ATOM      9  C   UNL     1      -0.350  -4.172   0.809  0.00  0.00    +0.076 A 
ATOM     10  C   UNL     1      -1.238  -5.138   0.233  0.00  0.00    +0.263 A 
ATOM     11  O   UNL     1      -2.210  -4.811  -0.427  0.00  0.00    -0.267 OA
ATOM     12  N   UNL     1      -0.932  -6.436   0.465  0.00  0.00    -0.284 N 
ATOM     13  C   UNL     1       0.148  -6.823   1.198  0.00  0.00    +0.173 A 
ATOM     14  N   UNL     1       0.991  -5.957   1.744  0.00  0.00    -0.216 NA
ATOM     15  C   UNL     1       0.612  -0.512   1.378  0.00  0.00    +0.126 C 
ENDROOT
BRANCH  12  16
ATOM     16  C   UNL     1      -1.803  -7.471  -0.097  0.00  0.00    +0.093 C 
ATOM     17  C   UNL     1      -1.811  -7.358  -1.623  0.00  0.00    +0.025 C 
ATOM     18  C   UNL     1      -2.721  -8.439  -2.210  0.00  0.00    +0.002 C 
ATOM     19  C   UNL     1      -4.143  -8.253  -1.677  0.00  0.00    +0.000 C 
ATOM     20  C   UNL     1      -4.135  -8.367  -0.151  0.00  0.00    +0.002 C 
ATOM     21  C   UNL     1      -3.225  -7.286   0.436  0.00  0.00    +0.025 C 
ENDBRANCH  12  16
BRANCH  13  22
ATOM     22  S   UNL     1       0.439  -8.546   1.430  0.00  0.00    -0.076 S 
BRANCH  22  23
ATOM     23  C   UNL     1       1.944  -8.605   2.441  0.00  0.00    +0.197 C 
BRANCH  23  24
ATOM     24  C   UNL     1       2.308 -10.041   2.716  0.00  0.00    +0.317 C 
ATOM     25  O   UNL     1       1.623 -10.933   2.275  0.00  0.00    -0.250 OA
BRANCH  24  26
ATOM     26  O   UNL     1       3.394 -10.329   3.450  0.00  0.00    -0.467 OA
ATOM     27  C   UNL     1       3.680 -11.712   3.671  0.00  0.00    +0.280 C 
ENDBRANCH  24  26
ENDBRANCH  23  24
ENDBRANCH  22  23
ENDBRANCH  13  22
TORSDOF 5
