REMARK  Name = ZINC63972222
REMARK  6 active torsions:
REMARK  status: ('A' for Active; 'I' for Inactive)
REMARK    1  A    between atoms: C_1  and  C_2
REMARK    2  A    between atoms: C_7  and  C_13
REMARK    3  A    between atoms: C_9  and  C_12
REMARK    4  A    between atoms: C_18  and  O_19
REMARK    5  A    between atoms: O_19  and  C_20
REMARK    6  A    between atoms: C_20  and  C_22
REMARK                            x       y       z     vdW  Elec       q    Type
REMARK                         _______ _______ _______ _____ _____    ______ ____
ROOT
ATOM      1  C   UNL     1      -1.165  -5.180   1.864  0.00  0.00    +0.021 A 
ATOM      2  C   UNL     1      -2.259  -5.211   1.021  0.00  0.00    +0.009 A 
ATOM      3  C   UNL     1      -3.372  -5.958   1.359  0.00  0.00    +0.001 A 
ATOM      4  C   UNL     1      -3.394  -6.675   2.541  0.00  0.00    +0.004 A 
ATOM      5  C   UNL     1      -2.302  -6.647   3.387  0.00  0.00    +0.047 A 
ATOM      6  C   UNL     1      -1.181  -5.903   3.048  0.00  0.00    +0.137 A 
ENDROOT
BRANCH   1  13
ATOM      7  C   UNL     1      -0.110   1.567   0.134  0.00  0.00    +0.044 C 
ATOM      8  C   UNL     1      -0.071   0.061   0.101  0.00  0.00    -0.050 A 
ATOM      9  C   UNL     1      -0.059  -0.594  -1.138  0.00  0.00    +0.005 A 
ATOM     10  C   UNL     1      -0.025  -1.939  -1.252  0.00  0.00    +0.026 A 
ATOM     11  C   UNL     1       0.001  -2.758  -0.090  0.00  0.00    +0.043 A 
ATOM     12  N   UNL     1       0.035  -4.060   0.060  0.00  0.00    -0.373 N 
ATOM     13  C   UNL     1       0.049  -4.366   1.495  0.00  0.00    +0.140 C 
ATOM     14  C   UNL     1       0.018  -3.030   2.204  0.00  0.00    -0.037 C 
ATOM     15  C   UNL     1      -0.010  -2.090   1.231  0.00  0.00    -0.001 A 
ATOM     16  C   UNL     1      -0.042  -0.623   1.267  0.00  0.00    +0.013 A 
ATOM     17  C   UNL     1       0.017  -2.794   3.692  0.00  0.00    +0.042 C 
ATOM     18  H   UNL     1       0.048  -4.712  -0.658  0.00  0.00    +0.161 HD
ENDBRANCH   1  13
BRANCH   6  19
ATOM     19  O   UNL     1      -0.104  -5.878   3.876  0.00  0.00    -0.422 OA
BRANCH  19  20
ATOM     20  C   UNL     1       0.889  -6.760   3.648  0.00  0.00    +0.344 C 
ATOM     21  O   UNL     1       0.848  -7.482   2.672  0.00  0.00    -0.245 OA
BRANCH  20  22
ATOM     22  C   UNL     1       2.029  -6.846   4.583  0.00  0.00    +0.059 A 
ATOM     23  C   UNL     1       2.077  -6.021   5.709  0.00  0.00    +0.015 A 
ATOM     24  C   UNL     1       3.144  -6.107   6.579  0.00  0.00    +0.001 A 
ATOM     25  C   UNL     1       4.165  -7.010   6.338  0.00  0.00    +0.000 A 
ATOM     26  C   UNL     1       4.124  -7.831   5.225  0.00  0.00    +0.001 A 
ATOM     27  C   UNL     1       3.060  -7.758   4.350  0.00  0.00    +0.015 A 
ENDBRANCH  20  22
ENDBRANCH  19  20
ENDBRANCH   6  19
TORSDOF 4
