REMARK  Name = ZINC21983864
REMARK  7 active torsions:
REMARK  status: ('A' for Active; 'I' for Inactive)
REMARK    1  A    between atoms: C_1  and  C_2
REMARK    2  A    between atoms: C_3  and  C_13
REMARK    3  A    between atoms: C_9  and  C_12
REMARK    4  A    between atoms: N_15  and  N_16
REMARK    5  A    between atoms: C_17  and  C_19
REMARK    6  A    between atoms: C_24  and  C_25
REMARK    7  A    between atoms: C_27  and  C_30
REMARK                            x       y       z     vdW  Elec       q    Type
REMARK                         _______ _______ _______ _____ _____    ______ ____
ROOT
ATOM      1  C   UNL     1       1.475   1.596   2.476  0.00  0.00    +0.261 C 
ATOM      2  O   UNL     1       2.106   1.488   1.442  0.00  0.00    -0.269 OA
ATOM      3  N   UNL     1       2.097   1.454   3.663  0.00  0.00    -0.230 N 
ATOM      4  H   UNL     1       1.526   1.551   4.598  0.00  0.00    +0.173 HD
ENDROOT
BRANCH   1   7
ATOM      5  C   UNL     1       0.218   2.159  -0.059  0.00  0.00    +0.048 C 
ATOM      6  C   UNL     1      -0.593   2.156   1.212  0.00  0.00    +0.004 A 
ATOM      7  C   UNL     1       0.025   1.883   2.430  0.00  0.00    +0.045 A 
ATOM      8  C   UNL     1      -0.724   1.880   3.608  0.00  0.00    +0.014 A 
ATOM      9  C   UNL     1      -2.076   2.153   3.558  0.00  0.00    +0.008 A 
ATOM     10  C   UNL     1      -2.683   2.428   2.350  0.00  0.00    -0.002 A 
ATOM     11  C   UNL     1      -1.954   2.433   1.167  0.00  0.00    +0.128 A 
ATOM     12  O   UNL     1      -2.752   2.710   0.098  0.00  0.00    -0.488 OA
ATOM     13  C   UNL     1      -3.954   3.349   0.559  0.00  0.00    +0.175 C 
ATOM     14  C   UNL     1      -4.115   2.775   1.990  0.00  0.00    +0.083 C 
ATOM     15  C   UNL     1      -3.784   4.869   0.590  0.00  0.00    +0.052 C 
ENDBRANCH   1   7
BRANCH   3  16
ATOM     16  N   UNL     1       3.470   1.181   3.706  0.00  0.00    -0.230 N 
ATOM     17  C   UNL     1       4.092   1.039   4.893  0.00  0.00    +0.261 C 
ATOM     18  O   UNL     1       3.462   1.147   5.926  0.00  0.00    -0.269 OA
ATOM     19  H   UNL     1       4.041   1.083   2.771  0.00  0.00    +0.173 HD
BRANCH  17  20
ATOM     20  C   UNL     1       5.542   0.751   4.939  0.00  0.00    +0.045 A 
ATOM     21  C   UNL     1       6.240   0.498   3.757  0.00  0.00    +0.014 A 
ATOM     22  C   UNL     1       7.595   0.238   3.807  0.00  0.00    +0.008 A 
ATOM     23  C   UNL     1       8.253   0.220   5.019  0.00  0.00    -0.002 A 
ATOM     24  C   UNL     1       7.572   0.459   6.207  0.00  0.00    +0.128 A 
ATOM     25  C   UNL     1       6.209   0.728   6.161  0.00  0.00    +0.004 A 
ATOM     26  C   UNL     1       5.451   0.993   7.437  0.00  0.00    +0.048 C 
ATOM     27  O   UNL     1       8.408   0.377   7.279  0.00  0.00    -0.488 OA
ATOM     28  C   UNL     1       9.768   0.511   6.831  0.00  0.00    +0.175 C 
ATOM     29  C   UNL     1       9.706  -0.025   5.381  0.00  0.00    +0.083 C 
ATOM     30  C   UNL     1      10.203   1.978   6.849  0.00  0.00    +0.052 C 
ENDBRANCH  17  20
ENDBRANCH   3  16
TORSDOF 3
