REMARK  Name = ZINC45945526
REMARK  12 active torsions:
REMARK  status: ('A' for Active; 'I' for Inactive)
REMARK    1  A    between atoms: C_1  and  C_2
REMARK    2  A    between atoms: C_5  and  S_9
REMARK    3  A    between atoms: C_6  and  C_8
REMARK    4  A    between atoms: S_9  and  N_12
REMARK    5  A    between atoms: N_12  and  C_13
REMARK    6  A    between atoms: N_12  and  C_23
REMARK    7  A    between atoms: C_13  and  C_14
REMARK    8  A    between atoms: C_14  and  C_15
REMARK    9  A    between atoms: C_23  and  C_24
REMARK   10  A    between atoms: C_24  and  N_25
REMARK   11  A    between atoms: C_26  and  C_34
REMARK   12  A    between atoms: C_31  and  C_33
REMARK                            x       y       z     vdW  Elec       q    Type
REMARK                         _______ _______ _______ _____ _____    ______ ____
ROOT
ATOM      1  N   UNL     1       3.307  -4.958   1.626  0.00  0.00    -0.178 NA
ENDROOT
BRANCH   1   2
ATOM      2  S   UNL     1       1.719  -4.773   1.192  0.00  0.00    +0.061 S 
ATOM      3  O   UNL     1       0.945  -5.088   2.341  0.00  0.00    -0.153 OA
ATOM      4  O   UNL     1       1.555  -5.450  -0.046  0.00  0.00    -0.153 OA
BRANCH   2   9
ATOM      5  C   UNL     1       0.845   1.093   0.081  0.00  0.00    +0.044 C 
ATOM      6  C   UNL     1       1.063  -0.372   0.358  0.00  0.00    -0.050 A 
ATOM      7  C   UNL     1       0.949  -1.294  -0.665  0.00  0.00    +0.005 A 
ATOM      8  C   UNL     1       1.150  -2.638  -0.411  0.00  0.00    +0.029 A 
ATOM      9  C   UNL     1       1.465  -3.060   0.868  0.00  0.00    +0.108 A 
ATOM     10  C   UNL     1       1.580  -2.138   1.891  0.00  0.00    -0.024 A 
ATOM     11  C   UNL     1       1.383  -0.793   1.635  0.00  0.00    +0.008 A 
ATOM     12  C   UNL     1       1.922  -2.598   3.284  0.00  0.00    +0.046 C 
ENDBRANCH   2   9
ENDBRANCH   1   2
BRANCH   1  13
ATOM     13  C   UNL     1       3.675  -5.037   3.042  0.00  0.00    +0.118 C 
BRANCH  13  14
ATOM     14  C   UNL     1       3.876  -6.502   3.435  0.00  0.00    +0.113 C 
BRANCH  14  15
ATOM     15  C   UNL     1       4.255  -6.584   4.891  0.00  0.00    +0.217 C 
ATOM     16  O   UNL     1       4.354  -5.570   5.550  0.00  0.00    -0.276 OA
ATOM     17  N   UNL     1       4.483  -7.783   5.462  0.00  0.00    -0.299 N 
ATOM     18  C   UNL     1       4.375  -9.024   4.680  0.00  0.00    +0.123 C 
ATOM     19  C   UNL     1       3.463  -9.998   5.436  0.00  0.00    +0.100 C 
ATOM     20  N   UNL     1       3.964 -10.168   6.806  0.00  0.00    -0.313 NA
ATOM     21  C   UNL     1       3.918  -8.904   7.552  0.00  0.00    +0.100 C 
ATOM     22  C   UNL     1       4.854  -7.886   6.882  0.00  0.00    +0.123 C 
ATOM     23  H   UNL     1       3.454 -10.892   7.290  0.00  0.00    +0.122 HD
ENDBRANCH  14  15
ENDBRANCH  13  14
ENDBRANCH   1  13
BRANCH   1  24
ATOM     24  C   UNL     1       4.343  -5.043   0.594  0.00  0.00    +0.091 C 
BRANCH  24  25
ATOM     25  C   UNL     1       4.948  -3.656   0.363  0.00  0.00    -0.061 C 
BRANCH  25  26
ATOM     26  N   UNL     1       6.024  -3.751  -0.632  0.00  0.00    +0.384 N 
ATOM     27  C   UNL     1       6.694  -2.451  -0.751  0.00  0.00    -0.071 C 
ATOM     28  C   UNL     1       7.868  -2.565  -1.726  0.00  0.00    -0.016 C 
ATOM     29  C   UNL     1       7.344  -2.999  -3.098  0.00  0.00    -0.003 C 
ATOM     30  C   UNL     1       6.583  -4.319  -2.949  0.00  0.00    -0.016 C 
ATOM     31  C   UNL     1       5.457  -4.140  -1.929  0.00  0.00    -0.071 C 
ATOM     32  C   UNL     1       4.499  -3.050  -2.413  0.00  0.00    -0.013 C 
ATOM     33  C   UNL     1       7.213  -2.017   0.622  0.00  0.00    -0.013 C 
ATOM     34  H   UNL     1       6.694  -4.446  -0.336  0.00  0.00    -0.081 HD
ENDBRANCH  25  26
ENDBRANCH  24  25
ENDBRANCH   1  24
TORSDOF 8
