REMARK  Name = ZINC44714433
REMARK  11 active torsions:
REMARK  status: ('A' for Active; 'I' for Inactive)
REMARK    1  A    between atoms: C_1  and  C_2
REMARK    2  A    between atoms: C_3  and  C_14
REMARK    3  A    between atoms: C_6  and  C_12
REMARK    4  A    between atoms: C_14  and  C_15
REMARK    5  A    between atoms: C_15  and  N_16
REMARK    6  A    between atoms: C_17  and  C_19
REMARK    7  A    between atoms: C_30  and  C_32
REMARK    8  A    between atoms: C_35  and  O_40
REMARK    9  A    between atoms: C_36  and  O_38
REMARK   10  A    between atoms: O_38  and  C_39
REMARK   11  A    between atoms: O_40  and  C_41
REMARK                            x       y       z     vdW  Elec       q    Type
REMARK                         _______ _______ _______ _____ _____    ______ ____
ROOT
ATOM      1  C   UNL     1       2.710   0.429  -6.340  0.00  0.00    +0.100 C 
ATOM      2  C   UNL     1       2.021  -0.401  -7.447  0.00  0.00    +0.121 C 
ATOM      3  N   UNL     1       2.853  -0.180  -8.653  0.00  0.00    -0.296 N 
ATOM      4  C   UNL     1       4.246  -0.184  -8.146  0.00  0.00    +0.115 C 
ATOM      5  C   UNL     1       4.170   0.568  -6.802  0.00  0.00    -0.004 C 
ATOM      6  C   UNL     1       5.109  -0.074  -5.785  0.00  0.00    -0.010 C 
ATOM      7  C   UNL     1       6.559   0.129  -6.237  0.00  0.00    -0.082 C 
ATOM      8  N   UNL     1       6.840   1.564  -6.356  0.00  0.00    +0.379 N 
ATOM      9  C   UNL     1       5.997   2.155  -7.402  0.00  0.00    -0.082 C 
ATOM     10  C   UNL     1       4.524   2.039  -7.000  0.00  0.00    -0.010 C 
ATOM     11  C   UNL     1       2.437  -0.013  -9.924  0.00  0.00    +0.247 C 
ATOM     12  O   UNL     1       1.251   0.095 -10.167  0.00  0.00    -0.270 OA
ATOM     13  H   UNL     1       6.648   2.017  -5.475  0.00  0.00    -0.086 HD
ATOM     14  H   UNL     1       7.812   1.696  -6.594  0.00  0.00    -0.086 HD
ENDROOT
BRANCH  11  15
ATOM     15  C   UNL     1       3.423   0.040 -11.022  0.00  0.00    +0.041 A 
ATOM     16  C   UNL     1       4.698  -0.502 -10.845  0.00  0.00    +0.017 A 
ATOM     17  C   UNL     1       5.617  -0.452 -11.871  0.00  0.00    +0.050 A 
ATOM     18  C   UNL     1       5.278   0.136 -13.082  0.00  0.00    +0.162 A 
ATOM     19  C   UNL     1       4.007   0.679 -13.265  0.00  0.00    +0.162 A 
ATOM     20  C   UNL     1       3.080   0.627 -12.243  0.00  0.00    +0.062 A 
BRANCH  19  21
ATOM     21  O   UNL     1       3.679   1.255 -14.453  0.00  0.00    -0.491 OA
ATOM     22  C   UNL     1       2.360   1.791 -14.571  0.00  0.00    +0.277 C 
ENDBRANCH  19  21
BRANCH  18  23
ATOM     23  O   UNL     1       6.187   0.183 -14.090  0.00  0.00    -0.491 OA
ATOM     24  C   UNL     1       7.470  -0.392 -13.834  0.00  0.00    +0.277 C 
ENDBRANCH  18  23
ENDBRANCH  11  15
BRANCH   1  26
ATOM     25  N   UNL     1       2.604   0.399  -3.869  0.00  0.00    -0.315 N 
ATOM     26  C   UNL     1       2.644  -0.298  -5.022  0.00  0.00    +0.218 C 
ATOM     27  O   UNL     1       2.626  -1.510  -4.998  0.00  0.00    -0.275 OA
ATOM     28  H   UNL     1       2.618   1.369  -3.888  0.00  0.00    +0.149 HD
BRANCH  25  29
ATOM     29  C   UNL     1       2.540  -0.307  -2.587  0.00  0.00    +0.109 C 
BRANCH  29  30
ATOM     30  C   UNL     1       2.505   0.711  -1.445  0.00  0.00    +0.056 C 
BRANCH  30  33
ATOM     31  C   UNL     1       4.930  -0.206   0.262  0.00  0.00    +0.063 C 
ATOM     32  C   UNL     1       3.481  -0.416   0.618  0.00  0.00    +0.017 A 
ATOM     33  C   UNL     1       2.439  -0.016  -0.127  0.00  0.00    -0.018 A 
ATOM     34  C   UNL     1       1.224  -0.420   0.587  0.00  0.00    +0.004 A 
ATOM     35  C   UNL     1      -0.139  -0.290   0.327  0.00  0.00    +0.029 A 
ATOM     36  C   UNL     1      -1.059  -0.800   1.237  0.00  0.00    +0.052 A 
ATOM     37  C   UNL     1      -0.614  -1.437   2.404  0.00  0.00    +0.021 A 
ATOM     38  C   UNL     1       0.719  -1.566   2.660  0.00  0.00    +0.027 A 
ATOM     39  C   UNL     1       1.658  -1.063   1.762  0.00  0.00    +0.047 A 
ATOM     40  N   UNL     1       3.033  -1.047   1.747  0.00  0.00    -0.358 N 
ATOM     41  H   UNL     1       3.602  -1.426   2.436  0.00  0.00    +0.166 HD
BRANCH  36  42
ATOM     42  C   UNL     1      -2.463  -0.673   0.983  0.00  0.00    +0.099 C 
ATOM     43  N   UNL     1      -3.576  -0.572   0.781  0.00  0.00    -0.191 NA
ENDBRANCH  36  42
ENDBRANCH  30  33
ENDBRANCH  29  30
ENDBRANCH  25  29
ENDBRANCH   1  26
TORSDOF 8
