REMARK  Name = ZINC35031527
REMARK  12 active torsions:
REMARK  status: ('A' for Active; 'I' for Inactive)
REMARK    1  A    between atoms: C_1  and  C_2
REMARK    2  A    between atoms: C_5  and  O_12
REMARK    3  A    between atoms: C_8  and  C_10
REMARK    4  A    between atoms: C_8  and  C_11
REMARK    5  A    between atoms: O_12  and  C_13
REMARK    6  A    between atoms: C_13  and  C_14
REMARK    7  A    between atoms: C_14  and  C_16
REMARK    8  A    between atoms: C_14  and  O_36
REMARK    9  A    between atoms: C_16  and  N_17
REMARK   10  A    between atoms: N_20  and  C_23
REMARK   11  A    between atoms: C_23  and  C_24
REMARK   12  A    between atoms: C_23  and  C_30
REMARK                            x       y       z     vdW  Elec       q    Type
REMARK                         _______ _______ _______ _____ _____    ______ ____
ROOT
ATOM      1  N   UNL     1      -8.200  -0.250   0.306  0.00  0.00    -0.303 NA
ATOM      2  C   UNL     1      -8.551  -0.687   1.664  0.00  0.00    +0.066 C 
ATOM      3  C   UNL     1      -9.911  -1.388   1.635  0.00  0.00    -0.062 C 
ATOM      4  N   UNL     1     -10.929  -0.462   1.122  0.00  0.00    +0.389 N 
ATOM      5  C   UNL     1     -10.577  -0.053  -0.244  0.00  0.00    -0.062 C 
ATOM      6  C   UNL     1      -9.223   0.659  -0.231  0.00  0.00    +0.066 C 
ATOM      7  H   UNL     1     -10.972   0.353   1.716  0.00  0.00    -0.080 HD
ENDROOT
BRANCH   1   8
ATOM      8  C   UNL     1      -6.872   0.379   0.282  0.00  0.00    +0.117 C 
BRANCH   8   9
ATOM      9  C   UNL     1      -5.806  -0.669   0.608  0.00  0.00    +0.154 C 
BRANCH   9  10
ATOM     10  O   UNL     1      -5.776  -1.655  -0.425  0.00  0.00    -0.388 OA
ATOM     11  H   UNL     1      -5.569  -1.301  -1.301  0.00  0.00    +0.210 HD
ENDBRANCH   9  10
BRANCH   9  12
ATOM     12  C   UNL     1      -4.438   0.009   0.706  0.00  0.00    +0.192 C 
BRANCH  12  13
ATOM     13  O   UNL     1      -3.461  -0.947   1.124  0.00  0.00    -0.374 OA
BRANCH  13  17
ATOM     14  C   UNL     1      -0.019   1.524   0.010  0.00  0.00    +0.007 C 
ATOM     15  C   UNL     1       0.002  -0.004   0.002  0.00  0.00    -0.011 C 
ATOM     16  C   UNL     1      -1.412  -0.559  -0.088  0.00  0.00    +0.035 C 
ATOM     17  C   UNL     1      -2.138  -0.412   1.248  0.00  0.00    +0.119 C 
ATOM     18  C   UNL     1      -1.378  -1.199   2.313  0.00  0.00    +0.038 C 
ATOM     19  C   UNL     1       0.034  -0.651   2.488  0.00  0.00    -0.032 C 
ATOM     20  C   UNL     1       0.787  -0.561   1.172  0.00  0.00    +0.009 C 
ATOM     21  C   UNL     1       0.803  -1.618   3.413  0.00  0.00    +0.011 C 
ATOM     22  C   UNL     1      -0.015   0.711   3.188  0.00  0.00    +0.011 C 
ENDBRANCH  13  17
ENDBRANCH  12  13
ENDBRANCH   9  12
ENDBRANCH   8   9
ENDBRANCH   1   8
BRANCH   4  23
ATOM     23  C   UNL     1     -12.237  -1.129   1.112  0.00  0.00    -0.007 C 
BRANCH  23  24
ATOM     24  C   UNL     1     -12.599  -1.547   2.514  0.00  0.00    -0.057 A 
ATOM     25  C   UNL     1     -12.328  -0.707   3.577  0.00  0.00    +0.002 A 
ATOM     26  C   UNL     1     -12.660  -1.090   4.863  0.00  0.00    +0.000 A 
ATOM     27  C   UNL     1     -13.264  -2.314   5.085  0.00  0.00    +0.000 A 
ATOM     28  C   UNL     1     -13.535  -3.154   4.022  0.00  0.00    +0.000 A 
ATOM     29  C   UNL     1     -13.207  -2.769   2.735  0.00  0.00    +0.002 A 
ENDBRANCH  23  24
BRANCH  23  30
ATOM     30  C   UNL     1     -13.282  -0.179   0.585  0.00  0.00    -0.057 A 
ATOM     31  C   UNL     1     -13.249   1.155   0.949  0.00  0.00    +0.002 A 
ATOM     32  C   UNL     1     -14.207   2.026   0.466  0.00  0.00    +0.000 A 
ATOM     33  C   UNL     1     -15.197   1.565  -0.381  0.00  0.00    +0.000 A 
ATOM     34  C   UNL     1     -15.230   0.232  -0.745  0.00  0.00    +0.000 A 
ATOM     35  C   UNL     1     -14.269  -0.639  -0.265  0.00  0.00    +0.002 A 
ENDBRANCH  23  30
ENDBRANCH   4  23
TORSDOF 9
