REMARK  Name = ZINC63213204
REMARK  4 active torsions:
REMARK  status: ('A' for Active; 'I' for Inactive)
REMARK    1  A    between atoms: C_4  and  N_22
REMARK    2  A    between atoms: C_6  and  N_10
REMARK    3  A    between atoms: N_10  and  S_11
REMARK    4  A    between atoms: S_11  and  C_14
REMARK                            x       y       z     vdW  Elec       q    Type
REMARK                         _______ _______ _______ _____ _____    ______ ____
ROOT
ATOM      1  N   UNL     1       1.994  -0.804   3.104  0.00  0.00    -0.193 NA
ATOM      2  H   UNL     1       2.190   0.011   3.593  0.00  0.00    +0.148 HD
ENDROOT
BRANCH   1   7
ATOM      3  C   UNL     1      -0.019   1.538   0.011  0.00  0.00    -0.000 C 
ATOM      4  C   UNL     1       1.319   2.111   0.001  0.00  0.00    -0.002 C 
ATOM      5  C   UNL     1       2.135   1.719   1.249  0.00  0.00    -0.015 C 
ATOM      6  C   UNL     1       2.678   0.330   1.049  0.00  0.00    -0.056 C 
ATOM      7  C   UNL     1       1.766  -0.752   1.658  0.00  0.00    +0.062 C 
ATOM      8  C   UNL     1       0.270  -0.486   1.402  0.00  0.00    +0.019 C 
ATOM      9  C   UNL     1       0.002  -0.004   0.002  0.00  0.00    +0.001 C 
BRANCH   6  10
ATOM     10  N   UNL     1       4.002   0.241   1.678  0.00  0.00    +0.381 N 
ATOM     11  H   UNL     1       3.920   0.437   2.664  0.00  0.00    -0.090 HD
ATOM     12  H   UNL     1       4.375  -0.687   1.549  0.00  0.00    -0.090 HD
ATOM     13  H   UNL     1       4.622   0.914   1.253  0.00  0.00    -0.090 HD
ENDBRANCH   6  10
ENDBRANCH   1   7
BRANCH   1  14
ATOM     14  S   UNL     1       1.917  -2.252   3.903  0.00  0.00    +0.033 S 
ATOM     15  O   UNL     1       2.160  -1.927   5.265  0.00  0.00    -0.158 OA
ATOM     16  O   UNL     1       0.677  -2.821   3.504  0.00  0.00    -0.158 OA
BRANCH  14  17
ATOM     17  C   UNL     1       3.294  -3.226   3.238  0.00  0.00    +0.151 C 
ATOM     18  C   UNL     1       4.603  -2.482   3.486  0.00  0.00    +0.050 C 
ATOM     19  C   UNL     1       5.739  -3.145   2.703  0.00  0.00    +0.168 C 
ATOM     20  S   UNL     1       5.968  -4.838   3.322  0.00  0.00    -0.031 S 
ATOM     21  O   UNL     1       6.816  -5.538   2.422  0.00  0.00    -0.174 OA
ATOM     22  O   UNL     1       6.321  -4.773   4.697  0.00  0.00    -0.174 OA
ATOM     23  C   UNL     1       4.290  -5.522   3.184  0.00  0.00    +0.168 C 
ATOM     24  C   UNL     1       3.315  -4.594   3.914  0.00  0.00    +0.050 C 
ENDBRANCH  14  17
ENDBRANCH   1  14
TORSDOF 4
