REMARK  Name = ZINC38806356
REMARK  11 active torsions:
REMARK  status: ('A' for Active; 'I' for Inactive)
REMARK    1  A    between atoms: C_1  and  C_2
REMARK    2  A    between atoms: C_2  and  C_35
REMARK    3  A    between atoms: C_5  and  C_31
REMARK    4  A    between atoms: C_6  and  N_13
REMARK    5  A    between atoms: C_9  and  C_11
REMARK    6  A    between atoms: C_9  and  C_12
REMARK    7  A    between atoms: C_14  and  C_16
REMARK    8  A    between atoms: C_19  and  N_25
REMARK    9  A    between atoms: C_20  and  N_22
REMARK   10  A    between atoms: C_31  and  O_33
REMARK   11  A    between atoms: O_33  and  C_34
REMARK                            x       y       z     vdW  Elec       q    Type
REMARK                         _______ _______ _______ _____ _____    ______ ____
ROOT
ATOM      1  C   UNL     1      -0.019   1.526   0.010  0.00  0.00    -0.010 C 
ATOM      2  C   UNL     1       0.002  -0.004   0.002  0.00  0.00    -0.069 C 
ATOM      3  C   UNL     1      -1.434  -0.533  -0.096  0.00  0.00    +0.024 C 
ATOM      4  C   UNL     1      -2.143  -0.141   1.191  0.00  0.00    -0.024 A 
ATOM      5  C   UNL     1      -3.548   0.158   1.355  0.00  0.00    +0.091 A 
ATOM      6  C   UNL     1      -3.974   0.500   2.633  0.00  0.00    +0.086 A 
ATOM      7  S   UNL     1      -2.578   0.427   3.565  0.00  0.00    -0.079 S 
ATOM      8  C   UNL     1      -1.412  -0.057   2.328  0.00  0.00    -0.016 A 
ATOM      9  C   UNL     1       0.048  -0.331   2.463  0.00  0.00    -0.041 C 
ATOM     10  N   UNL     1       0.700  -0.527   1.169  0.00  0.00    +0.389 N 
ATOM     11  C   UNL     1       0.222  -1.614   3.300  0.00  0.00    -0.005 C 
ATOM     12  C   UNL     1       0.717   0.822   3.225  0.00  0.00    -0.005 C 
ATOM     13  C   UNL     1       0.759  -0.459  -1.260  0.00  0.00    -0.010 C 
ATOM     14  H   UNL     1       0.857  -1.527   1.032  0.00  0.00    -0.084 HD
ATOM     15  H   UNL     1       1.629  -0.105   1.206  0.00  0.00    -0.084 HD
ENDROOT
BRANCH   6  16
ATOM     16  N   UNL     1      -5.256   0.826   3.042  0.00  0.00    -0.275 N 
ATOM     17  C   UNL     1      -5.494   1.135   4.332  0.00  0.00    +0.249 C 
ATOM     18  O   UNL     1      -4.582   1.128   5.137  0.00  0.00    -0.270 OA
ATOM     19  H   UNL     1      -5.983   0.832   2.400  0.00  0.00    +0.156 HD
BRANCH  17  20
ATOM     20  C   UNL     1      -6.859   1.482   4.768  0.00  0.00    +0.039 A 
ATOM     21  C   UNL     1      -7.910   1.485   3.845  0.00  0.00    +0.015 A 
ATOM     22  C   UNL     1      -9.182   1.810   4.254  0.00  0.00    +0.026 A 
ATOM     23  C   UNL     1      -9.425   2.135   5.586  0.00  0.00    +0.060 A 
ATOM     24  C   UNL     1      -8.382   2.133   6.507  0.00  0.00    +0.148 A 
ATOM     25  C   UNL     1      -7.108   1.803   6.106  0.00  0.00    +0.047 A 
BRANCH  23  26
ATOM     26  N   UNL     1     -10.713   2.462   5.997  0.00  0.00    -0.328 N 
ATOM     27  C   UNL     1     -11.180   3.855   5.956  0.00  0.00    +0.105 C 
ATOM     28  C   UNL     1     -12.489   3.913   5.163  0.00  0.00    +0.019 C 
ATOM     29  C   UNL     1     -13.493   2.931   5.771  0.00  0.00    +0.003 C 
ATOM     30  C   UNL     1     -12.936   1.508   5.680  0.00  0.00    +0.019 C 
ATOM     31  C   UNL     1     -11.634   1.422   6.473  0.00  0.00    +0.105 C 
ENDBRANCH  23  26
BRANCH  24  32
ATOM     32  N   UNL     1      -8.644   2.480   7.922  0.00  0.00    +0.058 N 
ATOM     33  O   UNL     1      -7.739   2.479   8.723  0.00  0.00    -0.126 OA
ATOM     34  O   UNL     1      -9.764   2.764   8.277  0.00  0.00    -0.126 OA
ENDBRANCH  24  32
ENDBRANCH  17  20
ENDBRANCH   6  16
BRANCH   5  35
ATOM     35  C   UNL     1      -4.489   0.104   0.234  0.00  0.00    +0.342 C 
ATOM     36  O   UNL     1      -5.071  -0.933  -0.023  0.00  0.00    -0.245 OA
BRANCH  35  37
ATOM     37  O   UNL     1      -4.709   1.204  -0.515  0.00  0.00    -0.464 OA
ATOM     38  C   UNL     1      -5.640   1.080  -1.593  0.00  0.00    +0.280 C 
ENDBRANCH  35  37
ENDBRANCH   5  35
TORSDOF 6
