REMARK  Name = ZINC14542927
REMARK  6 active torsions:
REMARK  status: ('A' for Active; 'I' for Inactive)
REMARK    1  A    between atoms: C_5  and  C_7
REMARK    2  A    between atoms: C_7  and  O_8
REMARK    3  A    between atoms: O_8  and  C_9
REMARK    4  A    between atoms: N_15  and  C_17
REMARK    5  A    between atoms: C_23  and  C_24
REMARK    6  A    between atoms: C_23  and  N_57
REMARK                            x       y       z     vdW  Elec       q    Type
REMARK                         _______ _______ _______ _____ _____    ______ ____
ROOT
ATOM      1  C   UNL     1      -2.941   6.554   2.837  0.00  0.00    +0.120 C 
ATOM      2  C   UNL     1      -2.446   6.156   1.460  0.00  0.00    -0.044 C 
ATOM      3  C   UNL     1      -0.503   4.865   2.148  0.00  0.00    +0.019 C 
ATOM      4  C   UNL     1      -0.775   4.585   3.611  0.00  0.00    +0.199 C 
ATOM      5  O   UNL     1      -0.454   3.519   4.091  0.00  0.00    -0.278 OA
ATOM      6  N   UNL     1      -1.366   5.508   4.374  0.00  0.00    -0.298 N 
ATOM      7  C   UNL     1      -1.766   6.798   3.787  0.00  0.00    +0.137 C 
ATOM      8  N   UNL     1      -1.801   4.828   1.431  0.00  0.00    +0.391 N 
ATOM      9  H   UNL     1      -2.416   4.152   1.899  0.00  0.00    -0.080 HD
ENDROOT
BRANCH   6  10
ATOM     10  C   UNL     1      -1.617   5.238   5.792  0.00  0.00    +0.076 C 
ATOM     11  C   UNL     1      -0.289   4.968   6.502  0.00  0.00    +0.022 C 
ATOM     12  C   UNL     1      -0.551   4.686   7.983  0.00  0.00    +0.002 C 
ATOM     13  C   UNL     1      -1.458   3.462   8.116  0.00  0.00    +0.000 C 
ATOM     14  C   UNL     1      -2.787   3.732   7.406  0.00  0.00    +0.002 C 
ATOM     15  C   UNL     1      -2.525   4.014   5.925  0.00  0.00    +0.022 C 
ENDBRANCH   6  10
BRANCH   1  16
ATOM     16  O   UNL     1      -3.717   7.750   2.731  0.00  0.00    -0.371 OA
BRANCH  16  17
ATOM     17  C   UNL     1      -5.109   7.521   2.506  0.00  0.00    +0.215 C 
BRANCH  17  22
ATOM     18  C   UNL     1      -5.780  11.230   2.452  0.00  0.00    +0.003 A 
ATOM     19  C   UNL     1      -7.150  11.213   2.234  0.00  0.00    +0.020 A 
ATOM     20  C   UNL     1      -7.797   9.998   2.114  0.00  0.00    +0.111 A 
ATOM     21  N   UNL     1      -7.128   8.865   2.200  0.00  0.00    -0.258 NA
ATOM     22  C   UNL     1      -5.826   8.844   2.411  0.00  0.00    +0.067 A 
ATOM     23  C   UNL     1      -5.111  10.019   2.541  0.00  0.00    +0.025 A 
ENDBRANCH  17  22
ENDBRANCH  16  17
ENDBRANCH   1  16
BRANCH   8  24
ATOM     24  C   UNL     1      -1.597   4.402   0.039  0.00  0.00    -0.020 C 
BRANCH  24  25
ATOM     25  C   UNL     1      -0.697   3.193   0.025  0.00  0.00    +0.046 A 
ATOM     26  C   UNL     1      -1.116   1.859   0.017  0.00  0.00    +0.042 A 
ATOM     27  C   UNL     1      -0.013   1.076   0.008  0.00  0.00    +0.105 A 
ATOM     28  N   UNL     1       1.067   1.886   0.002  0.00  0.00    -0.285 N 
ATOM     29  H   UNL     1       2.022   1.593  -0.008  0.00  0.00    +0.188 HD
ATOM     30  N   UNL     1       0.611   3.211   0.013  0.00  0.00    -0.181 NA
ENDBRANCH  24  25
ENDBRANCH   8  24
TORSDOF 6
