REMARK  Name = ZINC58179604
REMARK  3 active torsions:
REMARK  status: ('A' for Active; 'I' for Inactive)
REMARK    1  A    between atoms: N_10  and  C_13
REMARK    2  A    between atoms: C_13  and  C_14
REMARK    3  A    between atoms: C_21  and  C_23
REMARK                            x       y       z     vdW  Elec       q    Type
REMARK                         _______ _______ _______ _____ _____    ______ ____
ROOT
ATOM      1  C   UNL     1       1.285  -5.785  -1.051  0.00  0.00    +0.089 C 
ENDROOT
BRANCH   1  11
ATOM      2  C   UNL     1       3.964  -1.093   4.152  0.00  0.00    +0.005 A 
ATOM      3  C   UNL     1       4.064  -1.761   5.366  0.00  0.00    +0.018 A 
ATOM      4  C   UNL     1       3.395  -2.957   5.536  0.00  0.00    +0.084 A 
ATOM      5  N   UNL     1       2.666  -3.469   4.562  0.00  0.00    -0.350 N 
ATOM      6  C   UNL     1       2.546  -2.862   3.392  0.00  0.00    +0.099 A 
ATOM      7  C   UNL     1       3.192  -1.653   3.151  0.00  0.00    +0.042 A 
ATOM      8  N   UNL     1       1.767  -3.437   2.394  0.00  0.00    -0.314 N 
ATOM      9  C   UNL     1       1.177  -4.772   2.573  0.00  0.00    +0.122 C 
ATOM     10  C   UNL     1       1.531  -5.629   1.353  0.00  0.00    +0.103 C 
ATOM     11  N   UNL     1       1.120  -4.926   0.130  0.00  0.00    -0.299 NA
ATOM     12  C   UNL     1       1.853  -3.664  -0.031  0.00  0.00    +0.103 C 
ATOM     13  C   UNL     1       1.507  -2.724   1.135  0.00  0.00    +0.122 C 
ATOM     14  H   UNL     1       2.206  -4.310   4.708  0.00  0.00    +0.166 HD
ENDBRANCH   1  11
BRANCH   1  15
ATOM     15  C   UNL     1       0.156  -6.818  -1.091  0.00  0.00    +0.020 C 
ATOM     16  C   UNL     1      -1.178  -6.107  -1.327  0.00  0.00    +0.008 C 
ATOM     17  C   UNL     1      -2.312  -7.135  -1.335  0.00  0.00    +0.019 C 
ATOM     18  C   UNL     1      -2.085  -8.130  -2.478  0.00  0.00    +0.108 C 
ATOM     19  N   UNL     1      -0.743  -8.711  -2.340  0.00  0.00    -0.301 N 
ATOM     20  C   UNL     1       0.411  -7.809  -2.231  0.00  0.00    +0.112 C 
ATOM     21  C   UNL     1      -0.574 -10.048  -2.313  0.00  0.00    +0.219 C 
ATOM     22  O   UNL     1      -1.539 -10.783  -2.341  0.00  0.00    -0.275 OA
BRANCH  21  23
ATOM     23  C   UNL     1       0.815 -10.631  -2.248  0.00  0.00    +0.075 C 
ATOM     24  C   UNL     1       1.541 -10.366  -3.568  0.00  0.00    +0.013 C 
ATOM     25  C   UNL     1       2.951 -10.957  -3.502  0.00  0.00    +0.001 C 
ATOM     26  C   UNL     1       2.860 -12.466  -3.264  0.00  0.00    +0.000 C 
ATOM     27  C   UNL     1       2.134 -12.731  -1.944  0.00  0.00    +0.001 C 
ATOM     28  C   UNL     1       0.724 -12.139  -2.010  0.00  0.00    +0.013 C 
ENDBRANCH  21  23
ENDBRANCH   1  15
TORSDOF 3
