REMARK  Name = ZINC17097897
REMARK  3 active torsions:
REMARK  status: ('A' for Active; 'I' for Inactive)
REMARK    1  A    between atoms: C_5  and  C_7
REMARK    2  A    between atoms: C_12  and  C_26
REMARK    3  A    between atoms: C_14  and  C_22
REMARK                            x       y       z     vdW  Elec       q    Type
REMARK                         _______ _______ _______ _____ _____    ______ ____
ROOT
ATOM      1  C   UNL     1      -4.553   4.650   0.719  0.00  0.00    +0.208 C 
ATOM      2  N   UNL     1      -3.704   3.689   0.014  0.00  0.00    -0.319 N 
ATOM      3  C   UNL     1      -2.357   4.090   0.037  0.00  0.00    +0.058 A 
ATOM      4  C   UNL     1      -1.218   3.184   0.029  0.00  0.00    +0.038 A 
ATOM      5  C   UNL     1      -1.228   1.753   0.017  0.00  0.00    +0.002 A 
ATOM      6  C   UNL     1      -0.013   1.076   0.008  0.00  0.00    +0.042 A 
ATOM      7  C   UNL     1       1.176   1.781   0.000  0.00  0.00    +0.145 A 
ATOM      8  N   UNL     1       1.175   3.101   0.009  0.00  0.00    -0.235 NA
ATOM      9  C   UNL     1       0.056   3.794   0.025  0.00  0.00    +0.112 A 
ATOM     10  S   UNL     1      -0.303   5.536   0.045  0.00  0.00    -0.062 S 
ATOM     11  C   UNL     1      -2.065   5.449   0.059  0.00  0.00    +0.097 A 
ATOM     12  C   UNL     1      -3.039   6.462   0.089  0.00  0.00    +0.254 C 
ATOM     13  O   UNL     1      -2.765   7.638  -0.073  0.00  0.00    -0.270 OA
ATOM     14  N   UNL     1      -4.311   6.032   0.314  0.00  0.00    -0.288 N 
ATOM     15  H   UNL     1      -4.023   3.550  -0.933  0.00  0.00    +0.148 HD
ATOM     16  H   UNL     1      -5.056   6.644   0.205  0.00  0.00    +0.151 HD
ENDROOT
BRANCH   1  21
ATOM     17  C   UNL     1      -8.267   5.000   0.180  0.00  0.00    +0.003 A 
ATOM     18  C   UNL     1      -8.592   3.672  -0.052  0.00  0.00    +0.020 A 
ATOM     19  C   UNL     1      -7.592   2.719  -0.024  0.00  0.00    +0.111 A 
ATOM     20  N   UNL     1      -6.342   3.061   0.220  0.00  0.00    -0.256 NA
ATOM     21  C   UNL     1      -5.996   4.313   0.445  0.00  0.00    +0.079 A 
ATOM     22  C   UNL     1      -6.943   5.320   0.439  0.00  0.00    +0.027 A 
ENDBRANCH   1  21
BRANCH   5  23
ATOM     23  C   UNL     1      -2.501   1.011   0.020  0.00  0.00    +0.020 A 
ATOM     24  C   UNL     1      -2.908  -0.012  -0.798  0.00  0.00    +0.016 A 
ATOM     25  C   UNL     1      -4.156  -0.557  -0.605  0.00  0.00    +0.008 A 
ATOM     26  C   UNL     1      -4.946  -0.068   0.387  0.00  0.00    +0.046 A 
ATOM     27  S   UNL     1      -3.913   1.204   1.096  0.00  0.00    -0.097 S 
ENDBRANCH   5  23
BRANCH   7  28
ATOM     28  C   UNL     1       2.486   1.036  -0.018  0.00  0.00    +0.434 C 
ATOM     29  F   UNL     1       2.877   0.814  -1.343  0.00  0.00    -0.164 F 
ATOM     30  F   UNL     1       3.463   1.793   0.636  0.00  0.00    -0.164 F 
ATOM     31  F   UNL     1       2.333  -0.192   0.634  0.00  0.00    -0.164 F 
ENDBRANCH   7  28
TORSDOF 3
