REMARK  Name = ZINC39383957
REMARK  6 active torsions:
REMARK  status: ('A' for Active; 'I' for Inactive)
REMARK    1  A    between atoms: C_7  and  C_10
REMARK    2  A    between atoms: C_10  and  C_11
REMARK    3  A    between atoms: C_11  and  N_12
REMARK    4  A    between atoms: C_13  and  C_15
REMARK    5  A    between atoms: C_18  and  N_22
REMARK    6  A    between atoms: C_23  and  C_25
REMARK                            x       y       z     vdW  Elec       q    Type
REMARK                         _______ _______ _______ _____ _____    ______ ____
ROOT
ATOM      1  C   UNL     1      -5.627   7.039  -2.508  0.00  0.00    +0.086 C 
ATOM      2  C   UNL     1      -5.690   7.748  -3.654  0.00  0.00    +0.021 C 
ATOM      3  N   UNL     1      -5.377   7.195  -4.844  0.00  0.00    -0.320 N 
ATOM      4  C   UNL     1      -5.965   7.823  -6.048  0.00  0.00    +0.219 C 
ATOM      5  S   UNL     1      -6.117   9.569  -5.473  0.00  0.00    -0.114 S 
ATOM      6  C   UNL     1      -6.123   9.205  -3.666  0.00  0.00    +0.123 C 
ATOM      7  H   UNL     1      -4.794   6.422  -4.908  0.00  0.00    +0.148 HD
ENDROOT
BRANCH   1   9
ATOM      8  N   UNL     1      -5.181   4.965  -1.402  0.00  0.00    -0.311 N 
ATOM      9  C   UNL     1      -5.361   5.651  -2.548  0.00  0.00    +0.238 C 
ATOM     10  O   UNL     1      -5.295   5.075  -3.619  0.00  0.00    -0.271 OA
ATOM     11  H   UNL     1      -5.233   5.424  -0.549  0.00  0.00    +0.149 HD
BRANCH   8  12
ATOM     12  C   UNL     1      -4.905   3.527  -1.444  0.00  0.00    +0.109 C 
BRANCH  12  13
ATOM     13  C   UNL     1      -4.743   2.997  -0.018  0.00  0.00    +0.056 C 
BRANCH  13  20
ATOM     14  C   UNL     1      -0.812   0.499  -0.550  0.00  0.00    +0.001 A 
ATOM     15  C   UNL     1      -1.034  -0.871  -0.525  0.00  0.00    +0.002 A 
ATOM     16  C   UNL     1      -2.306  -1.374  -0.359  0.00  0.00    +0.026 A 
ATOM     17  C   UNL     1      -3.380  -0.501  -0.213  0.00  0.00    +0.047 A 
ATOM     18  N   UNL     1      -4.733  -0.685  -0.035  0.00  0.00    -0.360 N 
ATOM     19  C   UNL     1      -5.359   0.528   0.053  0.00  0.00    +0.087 A 
ATOM     20  C   UNL     1      -4.459   1.518  -0.061  0.00  0.00    -0.021 A 
ATOM     21  C   UNL     1      -3.149   0.886  -0.237  0.00  0.00    +0.003 A 
ATOM     22  C   UNL     1      -1.851   1.374  -0.402  0.00  0.00    +0.010 A 
ATOM     23  H   UNL     1      -5.176  -1.546   0.020  0.00  0.00    +0.165 HD
ENDBRANCH  13  20
ENDBRANCH  12  13
ENDBRANCH   8  12
ENDBRANCH   1   9
BRANCH   4  24
ATOM     24  N   UNL     1      -7.277   7.249  -6.359  0.00  0.00    -0.284 N 
ATOM     25  C   UNL     1      -7.837   7.461  -7.566  0.00  0.00    +0.246 C 
ATOM     26  O   UNL     1      -7.253   8.128  -8.398  0.00  0.00    -0.270 OA
ATOM     27  H   UNL     1      -7.743   6.717  -5.695  0.00  0.00    +0.152 HD
BRANCH  25  28
ATOM     28  C   UNL     1      -9.160   6.883  -7.879  0.00  0.00    +0.037 A 
ATOM     29  C   UNL     1      -9.836   6.121  -6.924  0.00  0.00    +0.014 A 
ATOM     30  C   UNL     1     -11.071   5.585  -7.222  0.00  0.00    +0.021 A 
ATOM     31  C   UNL     1     -11.641   5.800  -8.466  0.00  0.00    +0.041 A 
ATOM     32  C   UNL     1     -10.975   6.554  -9.418  0.00  0.00    +0.021 A 
ATOM     33  C   UNL     1      -9.742   7.101  -9.129  0.00  0.00    +0.014 A 
ATOM     34 CL   UNL     1     -13.195   5.120  -8.834  0.00  0.00    -0.084 Cl
ENDBRANCH  25  28
ENDBRANCH   4  24
TORSDOF 6
