REMARK  Name = ZINC38990151
REMARK  4 active torsions:
REMARK  status: ('A' for Active; 'I' for Inactive)
REMARK    1  A    between atoms: C_1  and  C_2
REMARK    2  A    between atoms: C_4  and  C_8
REMARK    3  A    between atoms: N_10  and  N_11
REMARK    4  A    between atoms: C_12  and  C_13
REMARK                            x       y       z     vdW  Elec       q    Type
REMARK                         _______ _______ _______ _____ _____    ______ ____
ROOT
ATOM      1  C   UNL     1      -1.097  -2.902  -1.246  0.00  0.00    +0.255 C 
ATOM      2  O   UNL     1      -0.353  -3.055  -2.192  0.00  0.00    -0.272 OA
ATOM      3  N   UNL     1      -2.362  -3.363  -1.304  0.00  0.00    -0.205 N 
ATOM      4  H   UNL     1      -2.958  -3.241  -0.548  0.00  0.00    +0.177 HD
ENDROOT
BRANCH   1   8
ATOM      5  C   UNL     1      -0.018   1.503   0.010  0.00  0.00    +0.061 C 
ATOM      6  C   UNL     1       0.002  -0.004   0.002  0.00  0.00    +0.014 C 
ATOM      7  C   UNL     1      -1.078  -0.758   0.003  0.00  0.00    +0.022 C 
ATOM      8  C   UNL     1      -0.608  -2.197  -0.008  0.00  0.00    +0.184 C 
ATOM      9  N   UNL     1       0.865  -2.098  -0.014  0.00  0.00    -0.227 NA
ATOM     10  N   UNL     1       1.155  -0.763  -0.014  0.00  0.00    -0.284 N 
ATOM     11  H   UNL     1       1.254  -2.549  -0.829  0.00  0.00    +0.145 HD
ATOM     12  H   UNL     1       2.054  -0.397  -0.021  0.00  0.00    +0.166 HD
ENDBRANCH   1   8
BRANCH   3  13
ATOM     13  N   UNL     1      -2.817  -4.019  -2.455  0.00  0.00    -0.185 NA
ATOM     14  C   UNL     1      -4.039  -4.465  -2.510  0.00  0.00    +0.176 C 
BRANCH  14  15
ATOM     15  C   UNL     1      -4.514  -5.151  -3.715  0.00  0.00    +0.149 A 
ATOM     16  C   UNL     1      -5.767  -5.659  -3.906  0.00  0.00    +0.052 A 
ATOM     17  C   UNL     1      -5.782  -6.224  -5.194  0.00  0.00    +0.056 A 
ATOM     18  C   UNL     1      -4.554  -6.037  -5.724  0.00  0.00    +0.165 A 
ATOM     19  O   UNL     1      -3.794  -5.385  -4.830  0.00  0.00    -0.448 OA
ATOM     20  I   UNL     1      -3.940  -6.656  -7.629  0.00  0.00    -0.001 I 
ENDBRANCH  14  15
ENDBRANCH   3  13
TORSDOF 3
