REMARK  Name = ZINC12774786
REMARK  9 active torsions:
REMARK  status: ('A' for Active; 'I' for Inactive)
REMARK    1  A    between atoms: C_1  and  C_2
REMARK    2  A    between atoms: C_5  and  N_9
REMARK    3  A    between atoms: C_10  and  C_12
REMARK    4  A    between atoms: C_12  and  C_14
REMARK    5  A    between atoms: C_12  and  N_15
REMARK    6  A    between atoms: C_23  and  C_30
REMARK    7  A    between atoms: C_25  and  C_27
REMARK    8  A    between atoms: C_27  and  C_28
REMARK    9  A    between atoms: C_27  and  C_29
REMARK                            x       y       z     vdW  Elec       q    Type
REMARK                         _______ _______ _______ _____ _____    ______ ____
ROOT
ATOM      1  N   UNL     1      -0.235  -6.827  -2.573  0.00  0.00    -0.289 NA
ATOM      2  C   UNL     1       1.001  -6.547  -3.317  0.00  0.00    +0.104 C 
ATOM      3  C   UNL     1       0.795  -6.899  -4.794  0.00  0.00    +0.122 C 
ATOM      4  N   UNL     1       0.318  -8.287  -4.881  0.00  0.00    -0.313 N 
ATOM      5  C   UNL     1      -0.836  -8.680  -4.058  0.00  0.00    +0.122 C 
ATOM      6  C   UNL     1      -0.566  -8.258  -2.610  0.00  0.00    +0.104 C 
ATOM      7  C   UNL     1       0.938  -9.201  -5.718  0.00  0.00    +0.125 A 
ATOM      8  C   UNL     1       2.149  -8.887  -6.338  0.00  0.00    +0.064 A 
ATOM      9  C   UNL     1       2.727  -9.831  -7.163  0.00  0.00    +0.017 A 
ATOM     10  N   UNL     1       2.119 -10.996  -7.338  0.00  0.00    -0.347 N 
ATOM     11  C   UNL     1       0.976 -11.262  -6.739  0.00  0.00    +0.112 A 
ATOM     12  N   UNL     1       0.392 -10.393  -5.939  0.00  0.00    -0.219 NA
ATOM     13  C   UNL     1       4.033  -9.541  -7.856  0.00  0.00    +0.063 C 
ATOM     14  H   UNL     1       2.521 -11.663  -7.917  0.00  0.00    +0.167 HD
ENDROOT
BRANCH  11  15
ATOM     15  C   UNL     1       0.322 -12.600  -6.970  0.00  0.00    +0.049 C 
ATOM     16  C   UNL     1      -0.520 -12.543  -8.246  0.00  0.00    +0.015 C 
ATOM     17  C   UNL     1       1.400 -13.676  -7.118  0.00  0.00    +0.015 C 
ENDBRANCH  11  15
BRANCH   1  18
ATOM     18  C   UNL     1      -0.137  -6.345  -1.189  0.00  0.00    +0.140 C 
ATOM     19  C   UNL     1       1.110  -6.935  -0.530  0.00  0.00    +0.034 C 
BRANCH  18  21
ATOM     20  N   UNL     1       0.056  -4.173  -0.021  0.00  0.00    -0.283 N 
ATOM     21  C   UNL     1      -0.042  -4.841  -1.187  0.00  0.00    +0.234 C 
ATOM     22  O   UNL     1      -0.054  -4.231  -2.236  0.00  0.00    -0.274 OA
ATOM     23  H   UNL     1       0.132  -4.662   0.813  0.00  0.00    +0.155 HD
BRANCH  20  28
ATOM     24  C   UNL     1       0.030   1.501   0.010  0.00  0.00    +0.044 C 
ATOM     25  C   UNL     1       0.037  -0.006   0.003  0.00  0.00    -0.049 A 
ATOM     26  C   UNL     1       0.635  -0.688  -1.042  0.00  0.00    +0.005 A 
ATOM     27  C   UNL     1       0.643  -2.069  -1.052  0.00  0.00    +0.024 A 
ATOM     28  C   UNL     1       0.050  -2.773  -0.013  0.00  0.00    +0.048 A 
ATOM     29  C   UNL     1      -0.549  -2.086   1.035  0.00  0.00    +0.039 A 
ATOM     30  C   UNL     1      -0.549  -0.704   1.042  0.00  0.00    +0.020 A 
ATOM     31 BR   UNL     1      -1.358  -3.040   2.454  0.00  0.00    -0.048 Br
ENDBRANCH  20  28
ENDBRANCH  18  21
ENDBRANCH   1  18
TORSDOF 4
