REMARK  Name = ZINC39544771
REMARK  10 active torsions:
REMARK  status: ('A' for Active; 'I' for Inactive)
REMARK    1  A    between atoms: C_1  and  C_2
REMARK    2  A    between atoms: C_2  and  O_3
REMARK    3  A    between atoms: O_3  and  C_4
REMARK    4  A    between atoms: C_6  and  C_18
REMARK    5  A    between atoms: N_20  and  C_21
REMARK    6  A    between atoms: N_20  and  C_28
REMARK    7  A    between atoms: C_21  and  C_22
REMARK    8  A    between atoms: C_28  and  C_29
REMARK    9  A    between atoms: C_29  and  C_30
REMARK   10  A    between atoms: C_29  and  C_31
REMARK                            x       y       z     vdW  Elec       q    Type
REMARK                         _______ _______ _______ _____ _____    ______ ____
ROOT
ATOM      1  C   UNL     1      -0.961  -1.876  -0.840  0.00  0.00    +0.134 C 
ATOM      2  C   UNL     1      -2.416  -2.280  -0.911  0.00  0.00    +0.107 C 
ATOM      3  C   UNL     1      -2.399  -3.797  -0.644  0.00  0.00    +0.152 C 
ATOM      4  N   UNL     1      -0.972  -4.117  -0.483  0.00  0.00    -0.367 NA
ATOM      5  C   UNL     1      -0.227  -2.935  -0.598  0.00  0.00    +0.113 C 
ATOM      6  N   UNL     1       1.179  -2.955  -0.429  0.00  0.00    -0.301 N 
ATOM      7  C   UNL     1       1.644  -3.869   0.531  0.00  0.00    +0.037 A 
ATOM      8  C   UNL     1       2.992  -3.900   0.858  0.00  0.00    +0.023 A 
ATOM      9  C   UNL     1       3.451  -4.805   1.795  0.00  0.00    +0.002 A 
ATOM     10  C   UNL     1       2.565  -5.676   2.402  0.00  0.00    +0.000 A 
ATOM     11  C   UNL     1       1.222  -5.644   2.079  0.00  0.00    +0.007 A 
ATOM     12  C   UNL     1       0.750  -4.736   1.144  0.00  0.00    -0.010 A 
ATOM     13  C   UNL     1      -0.728  -4.707   0.838  0.00  0.00    +0.124 C 
ATOM     14  H   UNL     1       1.775  -2.382  -0.936  0.00  0.00    +0.153 HD
ATOM     15  H   UNL     1      -0.685  -4.763  -1.203  0.00  0.00    +0.129 HD
ENDROOT
BRANCH   3  16
ATOM     16  C   UNL     1      -2.982  -4.546  -1.815  0.00  0.00    +0.235 C 
ATOM     17  O   UNL     1      -2.249  -5.097  -2.608  0.00  0.00    -0.274 OA
ATOM     18  N   UNL     1      -4.318  -4.602  -1.981  0.00  0.00    -0.295 N 
BRANCH  18  19
ATOM     19  C   UNL     1      -4.882  -5.239  -3.174  0.00  0.00    +0.143 C 
BRANCH  19  20
ATOM     20  C   UNL     1      -5.107  -6.705  -2.901  0.00  0.00    -0.030 A 
ATOM     21  C   UNL     1      -4.104  -7.618  -3.164  0.00  0.00    +0.005 A 
ATOM     22  C   UNL     1      -4.310  -8.962  -2.914  0.00  0.00    +0.000 A 
ATOM     23  C   UNL     1      -5.520  -9.392  -2.402  0.00  0.00    +0.000 A 
ATOM     24  C   UNL     1      -6.523  -8.478  -2.139  0.00  0.00    +0.000 A 
ATOM     25  C   UNL     1      -6.315  -7.134  -2.384  0.00  0.00    +0.005 A 
ENDBRANCH  19  20
ENDBRANCH  18  19
BRANCH  18  26
ATOM     26  C   UNL     1      -5.207  -4.027  -0.969  0.00  0.00    +0.111 C 
BRANCH  26  27
ATOM     27  C   UNL     1      -5.433  -2.544  -1.272  0.00  0.00    +0.000 C 
ATOM     28  C   UNL     1      -6.206  -2.404  -2.585  0.00  0.00    +0.009 C 
ATOM     29  C   UNL     1      -6.237  -1.908  -0.136  0.00  0.00    +0.009 C 
ENDBRANCH  26  27
ENDBRANCH  18  26
ENDBRANCH   3  16
BRANCH   1  30
ATOM     30  O   UNL     1      -0.486  -0.612  -1.007  0.00  0.00    -0.493 OA
BRANCH  30  32
ATOM     31  C   UNL     1       1.274   1.033  -1.190  0.00  0.00    +0.048 C 
ATOM     32  C   UNL     1       0.933  -0.449  -1.024  0.00  0.00    +0.225 C 
ENDBRANCH  30  32
ENDBRANCH   1  30
TORSDOF 7
