REMARK  Name = ZINC61231125
REMARK  10 active torsions:
REMARK  status: ('A' for Active; 'I' for Inactive)
REMARK    1  A    between atoms: C_1  and  C_2
REMARK    2  A    between atoms: C_2  and  S_3
REMARK    3  A    between atoms: S_3  and  N_6
REMARK    4  A    between atoms: N_6  and  C_7
REMARK    5  A    between atoms: C_7  and  C_8
REMARK    6  A    between atoms: C_8  and  N_9
REMARK    7  A    between atoms: N_12  and  C_13
REMARK    8  A    between atoms: C_13  and  C_14
REMARK    9  A    between atoms: C_14  and  C_15
REMARK   10  A    between atoms: C_14  and  N_20
REMARK                            x       y       z     vdW  Elec       q    Type
REMARK                         _______ _______ _______ _____ _____    ______ ____
ROOT
ATOM      1  N   UNL     1      -0.561  -5.163   2.157  0.00  0.00    -0.298 N 
ATOM      2  C   UNL     1      -0.596  -6.508   2.239  0.00  0.00    +0.300 C 
ATOM      3  O   UNL     1      -1.024  -7.162   1.308  0.00  0.00    -0.253 OA
ATOM      4  N   UNL     1      -0.157  -7.127   3.352  0.00  0.00    -0.301 N 
ATOM      5  H   UNL     1      -0.220  -4.641   2.900  0.00  0.00    +0.150 HD
ATOM      6  H   UNL     1       0.184  -6.605   4.095  0.00  0.00    +0.150 HD
ENDROOT
BRANCH   1   7
ATOM      7  C   UNL     1      -1.039  -4.490   0.947  0.00  0.00    +0.122 C 
BRANCH   7   8
ATOM      8  C   UNL     1      -0.890  -2.976   1.113  0.00  0.00    +0.124 C 
BRANCH   8   9
ATOM      9  N   UNL     1      -1.368  -2.303  -0.097  0.00  0.00    -0.193 NA
ATOM     10  H   UNL     1      -1.503  -2.810  -0.913  0.00  0.00    +0.148 HD
BRANCH   9  11
ATOM     11  S   UNL     1      -1.677  -0.676  -0.073  0.00  0.00    +0.029 S 
ATOM     12  O   UNL     1      -2.522  -0.484   1.054  0.00  0.00    -0.158 OA
ATOM     13  O   UNL     1      -2.137  -0.374  -1.383  0.00  0.00    -0.158 OA
BRANCH  11  15
ATOM     14  C   UNL     1      -0.230   1.621   0.259  0.00  0.00    +0.029 C 
ATOM     15  C   UNL     1      -0.064   0.101   0.217  0.00  0.00    +0.181 C 
ENDBRANCH  11  15
ENDBRANCH   9  11
ENDBRANCH   8   9
ENDBRANCH   7   8
ENDBRANCH   1   7
BRANCH   4  16
ATOM     16  C   UNL     1      -0.195  -8.589   3.441  0.00  0.00    +0.095 C 
BRANCH  16  17
ATOM     17  C   UNL     1       0.477  -9.039   4.739  0.00  0.00    -0.013 C 
BRANCH  17  18
ATOM     18  N   UNL     1       0.324 -10.492   4.892  0.00  0.00    +0.386 N 
ATOM     19  C   UNL     1       0.954 -10.943   6.159  0.00  0.00    -0.078 C 
ATOM     20  C   UNL     1       0.247 -12.292   6.446  0.00  0.00    -0.020 C 
ATOM     21  C   UNL     1      -1.206 -12.025   5.989  0.00  0.00    -0.020 C 
ATOM     22  C   UNL     1      -1.108 -10.845   5.005  0.00  0.00    -0.078 C 
ATOM     23  H   UNL     1       0.739 -10.970   4.106  0.00  0.00    -0.081 HD
ENDBRANCH  17  18
BRANCH  17  24
ATOM     24  C   UNL     1       1.942  -8.690   4.694  0.00  0.00    -0.022 A 
ATOM     25  C   UNL     1       2.589  -7.645   5.266  0.00  0.00    +0.009 A 
ATOM     26  C   UNL     1       3.954  -7.524   5.089  0.00  0.00    +0.008 A 
ATOM     27  C   UNL     1       4.606  -8.454   4.349  0.00  0.00    +0.045 A 
ATOM     28  S   UNL     1       3.278  -9.550   3.880  0.00  0.00    -0.103 S 
ENDBRANCH  17  24
ENDBRANCH  16  17
ENDBRANCH   4  16
TORSDOF 9
