REMARK  Name = ZINC67392800
REMARK  10 active torsions:
REMARK  status: ('A' for Active; 'I' for Inactive)
REMARK    1  A    between atoms: C_1  and  C_2
REMARK    2  A    between atoms: N_7  and  C_9
REMARK    3  A    between atoms: C_9  and  C_10
REMARK    4  A    between atoms: C_9  and  C_11
REMARK    5  A    between atoms: C_9  and  C_12
REMARK    6  A    between atoms: C_12  and  N_13
REMARK    7  A    between atoms: C_14  and  C_16
REMARK    8  A    between atoms: N_18  and  C_19
REMARK    9  A    between atoms: C_22  and  O_25
REMARK   10  A    between atoms: O_25  and  C_26
REMARK                            x       y       z     vdW  Elec       q    Type
REMARK                         _______ _______ _______ _____ _____    ______ ____
ROOT
ATOM      1  N   UNL     1       2.191  -4.461   1.145  0.00  0.00    -0.309 N 
ATOM      2  C   UNL     1       2.326  -5.782   0.918  0.00  0.00    +0.299 C 
ATOM      3  O   UNL     1       1.938  -6.583   1.743  0.00  0.00    -0.265 OA
ATOM      4  H   UNL     1       2.501  -3.821   0.485  0.00  0.00    +0.149 HD
ENDROOT
BRANCH   2   5
ATOM      5  C   UNL     1       2.955  -6.261  -0.350  0.00  0.00    +0.303 C 
ATOM      6  O   UNL     1       3.343  -5.460  -1.175  0.00  0.00    -0.265 OA
ATOM      7  N   UNL     1       3.091  -7.583  -0.577  0.00  0.00    -0.278 N 
ATOM      8  H   UNL     1       2.843  -8.221   0.110  0.00  0.00    +0.155 HD
BRANCH   7   9
ATOM      9  C   UNL     1       3.590  -8.034  -1.803  0.00  0.00    +0.034 A 
ATOM     10  C   UNL     1       4.573  -7.307  -2.463  0.00  0.00    +0.027 A 
ATOM     11  C   UNL     1       5.065  -7.753  -3.673  0.00  0.00    +0.047 A 
ATOM     12  C   UNL     1       4.578  -8.927  -4.230  0.00  0.00    +0.127 A 
ATOM     13  C   UNL     1       3.596  -9.653  -3.572  0.00  0.00    +0.047 A 
ATOM     14  C   UNL     1       3.107  -9.212  -2.359  0.00  0.00    +0.027 A 
BRANCH  12  15
ATOM     15  O   UNL     1       5.064  -9.366  -5.422  0.00  0.00    -0.434 OA
BRANCH  15  16
ATOM     16  C   UNL     1       4.517 -10.582  -5.937  0.00  0.00    +0.541 C 
ATOM     17  F   UNL     1       4.753 -11.620  -5.030  0.00  0.00    -0.166 F 
ATOM     18  F   UNL     1       3.139 -10.431  -6.125  0.00  0.00    -0.166 F 
ENDBRANCH  15  16
ENDBRANCH  12  15
ENDBRANCH   7   9
ENDBRANCH   2   5
BRANCH   1  19
ATOM     19  C   UNL     1       1.574  -3.991   2.388  0.00  0.00    +0.092 C 
BRANCH  19  20
ATOM     20  C   UNL     1       1.542  -2.461   2.395  0.00  0.00    -0.055 C 
ATOM     21  C   UNL     1       2.970  -1.921   2.297  0.00  0.00    -0.008 C 
ATOM     22  C   UNL     1       0.898  -1.970   3.693  0.00  0.00    -0.008 C 
BRANCH  20  28
ATOM     23  C   UNL     1      -0.035   1.519   0.021  0.00  0.00    +0.005 C 
ATOM     24  C   UNL     1      -0.011  -0.010   0.014  0.00  0.00    -0.031 C 
ATOM     25  C   UNL     1      -1.446  -0.545   0.038  0.00  0.00    -0.001 C 
ATOM     26  C   UNL     1      -1.410  -2.074   0.110  0.00  0.00    -0.018 C 
ATOM     27  C   UNL     1      -0.612  -2.502   1.343  0.00  0.00    -0.078 C 
ATOM     28  N   UNL     1       0.758  -1.983   1.248  0.00  0.00    +0.384 N 
ATOM     29  C   UNL     1       0.736  -0.515   1.250  0.00  0.00    -0.075 C 
ATOM     30  H   UNL     1       1.182  -2.310   0.393  0.00  0.00    -0.081 HD
ENDBRANCH  20  28
ENDBRANCH  19  20
ENDBRANCH   1  19
TORSDOF 7
