REMARK  Name = ZINC44166747
REMARK  10 active torsions:
REMARK  status: ('A' for Active; 'I' for Inactive)
REMARK    1  A    between atoms: C_1  and  C_2
REMARK    2  A    between atoms: C_2  and  N_3
REMARK    3  A    between atoms: N_3  and  C_4
REMARK    4  A    between atoms: N_3  and  C_6
REMARK    5  A    between atoms: C_4  and  C_5
REMARK    6  A    between atoms: C_9  and  C_12
REMARK    7  A    between atoms: C_17  and  C_20
REMARK    8  A    between atoms: N_22  and  C_23
REMARK    9  A    between atoms: C_23  and  C_25
REMARK   10  A    between atoms: C_23  and  C_26
REMARK                            x       y       z     vdW  Elec       q    Type
REMARK                         _______ _______ _______ _____ _____    ______ ____
ROOT
ATOM      1  C   UNL     1      -4.283  -1.357   5.018  0.00  0.00    -0.030 C 
ATOM      2  C   UNL     1      -5.265  -0.242   5.396  0.00  0.00    +0.058 C 
ATOM      3  S   UNL     1      -5.983  -0.639   7.020  0.00  0.00    -0.163 S 
ATOM      4  C   UNL     1      -6.519  -2.366   6.807  0.00  0.00    +0.062 C 
ATOM      5  C   UNL     1      -5.349  -3.163   6.218  0.00  0.00    +0.027 C 
ATOM      6  N   UNL     1      -4.998  -2.629   4.900  0.00  0.00    +0.392 N 
ATOM      7  H   UNL     1      -5.841  -2.486   4.365  0.00  0.00    -0.084 HD
ATOM      8  H   UNL     1      -4.412  -3.295   4.420  0.00  0.00    -0.084 HD
ENDROOT
BRANCH   1  12
ATOM      9  C   UNL     1      -2.433  -0.417   1.282  0.00  0.00    +0.030 A 
ATOM     10  C   UNL     1      -1.760  -0.175   2.472  0.00  0.00    +0.023 A 
ATOM     11  C   UNL     1      -2.361  -0.479   3.678  0.00  0.00    +0.004 A 
ATOM     12  C   UNL     1      -3.631  -1.025   3.701  0.00  0.00    -0.060 A 
ATOM     13  C   UNL     1      -4.304  -1.268   2.517  0.00  0.00    +0.004 A 
ATOM     14  C   UNL     1      -3.711  -0.961   1.308  0.00  0.00    +0.023 A 
BRANCH   9  15
ATOM     15  N   UNL     1      -1.829  -0.110   0.060  0.00  0.00    -0.330 N 
BRANCH  15  17
ATOM     16  C   UNL     1      -0.574   1.989   0.080  0.00  0.00    +0.024 C 
ATOM     17  C   UNL     1      -0.481   0.463   0.034  0.00  0.00    +0.102 C 
ENDBRANCH  15  17
BRANCH  15  18
ATOM     18  C   UNL     1      -2.543  -0.361  -1.194  0.00  0.00    +0.102 C 
ATOM     19  C   UNL     1      -2.228  -1.776  -1.686  0.00  0.00    +0.024 C 
ENDBRANCH  15  18
ENDBRANCH   9  15
ENDBRANCH   1  12
BRANCH   5  20
ATOM     20  C   UNL     1      -5.748  -4.610   6.081  0.00  0.00    +0.200 C 
ATOM     21  O   UNL     1      -5.744  -5.139   4.989  0.00  0.00    -0.278 OA
ATOM     22  N   UNL     1      -6.109  -5.316   7.171  0.00  0.00    -0.310 N 
ATOM     23  H   UNL     1      -6.112  -4.893   8.043  0.00  0.00    +0.149 HD
BRANCH  22  24
ATOM     24  C   UNL     1      -6.497  -6.722   7.037  0.00  0.00    +0.101 C 
ATOM     25  C   UNL     1      -7.992  -6.812   6.725  0.00  0.00    +0.033 C 
BRANCH  24  26
ATOM     26  C   UNL     1      -6.209  -7.447   8.326  0.00  0.00    -0.020 A 
ATOM     27  C   UNL     1      -6.204  -6.769   9.506  0.00  0.00    +0.006 A 
ATOM     28  C   UNL     1      -5.940  -7.423  10.708  0.00  0.00    +0.001 A 
ATOM     29  C   UNL     1      -5.678  -8.758  10.737  0.00  0.00    +0.008 A 
ATOM     30  C   UNL     1      -5.674  -9.492   9.539  0.00  0.00    -0.018 A 
ATOM     31  C   UNL     1      -5.949  -8.828   8.317  0.00  0.00    -0.013 A 
ATOM     32  C   UNL     1      -5.951  -9.563   7.119  0.00  0.00    +0.009 A 
ATOM     33  C   UNL     1      -5.696 -10.900   7.148  0.00  0.00    +0.001 A 
ATOM     34  C   UNL     1      -5.432 -11.553   8.351  0.00  0.00    +0.001 A 
ATOM     35  C   UNL     1      -5.408 -10.872   9.528  0.00  0.00    +0.008 A 
ENDBRANCH  24  26
ENDBRANCH  22  24
ENDBRANCH   5  20
TORSDOF 7
