REMARK  Name = ZINC28058684
REMARK  6 active torsions:
REMARK  status: ('A' for Active; 'I' for Inactive)
REMARK    1  A    between atoms: C_1  and  O_2
REMARK    2  A    between atoms: O_2  and  C_3
REMARK    3  A    between atoms: C_6  and  C_11
REMARK    4  A    between atoms: C_7  and  O_9
REMARK    5  A    between atoms: O_9  and  C_10
REMARK    6  A    between atoms: C_22  and  C_24
REMARK                            x       y       z     vdW  Elec       q    Type
REMARK                         _______ _______ _______ _____ _____    ______ ____
ROOT
ATOM      1  C   UNL     1      -1.752   1.175  -1.916  0.00  0.00    +0.177 C 
ATOM      2  C   UNL     1      -0.590   1.805  -1.190  0.00  0.00    +0.026 C 
ATOM      3  C   UNL     1      -0.060   2.970  -1.567  0.00  0.00    +0.050 C 
ATOM      4  C   UNL     1       1.085   3.508  -0.794  0.00  0.00    +0.038 A 
ATOM      5  C   UNL     1       1.467   4.840  -0.890  0.00  0.00    +0.013 A 
ATOM      6  C   UNL     1       2.543   5.295  -0.153  0.00  0.00    +0.001 A 
ATOM      7  C   UNL     1       3.237   4.431   0.676  0.00  0.00    +0.004 A 
ATOM      8  C   UNL     1       2.863   3.103   0.779  0.00  0.00    +0.046 A 
ATOM      9  C   UNL     1       1.787   2.635   0.048  0.00  0.00    +0.131 A 
ATOM     10  O   UNL     1       1.387   1.340   0.121  0.00  0.00    -0.479 OA
ATOM     11  C   UNL     1      -0.013   1.086   0.008  0.00  0.00    +0.234 C 
ATOM     12  N   UNL     1      -0.543   3.691  -2.665  0.00  0.00    -0.282 N 
ATOM     13  C   UNL     1      -1.405   3.034  -3.527  0.00  0.00    +0.240 A 
ATOM     14  N   UNL     1      -1.973   1.847  -3.189  0.00  0.00    -0.201 N 
ATOM     15  N   UNL     1      -2.754   1.483  -4.285  0.00  0.00    -0.042 NA
ATOM     16  N   UNL     1      -2.618   2.424  -5.163  0.00  0.00    -0.021 NA
ATOM     17  N   UNL     1      -1.826   3.340  -4.720  0.00  0.00    -0.092 NA
ATOM     18  H   UNL     1      -0.235   4.737  -2.816  0.00  0.00    +0.155 HD
ENDROOT
BRANCH  11  19
ATOM     19  C   UNL     1      -0.707   1.566   1.256  0.00  0.00    -0.002 A 
ATOM     20  C   UNL     1      -1.640   0.760   1.882  0.00  0.00    +0.007 A 
ATOM     21  C   UNL     1      -2.273   1.198   3.030  0.00  0.00    +0.001 A 
ATOM     22  C   UNL     1      -1.982   2.447   3.547  0.00  0.00    +0.015 A 
ATOM     23  C   UNL     1      -1.053   3.256   2.918  0.00  0.00    +0.018 A 
ATOM     24  C   UNL     1      -0.415   2.815   1.772  0.00  0.00    +0.022 A 
ATOM     25 BR   UNL     1      -0.655   4.964   3.624  0.00  0.00    -0.050 Br
ENDBRANCH  11  19
BRANCH   1  29
ATOM     26  C   UNL     1      -5.272   1.504   0.491  0.00  0.00    +0.124 A 
ATOM     27  C   UNL     1      -4.600   2.646   0.078  0.00  0.00    +0.046 A 
ATOM     28  C   UNL     1      -3.463   2.537  -0.699  0.00  0.00    +0.013 A 
ATOM     29  C   UNL     1      -2.993   1.290  -1.068  0.00  0.00    +0.023 A 
ATOM     30  C   UNL     1      -3.665   0.146  -0.663  0.00  0.00    +0.129 A 
ATOM     31  C   UNL     1      -4.803   0.254   0.122  0.00  0.00    +0.091 A 
BRANCH  26  33
ATOM     32  C   UNL     1      -6.817   2.933   1.597  0.00  0.00    +0.277 C 
ATOM     33  O   UNL     1      -6.391   1.613   1.255  0.00  0.00    -0.495 OA
ENDBRANCH  26  33
BRANCH  30  34
ATOM     34  O   UNL     1      -3.206  -1.079  -1.031  0.00  0.00    -0.495 OA
ATOM     35  C   UNL     1      -3.948  -2.213  -0.579  0.00  0.00    +0.277 C 
ENDBRANCH  30  34
ENDBRANCH   1  29
TORSDOF 4
