REMARK  Name = ZINC09540408
REMARK  12 active torsions:
REMARK  status: ('A' for Active; 'I' for Inactive)
REMARK    1  A    between atoms: C_1  and  N_2
REMARK    2  A    between atoms: N_2  and  C_3
REMARK    3  A    between atoms: N_2  and  C_4
REMARK    4  A    between atoms: C_7  and  C_10
REMARK    5  A    between atoms: C_10  and  C_12
REMARK    6  A    between atoms: C_10  and  C_28
REMARK    7  A    between atoms: C_12  and  N_13
REMARK    8  A    between atoms: C_14  and  C_16
REMARK    9  A    between atoms: C_19  and  S_22
REMARK   10  A    between atoms: S_22  and  N_25
REMARK   11  A    between atoms: N_25  and  C_26
REMARK   12  A    between atoms: N_25  and  C_27
REMARK                            x       y       z     vdW  Elec       q    Type
REMARK                         _______ _______ _______ _____ _____    ______ ____
ROOT
ATOM      1  C   UNL     1       2.490   1.045  -0.022  0.00  0.00    +0.068 C 
ENDROOT
BRANCH   1   2
ATOM      2  C   UNL     1       3.256   1.413  -1.267  0.00  0.00    -0.013 A 
ATOM      3  C   UNL     1       3.658   2.644  -1.622  0.00  0.00    +0.088 A 
ATOM      4  N   UNL     1       4.329   2.589  -2.813  0.00  0.00    -0.360 N 
ATOM      5  H   UNL     1       4.717   3.352  -3.270  0.00  0.00    +0.165 HD
ATOM      6  C   UNL     1       4.367   1.291  -3.270  0.00  0.00    +0.047 A 
ATOM      7  C   UNL     1       3.696   0.497  -2.322  0.00  0.00    +0.003 A 
ATOM      8  C   UNL     1       3.577  -0.879  -2.525  0.00  0.00    +0.010 A 
ATOM      9  C   UNL     1       4.113  -1.448  -3.645  0.00  0.00    +0.001 A 
ATOM     10  C   UNL     1       4.775  -0.670  -4.584  0.00  0.00    +0.002 A 
ATOM     11  C   UNL     1       4.905   0.690  -4.404  0.00  0.00    +0.026 A 
ENDBRANCH   1   2
BRANCH   1  15
ATOM     12  C   UNL     1      -1.236   3.138   0.029  0.00  0.00    +0.029 A 
ATOM     13  C   UNL     1      -1.218   1.749   0.029  0.00  0.00    +0.023 A 
ATOM     14  C   UNL     1      -0.012   1.076   0.018  0.00  0.00    +0.006 A 
ATOM     15  C   UNL     1       1.176   1.783  -0.004  0.00  0.00    -0.038 A 
ATOM     16  C   UNL     1       1.161   3.166  -0.010  0.00  0.00    +0.006 A 
ATOM     17  C   UNL     1      -0.041   3.845   0.006  0.00  0.00    +0.023 A 
BRANCH  12  19
ATOM     18  C   UNL     1      -2.472   5.282   0.166  0.00  0.00    +0.129 C 
ATOM     19  N   UNL     1      -2.454   3.822   0.046  0.00  0.00    -0.336 N 
ATOM     20  C   UNL     1      -3.712   3.080  -0.056  0.00  0.00    +0.129 C 
ENDBRANCH  12  19
ENDBRANCH   1  15
BRANCH   1  21
ATOM     21  C   UNL     1       3.308   1.429   1.212  0.00  0.00    +0.117 C 
BRANCH  21  22
ATOM     22  N   UNL     1       4.531   0.624   1.257  0.00  0.00    -0.310 N 
ATOM     23  C   UNL     1       5.411   0.791   2.264  0.00  0.00    +0.244 C 
ATOM     24  O   UNL     1       5.190   1.610   3.135  0.00  0.00    -0.270 OA
ATOM     25  H   UNL     1       4.708  -0.029   0.563  0.00  0.00    +0.149 HD
BRANCH  23  26
ATOM     26  C   UNL     1       6.645  -0.021   2.310  0.00  0.00    +0.037 A 
ATOM     27  C   UNL     1       6.900  -0.966   1.315  0.00  0.00    +0.015 A 
ATOM     28  C   UNL     1       8.056  -1.717   1.361  0.00  0.00    +0.029 A 
ATOM     29  C   UNL     1       8.957  -1.543   2.396  0.00  0.00    +0.105 A 
ATOM     30  C   UNL     1       8.708  -0.612   3.389  0.00  0.00    +0.029 A 
ATOM     31  C   UNL     1       7.559   0.150   3.352  0.00  0.00    +0.015 A 
BRANCH  29  32
ATOM     32  S   UNL     1      10.429  -2.510   2.450  0.00  0.00    +0.060 S 
ATOM     33  O   UNL     1      10.693  -2.923   1.116  0.00  0.00    -0.153 OA
ATOM     34  O   UNL     1      11.370  -1.776   3.220  0.00  0.00    -0.153 OA
BRANCH  32  35
ATOM     35  N   UNL     1      10.081  -3.882   3.310  0.00  0.00    -0.183 NA
ATOM     36  C   UNL     1       9.582  -5.074   2.619  0.00  0.00    +0.131 C 
ATOM     37  C   UNL     1      10.272  -3.905   4.762  0.00  0.00    +0.131 C 
ENDBRANCH  32  35
ENDBRANCH  29  32
ENDBRANCH  23  26
ENDBRANCH  21  22
ENDBRANCH   1  21
TORSDOF 8
