REMARK  Name = ZINC10298718
REMARK  8 active torsions:
REMARK  status: ('A' for Active; 'I' for Inactive)
REMARK    1  A    between atoms: C_1  and  C_2
REMARK    2  A    between atoms: C_3  and  C_16
REMARK    3  A    between atoms: C_4  and  C_15
REMARK    4  A    between atoms: C_16  and  C_17
REMARK    5  A    between atoms: C_17  and  C_18
REMARK    6  A    between atoms: N_20  and  C_21
REMARK    7  A    between atoms: N_20  and  C_22
REMARK    8  A    between atoms: C_22  and  C_23
REMARK                            x       y       z     vdW  Elec       q    Type
REMARK                         _______ _______ _______ _____ _____    ______ ____
ROOT
ATOM      1  C   UNL     1       0.431   9.213  -3.873  0.00  0.00    +0.048 C 
ENDROOT
BRANCH   1   4
ATOM      2  C   UNL     1      -0.251  11.997  -4.397  0.00  0.00    +0.066 C 
ATOM      3  C   UNL     1      -0.029  11.045  -5.544  0.00  0.00    +0.045 A 
ATOM      4  C   UNL     1       0.298   9.708  -5.290  0.00  0.00    -0.005 A 
ATOM      5  C   UNL     1       0.501   8.864  -6.334  0.00  0.00    +0.047 A 
ATOM      6  N   UNL     1       0.370   9.335  -7.606  0.00  0.00    -0.217 N 
ATOM      7  C   UNL     1       0.050  10.647  -7.813  0.00  0.00    +0.164 A 
ATOM      8  N   UNL     1      -0.142  11.471  -6.783  0.00  0.00    -0.232 NA
ATOM      9  C   UNL     1      -0.009  10.843  -9.209  0.00  0.00    +0.046 A 
ATOM     10  C   UNL     1      -0.287  11.955 -10.016  0.00  0.00    +0.014 A 
ATOM     11  C   UNL     1      -0.267  11.830 -11.372  0.00  0.00    +0.001 A 
ATOM     12  C   UNL     1       0.025  10.606 -11.973  0.00  0.00    +0.002 A 
ATOM     13  C   UNL     1       0.299   9.505 -11.224  0.00  0.00    +0.030 A 
ATOM     14  C   UNL     1       0.289   9.595  -9.817  0.00  0.00    +0.095 A 
ATOM     15  N   UNL     1       0.512   8.710  -8.851  0.00  0.00    -0.165 NA
ATOM     16  C   UNL     1       0.860   7.421  -6.089  0.00  0.00    +0.066 C 
ENDBRANCH   1   4
BRANCH   1  17
ATOM     17  C   UNL     1      -0.926   8.705  -3.381  0.00  0.00    +0.101 C 
BRANCH  17  18
ATOM     18  C   UNL     1      -0.794   8.210  -1.964  0.00  0.00    +0.216 C 
ATOM     19  O   UNL     1       0.280   8.258  -1.403  0.00  0.00    -0.276 OA
ATOM     20  N   UNL     1      -1.869   7.713  -1.321  0.00  0.00    -0.298 N 
ATOM     21  C   UNL     1      -3.166   7.654  -2.000  0.00  0.00    +0.132 C 
BRANCH  20  22
ATOM     22  C   UNL     1      -1.740   7.231   0.057  0.00  0.00    +0.170 C 
BRANCH  22  23
ATOM     23  C   UNL     1      -1.385   5.767   0.046  0.00  0.00    +0.097 A 
ATOM     24  N   UNL     1      -0.201   5.223   0.032  0.00  0.00    -0.242 NA
ATOM     25  C   UNL     1      -0.017   3.886   0.023  0.00  0.00    +0.079 A 
ATOM     26  C   UNL     1       1.190   3.152   0.007  0.00  0.00    +0.029 A 
ATOM     27  C   UNL     1       1.176   1.792   0.001  0.00  0.00    +0.002 A 
ATOM     28  C   UNL     1      -0.013   1.076   0.008  0.00  0.00    +0.001 A 
ATOM     29  C   UNL     1      -1.215   1.757   0.017  0.00  0.00    +0.017 A 
ATOM     30  C   UNL     1      -1.212   3.130   0.030  0.00  0.00    +0.039 A 
ATOM     31  S   UNL     1      -2.454   4.399   0.049  0.00  0.00    -0.071 S 
ENDBRANCH  22  23
ENDBRANCH  20  22
ENDBRANCH  17  18
ENDBRANCH   1  17
TORSDOF 5
