REMARK  Name = ZINC35862486
REMARK  9 active torsions:
REMARK  status: ('A' for Active; 'I' for Inactive)
REMARK    1  A    between atoms: C_1  and  C_2
REMARK    2  A    between atoms: C_5  and  C_8
REMARK    3  A    between atoms: C_12  and  O_24
REMARK    4  A    between atoms: C_19  and  C_21
REMARK    5  A    between atoms: O_24  and  C_25
REMARK    6  A    between atoms: C_25  and  C_26
REMARK    7  A    between atoms: C_29  and  C_31
REMARK    8  A    between atoms: N_33  and  C_34
REMARK    9  A    between atoms: C_34  and  C_35
REMARK                            x       y       z     vdW  Elec       q    Type
REMARK                         _______ _______ _______ _____ _____    ______ ____
ROOT
ATOM      1  C   UNL     1       0.048  -4.271  -0.008  0.00  0.00    +0.137 C 
ATOM      2  C   UNL     1      -1.311  -4.804   0.370  0.00  0.00    -0.016 A 
ATOM      3  C   UNL     1      -2.418  -4.261  -0.267  0.00  0.00    +0.051 A 
ATOM      4  C   UNL     1      -3.692  -4.716   0.029  0.00  0.00    +0.121 A 
ATOM      5  C   UNL     1      -3.858  -5.723   0.970  0.00  0.00    +0.046 A 
ATOM      6  C   UNL     1      -2.757  -6.256   1.603  0.00  0.00    +0.007 A 
ATOM      7  C   UNL     1      -1.479  -5.796   1.310  0.00  0.00    -0.040 A 
ATOM      8  C   UNL     1      -0.328  -6.410   2.064  0.00  0.00    +0.054 C 
ATOM      9  C   UNL     1       0.991  -6.177   1.327  0.00  0.00    +0.113 C 
ATOM     10  N   UNL     1       1.051  -4.756   0.947  0.00  0.00    -0.290 N 
ATOM     11  C   UNL     1       1.990  -3.934   1.455  0.00  0.00    +0.219 C 
ATOM     12  O   UNL     1       1.973  -2.752   1.183  0.00  0.00    -0.275 OA
ENDROOT
BRANCH   1  17
ATOM     13  C   UNL     1      -0.055   1.506   0.086  0.00  0.00    +0.044 C 
ATOM     14  C   UNL     1      -0.028  -0.001   0.061  0.00  0.00    -0.050 A 
ATOM     15  C   UNL     1      -0.410  -0.717   1.180  0.00  0.00    +0.004 A 
ATOM     16  C   UNL     1      -0.386  -2.099   1.158  0.00  0.00    +0.006 A 
ATOM     17  C   UNL     1       0.021  -2.764   0.016  0.00  0.00    -0.023 A 
ATOM     18  C   UNL     1       0.402  -2.048  -1.103  0.00  0.00    +0.006 A 
ATOM     19  C   UNL     1       0.373  -0.666  -1.082  0.00  0.00    +0.004 A 
ENDBRANCH   1  17
BRANCH  11  20
ATOM     20  C   UNL     1       3.062  -4.483   2.360  0.00  0.00    +0.075 C 
ATOM     21  C   UNL     1       3.025  -4.068   3.832  0.00  0.00    +0.013 C 
ATOM     22  C   UNL     1       4.100  -3.499   2.904  0.00  0.00    +0.013 C 
ENDBRANCH  11  20
BRANCH   4  23
ATOM     23  O   UNL     1      -4.772  -4.179  -0.597  0.00  0.00    -0.484 OA
BRANCH  23  24
ATOM     24  C   UNL     1      -6.054  -4.700  -0.239  0.00  0.00    +0.303 C 
BRANCH  24  25
ATOM     25  C   UNL     1      -7.123  -3.989  -1.029  0.00  0.00    +0.143 A 
ATOM     26  C   UNL     1      -7.600  -4.376  -2.233  0.00  0.00    +0.049 A 
ATOM     27  C   UNL     1      -8.577  -3.442  -2.609  0.00  0.00    +0.055 A 
ATOM     28  C   UNL     1      -8.648  -2.521  -1.604  0.00  0.00    +0.190 A 
ATOM     29  O   UNL     1      -7.760  -2.874  -0.651  0.00  0.00    -0.452 OA
BRANCH  28  30
ATOM     30  C   UNL     1      -9.537  -1.355  -1.564  0.00  0.00    +0.280 C 
ATOM     31  O   UNL     1     -10.301  -1.141  -2.486  0.00  0.00    -0.267 OA
ATOM     32  N   UNL     1      -9.506  -0.520  -0.507  0.00  0.00    -0.302 N 
ATOM     33  H   UNL     1      -8.896  -0.690   0.228  0.00  0.00    +0.150 HD
BRANCH  32  34
ATOM     34  C   UNL     1     -10.394   0.645  -0.467  0.00  0.00    +0.179 C 
BRANCH  34  35
ATOM     35  C   UNL     1     -10.164   1.409   0.811  0.00  0.00    +0.122 A 
ATOM     36  C   UNL     1      -9.283   2.410   0.982  0.00  0.00    +0.046 A 
ATOM     37  C   UNL     1      -9.399   2.834   2.326  0.00  0.00    +0.041 A 
ATOM     38  C   UNL     1     -10.345   2.066   2.896  0.00  0.00    +0.195 A 
ATOM     39  O   UNL     1     -10.808   1.208   1.973  0.00  0.00    -0.466 OA
ENDBRANCH  34  35
ENDBRANCH  32  34
ENDBRANCH  28  30
ENDBRANCH  24  25
ENDBRANCH  23  24
ENDBRANCH   4  23
TORSDOF 8
