REMARK  Name = ZINC04795914
REMARK  4 active torsions:
REMARK  status: ('A' for Active; 'I' for Inactive)
REMARK    1  A    between atoms: C_1  and  C_2
REMARK    2  A    between atoms: C_5  and  N_11
REMARK    3  A    between atoms: C_7  and  N_8
REMARK    4  A    between atoms: N_16  and  C_19
REMARK                            x       y       z     vdW  Elec       q    Type
REMARK                         _______ _______ _______ _____ _____    ______ ____
ROOT
ATOM      1  N   UNL     1       0.655  -3.875  -0.325  0.00  0.00    -0.206 N 
ATOM      2  C   UNL     1       0.742  -4.742   0.757  0.00  0.00    +0.155 C 
ATOM      3  N   UNL     1       0.776  -4.431   2.018  0.00  0.00    -0.283 NA
ATOM      4  C   UNL     1       0.788  -6.103   0.161  0.00  0.00    +0.127 C 
ATOM      5  S   UNL     1       0.895  -7.593   0.998  0.00  0.00    -0.031 S 
ATOM      6  N   UNL     1       0.727  -5.923  -1.174  0.00  0.00    -0.214 N 
ATOM      7  C   UNL     1       0.643  -4.612  -1.449  0.00  0.00    +0.324 C 
ATOM      8  O   UNL     1       0.569  -4.150  -2.571  0.00  0.00    -0.251 OA
ATOM      9  H   UNL     1       0.837  -5.129   2.689  0.00  0.00    +0.188 HD
ENDROOT
BRANCH   1  14
ATOM     10  C   UNL     1       0.377   1.786  -0.047  0.00  0.00    +0.046 C 
ATOM     11  C   UNL     1       0.451   0.283  -0.121  0.00  0.00    -0.020 A 
ATOM     12  C   UNL     1       0.429  -0.350  -1.351  0.00  0.00    +0.007 A 
ATOM     13  C   UNL     1       0.502  -1.727  -1.422  0.00  0.00    +0.024 A 
ATOM     14  C   UNL     1       0.587  -2.478  -0.256  0.00  0.00    +0.046 A 
ATOM     15  C   UNL     1       0.603  -1.840   0.977  0.00  0.00    +0.057 A 
ATOM     16  C   UNL     1       0.535  -0.462   1.041  0.00  0.00    +0.131 A 
BRANCH  16  17
ATOM     17  N   UNL     1       0.553   0.219   2.356  0.00  0.00    +0.057 N 
ATOM     18  O   UNL     1       1.137   1.280   2.484  0.00  0.00    -0.126 OA
ATOM     19  O   UNL     1      -0.017  -0.283   3.309  0.00  0.00    -0.126 OA
ENDBRANCH  16  17
ENDBRANCH   1  14
BRANCH   6  20
ATOM     20  C   UNL     1       0.742  -6.948  -2.129  0.00  0.00    +0.043 A 
ATOM     21  C   UNL     1       1.887  -7.712  -2.311  0.00  0.00    +0.024 A 
ATOM     22  C   UNL     1       1.898  -8.725  -3.250  0.00  0.00    +0.002 A 
ATOM     23  C   UNL     1       0.773  -8.973  -4.015  0.00  0.00    +0.000 A 
ATOM     24  C   UNL     1      -0.367  -8.210  -3.839  0.00  0.00    +0.002 A 
ATOM     25  C   UNL     1      -0.386  -7.199  -2.898  0.00  0.00    +0.024 A 
ENDBRANCH   6  20
TORSDOF 3
