REMARK  Name = ZINC64508008
REMARK  14 active torsions:
REMARK  status: ('A' for Active; 'I' for Inactive)
REMARK    1  A    between atoms: C_1  and  C_2
REMARK    2  A    between atoms: C_2  and  O_3
REMARK    3  A    between atoms: O_3  and  C_4
REMARK    4  A    between atoms: C_4  and  C_6
REMARK    5  A    between atoms: C_8  and  C_38
REMARK    6  A    between atoms: C_10  and  C_14
REMARK    7  A    between atoms: C_11  and  C_13
REMARK    8  A    between atoms: C_14  and  N_15
REMARK    9  A    between atoms: N_15  and  C_16
REMARK   10  A    between atoms: C_16  and  C_17
REMARK   11  A    between atoms: C_20  and  C_23
REMARK   12  A    between atoms: C_24  and  C_26
REMARK   13  A    between atoms: C_32  and  O_36
REMARK   14  A    between atoms: O_36  and  C_37
REMARK                            x       y       z     vdW  Elec       q    Type
REMARK                         _______ _______ _______ _____ _____    ______ ____
ROOT
ATOM      1  N   UNL     1      -5.187  -5.933   3.111  0.00  0.00    -0.295 N 
ATOM      2  C   UNL     1      -6.296  -5.380   2.583  0.00  0.00    +0.242 C 
ATOM      3  O   UNL     1      -6.458  -4.179   2.633  0.00  0.00    -0.273 OA
ENDROOT
BRANCH   2   4
ATOM      4  C   UNL     1      -7.336  -6.253   1.929  0.00  0.00    +0.190 C 
ATOM      5  C   UNL     1      -6.876  -6.669   0.550  0.00  0.00    +0.016 C 
ATOM      6  C   UNL     1      -7.791  -6.179  -0.315  0.00  0.00    -0.003 A 
ATOM      7  C   UNL     1      -7.907  -6.242  -1.778  0.00  0.00    +0.013 A 
ATOM      8  C   UNL     1      -8.957  -5.642  -2.379  0.00  0.00    +0.046 A 
ATOM      9  C   UNL     1      -9.941  -4.960  -1.639  0.00  0.00    +0.122 A 
ATOM     10  C   UNL     1      -9.898  -4.861  -0.286  0.00  0.00    +0.071 A 
ATOM     11  C   UNL     1      -8.838  -5.455   0.442  0.00  0.00    +0.047 A 
ATOM     12  N   UNL     1      -8.578  -5.498   1.730  0.00  0.00    -0.370 N 
ATOM     13  H   UNL     1      -9.116  -5.098   2.432  0.00  0.00    +0.161 HD
BRANCH   9  14
ATOM     14  O   UNL     1     -10.970  -4.378  -2.303  0.00  0.00    -0.495 OA
ATOM     15  C   UNL     1     -10.978  -4.505  -3.726  0.00  0.00    +0.277 C 
ENDBRANCH   9  14
ENDBRANCH   2   4
BRANCH   1  16
ATOM     16  C   UNL     1      -4.248  -5.107   3.873  0.00  0.00    +0.118 C 
BRANCH  16  19
ATOM     17  C   UNL     1      -1.714  -2.700   2.765  0.00  0.00    +0.217 C 
ATOM     18  C   UNL     1      -2.824  -3.017   3.796  0.00  0.00    +0.031 C 
ATOM     19  C   UNL     1      -3.710  -3.988   2.978  0.00  0.00    +0.056 C 
ATOM     20  C   UNL     1      -2.765  -4.548   1.938  0.00  0.00    +0.016 C 
ATOM     21  N   UNL     1      -1.709  -3.842   1.843  0.00  0.00    -0.278 NA
ATOM     22  C   UNL     1      -3.039  -5.782   1.117  0.00  0.00    +0.060 C 
ATOM     23  C   UNL     1      -2.246  -3.704   5.034  0.00  0.00    +0.011 C 
BRANCH  17  24
ATOM     24  C   UNL     1      -0.380  -2.577   3.454  0.00  0.00    +0.332 C 
ATOM     25  O   UNL     1       0.387  -3.511   3.457  0.00  0.00    -0.248 OA
BRANCH  24  26
ATOM     26  O   UNL     1      -0.042  -1.430   4.064  0.00  0.00    -0.463 OA
BRANCH  26  28
ATOM     27  C   UNL     1       1.443  -0.007   5.333  0.00  0.00    +0.048 C 
ATOM     28  C   UNL     1       1.238  -1.384   4.696  0.00  0.00    +0.229 C 
ENDBRANCH  26  28
ENDBRANCH  24  26
ENDBRANCH  17  24
ENDBRANCH  16  19
ENDBRANCH   1  16
BRANCH   1  29
ATOM     29  C   UNL     1      -4.919  -7.361   2.922  0.00  0.00    +0.143 C 
BRANCH  29  30
ATOM     30  C   UNL     1      -5.566  -8.145   4.035  0.00  0.00    -0.030 A 
ATOM     31  C   UNL     1      -4.926  -8.269   5.255  0.00  0.00    +0.005 A 
ATOM     32  C   UNL     1      -5.519  -8.987   6.276  0.00  0.00    +0.003 A 
ATOM     33  C   UNL     1      -6.752  -9.581   6.078  0.00  0.00    -0.050 A 
ATOM     34  C   UNL     1      -7.391  -9.457   4.859  0.00  0.00    +0.003 A 
ATOM     35  C   UNL     1      -6.800  -8.735   3.839  0.00  0.00    +0.005 A 
ATOM     36  C   UNL     1      -7.397 -10.366   7.191  0.00  0.00    +0.044 C 
ENDBRANCH  29  30
ENDBRANCH   1  29
TORSDOF 9
