REMARK  Name = ZINC67179702
REMARK  9 active torsions:
REMARK  status: ('A' for Active; 'I' for Inactive)
REMARK    1  A    between atoms: C_1  and  C_2
REMARK    2  A    between atoms: C_6  and  C_8
REMARK    3  A    between atoms: N_13  and  C_14
REMARK    4  A    between atoms: C_14  and  C_15
REMARK    5  A    between atoms: N_17  and  C_18
REMARK    6  A    between atoms: C_18  and  C_19
REMARK    7  A    between atoms: C_19  and  N_25
REMARK    8  A    between atoms: N_25  and  C_26
REMARK    9  A    between atoms: N_25  and  C_27
REMARK                            x       y       z     vdW  Elec       q    Type
REMARK                         _______ _______ _______ _____ _____    ______ ____
ROOT
ATOM      1  C   UNL     1       1.933  -5.441   1.383  0.00  0.00    +0.233 C 
ATOM      2  O   UNL     1       2.683  -4.763   2.054  0.00  0.00    -0.274 OA
ATOM      3  N   UNL     1       2.433  -6.296   0.470  0.00  0.00    -0.315 N 
ATOM      4  H   UNL     1       1.834  -6.838  -0.067  0.00  0.00    +0.149 HD
ENDROOT
BRANCH   1   5
ATOM      5  C   UNL     1       0.442  -5.326   1.571  0.00  0.00    +0.221 C 
BRANCH   5  11
ATOM      6  C   UNL     1      -0.070  -2.991   2.443  0.00  0.00    +0.165 A 
ATOM      7  N   UNL     1      -0.290  -2.483   3.634  0.00  0.00    -0.128 NA
ATOM      8  N   UNL     1      -0.213  -3.406   4.525  0.00  0.00    -0.121 NA
ATOM      9  C   UNL     1       0.060  -4.560   3.958  0.00  0.00    +0.203 A 
ATOM     10  S   UNL     1       0.259  -6.106   4.778  0.00  0.00    -0.009 SA
ATOM     11  N   UNL     1       0.156  -4.337   2.614  0.00  0.00    -0.293 N 
BRANCH   6  17
ATOM     12  C   UNL     1      -1.393   1.000  -0.245  0.00  0.00    +0.044 C 
ATOM     13  C   UNL     1      -0.705  -0.337  -0.137  0.00  0.00    -0.050 A 
ATOM     14  C   UNL     1      -0.071  -0.878  -1.242  0.00  0.00    +0.003 A 
ATOM     15  C   UNL     1       0.562  -2.105  -1.151  0.00  0.00    +0.001 A 
ATOM     16  C   UNL     1       0.566  -2.796   0.043  0.00  0.00    +0.011 A 
ATOM     17  C   UNL     1      -0.070  -2.256   1.161  0.00  0.00    +0.020 A 
ATOM     18  C   UNL     1      -0.704  -1.015   1.064  0.00  0.00    +0.015 A 
ENDBRANCH   6  17
ENDBRANCH   5  11
ENDBRANCH   1   5
BRANCH   3  19
ATOM     19  C   UNL     1       3.883  -6.407   0.287  0.00  0.00    +0.092 C 
BRANCH  19  20
ATOM     20  C   UNL     1       4.178  -7.345  -0.885  0.00  0.00    -0.050 C 
ATOM     21  C   UNL     1       5.691  -7.531  -1.020  0.00  0.00    -0.010 C 
ATOM     22  C   UNL     1       6.351  -6.175  -1.273  0.00  0.00    -0.001 C 
ATOM     23  C   UNL     1       5.795  -5.570  -2.564  0.00  0.00    -0.000 C 
ATOM     24  C   UNL     1       4.282  -5.384  -2.429  0.00  0.00    -0.001 C 
ATOM     25  C   UNL     1       3.622  -6.740  -2.175  0.00  0.00    -0.010 C 
BRANCH  20  26
ATOM     26  N   UNL     1       3.545  -8.648  -0.641  0.00  0.00    +0.381 N 
ATOM     27  C   UNL     1       3.900  -9.575  -1.724  0.00  0.00    -0.096 C 
ATOM     28  C   UNL     1       4.014  -9.189   0.641  0.00  0.00    -0.096 C 
ATOM     29  H   UNL     1       2.542  -8.534  -0.612  0.00  0.00    -0.082 HD
ENDBRANCH  20  26
ENDBRANCH  19  20
ENDBRANCH   3  19
TORSDOF 6
