REMARK  Name = ZINC19605028
REMARK  8 active torsions:
REMARK  status: ('A' for Active; 'I' for Inactive)
REMARK    1  A    between atoms: C_1  and  C_2
REMARK    2  A    between atoms: C_5  and  N_8
REMARK    3  A    between atoms: C_12  and  S_13
REMARK    4  A    between atoms: S_13  and  C_14
REMARK    5  A    between atoms: C_14  and  C_16
REMARK    6  A    between atoms: C_14  and  C_17
REMARK    7  A    between atoms: N_19  and  C_20
REMARK    8  A    between atoms: C_26  and  C_28
REMARK                            x       y       z     vdW  Elec       q    Type
REMARK                         _______ _______ _______ _____ _____    ______ ____
ROOT
ATOM      1  N   UNL     1       8.571  -0.740   3.107  0.00  0.00    -0.259 N 
ATOM      2  C   UNL     1       8.691  -1.322   4.340  0.00  0.00    +0.225 A 
ATOM      3  N   UNL     1       7.546  -1.889   4.633  0.00  0.00    -0.112 NA
ATOM      4  N   UNL     1       6.664  -1.663   3.568  0.00  0.00    -0.120 NA
ATOM      5  C   UNL     1       7.301  -0.974   2.652  0.00  0.00    +0.198 A 
ATOM      6  N   UNL     1       9.826  -1.314   5.140  0.00  0.00    -0.299 N 
ATOM      7  C   UNL     1      10.191   0.071   5.532  0.00  0.00    +0.108 C 
ATOM      8  C   UNL     1      11.084  -0.138   6.781  0.00  0.00    +0.020 C 
ATOM      9  C   UNL     1      10.402  -1.326   7.498  0.00  0.00    +0.020 C 
ATOM     10  C   UNL     1       9.588  -2.042   6.405  0.00  0.00    +0.108 C 
ENDROOT
BRANCH   1  15
ATOM     11  C   UNL     1      12.626   2.131   0.362  0.00  0.00    +0.044 C 
ATOM     12  C   UNL     1      11.549   1.369   1.091  0.00  0.00    -0.050 A 
ATOM     13  C   UNL     1      10.403   2.021   1.506  0.00  0.00    +0.005 A 
ATOM     14  C   UNL     1       9.414   1.324   2.173  0.00  0.00    +0.026 A 
ATOM     15  C   UNL     1       9.573  -0.031   2.428  0.00  0.00    +0.052 A 
ATOM     16  C   UNL     1      10.728  -0.681   2.016  0.00  0.00    +0.026 A 
ATOM     17  C   UNL     1      11.711   0.019   1.344  0.00  0.00    +0.005 A 
ENDBRANCH   1  15
BRANCH   5  18
ATOM     18  S   UNL     1       6.636  -0.435   1.112  0.00  0.00    -0.073 S 
BRANCH  18  19
ATOM     19  C   UNL     1       4.934  -1.063   1.125  0.00  0.00    +0.137 C 
ATOM     20  C   UNL     1       4.955  -2.593   1.117  0.00  0.00    +0.029 C 
BRANCH  19  21
ATOM     21  C   UNL     1       4.205  -0.564  -0.096  0.00  0.00    +0.226 C 
ATOM     22  O   UNL     1       4.827  -0.261  -1.092  0.00  0.00    -0.275 OA
ATOM     23  N   UNL     1       2.862  -0.453  -0.081  0.00  0.00    -0.311 N 
ATOM     24  H   UNL     1       2.298  -0.728   0.823  0.00  0.00    +0.149 HD
BRANCH  23  25
ATOM     25  C   UNL     1       2.154   0.032  -1.268  0.00  0.00    +0.076 C 
ATOM     26  C   UNL     1       2.133   1.562  -1.259  0.00  0.00    +0.022 C 
ATOM     27  C   UNL     1       1.417   2.055  -0.000  0.00  0.00    +0.002 C 
ATOM     28  C   UNL     1      -0.019   1.526   0.010  0.00  0.00    +0.000 C 
ATOM     29  C   UNL     1       0.002  -0.004   0.002  0.00  0.00    +0.005 C 
ATOM     30  C   UNL     1       0.718  -0.497  -1.257  0.00  0.00    +0.006 C 
ATOM     31  C   UNL     1       0.739  -2.027  -1.265  0.00  0.00    +0.009 C 
ENDBRANCH  23  25
ENDBRANCH  19  21
ENDBRANCH  18  19
ENDBRANCH   5  18
TORSDOF 5
