REMARK  Name = ZINC39964368
REMARK  9 active torsions:
REMARK  status: ('A' for Active; 'I' for Inactive)
REMARK    1  A    between atoms: C_1  and  C_2
REMARK    2  A    between atoms: C_4  and  C_16
REMARK    3  A    between atoms: C_6  and  C_14
REMARK    4  A    between atoms: C_7  and  N_13
REMARK    5  A    between atoms: C_19  and  O_33
REMARK    6  A    between atoms: C_20  and  C_22
REMARK    7  A    between atoms: C_22  and  S_23
REMARK    8  A    between atoms: S_23  and  C_24
REMARK    9  A    between atoms: O_33  and  C_34
REMARK                            x       y       z     vdW  Elec       q    Type
REMARK                         _______ _______ _______ _____ _____    ______ ____
ROOT
ATOM      1  C   UNL     1      -3.212  -0.572  -1.199  0.00  0.00    -0.034 A 
ATOM      2  C   UNL     1      -3.176  -1.750  -1.923  0.00  0.00    +0.008 A 
ATOM      3  C   UNL     1      -3.795  -1.824  -3.155  0.00  0.00    +0.046 A 
ATOM      4  C   UNL     1      -4.454  -0.715  -3.667  0.00  0.00    +0.124 A 
ATOM      5  C   UNL     1      -4.490   0.465  -2.939  0.00  0.00    +0.005 A 
ATOM      6  C   UNL     1      -3.873   0.533  -1.704  0.00  0.00    +0.012 A 
ENDROOT
BRANCH   1  10
ATOM      7  C   UNL     1      -0.018   1.503   0.010  0.00  0.00    +0.067 C 
ATOM      8  C   UNL     1       0.002  -0.004   0.002  0.00  0.00    +0.066 C 
ATOM      9  C   UNL     1      -1.064  -0.768   0.003  0.00  0.00    +0.030 C 
ATOM     10  C   UNL     1      -2.536  -0.493   0.145  0.00  0.00    +0.098 C 
ATOM     11  C   UNL     1      -3.065  -1.577   1.066  0.00  0.00    +0.097 C 
ATOM     12  C   UNL     1      -2.303  -2.628   1.436  0.00  0.00    +0.195 C 
ATOM     13  O   UNL     1      -1.023  -2.853   1.091  0.00  0.00    -0.448 OA
ATOM     14  C   UNL     1      -0.529  -2.198  -0.081  0.00  0.00    +0.343 C 
ATOM     15  N   UNL     1       0.921  -1.985  -0.028  0.00  0.00    -0.138 NA
ATOM     16  N   UNL     1       1.127  -0.765  -0.013  0.00  0.00    -0.155 NA
BRANCH  12  17
ATOM     17  N   UNL     1      -2.896  -3.562   2.247  0.00  0.00    -0.329 N 
ATOM     18  H   UNL     1      -3.818  -3.448   2.526  0.00  0.00    +0.145 HD
ATOM     19  H   UNL     1      -2.393  -4.337   2.542  0.00  0.00    +0.145 HD
ENDBRANCH  12  17
BRANCH  11  20
ATOM     20  C   UNL     1      -4.407  -1.482   1.556  0.00  0.00    +0.101 C 
ATOM     21  N   UNL     1      -5.472  -1.407   1.944  0.00  0.00    -0.191 NA
ENDBRANCH  11  20
ENDBRANCH   1  10
BRANCH   4  22
ATOM     22  O   UNL     1      -5.064  -0.786  -4.880  0.00  0.00    -0.495 OA
ATOM     23  C   UNL     1      -4.987  -2.033  -5.573  0.00  0.00    +0.277 C 
ENDBRANCH   4  22
BRANCH   5  24
ATOM     24  C   UNL     1      -5.205   1.671  -3.492  0.00  0.00    +0.115 C 
BRANCH  24  25
ATOM     25  S   UNL     1      -6.938   1.645  -2.957  0.00  0.00    -0.094 S 
BRANCH  25  26
ATOM     26  C   UNL     1      -7.628   3.098  -3.675  0.00  0.00    +0.136 A 
ATOM     27  N   UNL     1      -7.044   4.001  -4.431  0.00  0.00    -0.233 NA
ATOM     28  C   UNL     1      -7.703   5.076  -4.917  0.00  0.00    +0.079 A 
ATOM     29  C   UNL     1      -7.198   6.113  -5.734  0.00  0.00    +0.029 A 
ATOM     30  C   UNL     1      -8.008   7.140  -6.143  0.00  0.00    +0.002 A 
ATOM     31  C   UNL     1      -9.344   7.201  -5.773  0.00  0.00    +0.001 A 
ATOM     32  C   UNL     1      -9.871   6.203  -4.973  0.00  0.00    +0.017 A 
ATOM     33  C   UNL     1      -9.067   5.170  -4.560  0.00  0.00    +0.040 A 
ATOM     34  S   UNL     1      -9.301   3.716  -3.567  0.00  0.00    -0.061 S 
ENDBRANCH  25  26
ENDBRANCH  24  25
ENDBRANCH   5  24
TORSDOF 7
