REMARK  Name = ZINC05581811
REMARK  10 active torsions:
REMARK  status: ('A' for Active; 'I' for Inactive)
REMARK    1  A    between atoms: C_1  and  C_2
REMARK    2  A    between atoms: C_2  and  C_3
REMARK    3  A    between atoms: C_3  and  C_4
REMARK    4  A    between atoms: C_7  and  S_10
REMARK    5  A    between atoms: N_8  and  N_9
REMARK    6  A    between atoms: S_10  and  C_11
REMARK    7  A    between atoms: C_11  and  C_13
REMARK    8  A    between atoms: C_11  and  C_14
REMARK    9  A    between atoms: N_16  and  C_17
REMARK   10  A    between atoms: C_22  and  C_23
REMARK                            x       y       z     vdW  Elec       q    Type
REMARK                         _______ _______ _______ _____ _____    ______ ____
ROOT
ATOM      1  C   UNL     1       4.960  -2.724   0.154  0.00  0.00    +0.137 C 
ATOM      2  C   UNL     1       5.577  -2.849  -1.240  0.00  0.00    +0.029 C 
ENDROOT
BRANCH   1   3
ATOM      3  C   UNL     1       3.643  -1.997   0.057  0.00  0.00    +0.230 C 
ATOM      4  O   UNL     1       2.604  -2.621   0.064  0.00  0.00    -0.274 OA
ATOM      5  N   UNL     1       3.622  -0.652  -0.036  0.00  0.00    -0.284 N 
ATOM      6  H   UNL     1       4.453  -0.158  -0.108  0.00  0.00    +0.155 HD
BRANCH   5   7
ATOM      7  C   UNL     1       2.400   0.029  -0.031  0.00  0.00    +0.038 A 
ATOM      8  C   UNL     1       1.283  -0.540  -0.629  0.00  0.00    +0.023 A 
ATOM      9  C   UNL     1       0.078   0.135  -0.623  0.00  0.00    +0.003 A 
ATOM     10  C   UNL     1      -0.018   1.377  -0.023  0.00  0.00    +0.020 A 
ATOM     11  C   UNL     1       1.093   1.947   0.574  0.00  0.00    +0.046 A 
ATOM     12  C   UNL     1       2.301   1.276   0.571  0.00  0.00    -0.011 A 
ATOM     13  C   UNL     1       3.511   1.897   1.222  0.00  0.00    +0.047 C 
ATOM     14 CL   UNL     1       0.968   3.507   1.327  0.00  0.00    -0.083 Cl
ENDBRANCH   5   7
ENDBRANCH   1   3
BRANCH   1  15
ATOM     15  S   UNL     1       4.688  -4.375   0.844  0.00  0.00    -0.072 S 
BRANCH  15  19
ATOM     16  C   UNL     1       8.138  -6.114   1.380  0.00  0.00    +0.151 A 
ATOM     17  N   UNL     1       8.480  -4.957   0.889  0.00  0.00    -0.132 NA
ATOM     18  N   UNL     1       7.432  -4.251   0.654  0.00  0.00    -0.121 NA
ATOM     19  C   UNL     1       6.356  -4.926   0.985  0.00  0.00    +0.209 A 
ATOM     20  N   UNL     1       6.774  -6.134   1.464  0.00  0.00    -0.228 N 
BRANCH  20  21
ATOM     21  N   UNL     1       5.991  -7.153   1.929  0.00  0.00    -0.295 N 
ATOM     22  H   UNL     1       5.738  -7.784   1.183  0.00  0.00    +0.163 HD
ATOM     23  H   UNL     1       6.448  -7.647   2.680  0.00  0.00    +0.163 HD
ENDBRANCH  20  21
BRANCH  16  24
ATOM     24  C   UNL     1       9.075  -7.223   1.786  0.00  0.00    +0.078 C 
BRANCH  24  26
ATOM     25  C   UNL     1      10.411  -8.178   3.669  0.00  0.00    +0.004 C 
ATOM     26  C   UNL     1       9.460  -7.052   3.257  0.00  0.00    +0.004 C 
ENDBRANCH  24  26
ENDBRANCH  16  24
ENDBRANCH  15  19
ENDBRANCH   1  15
TORSDOF 7
