REMARK  Name = ZINC39595867
REMARK  8 active torsions:
REMARK  status: ('A' for Active; 'I' for Inactive)
REMARK    1  A    between atoms: C_1  and  C_2
REMARK    2  A    between atoms: C_2  and  C_4
REMARK    3  A    between atoms: C_2  and  O_11
REMARK    4  A    between atoms: N_9  and  C_10
REMARK    5  A    between atoms: O_11  and  C_12
REMARK    6  A    between atoms: C_12  and  C_14
REMARK    7  A    between atoms: C_18  and  S_20
REMARK    8  A    between atoms: S_20  and  N_23
REMARK                            x       y       z     vdW  Elec       q    Type
REMARK                         _______ _______ _______ _____ _____    ______ ____
ROOT
ATOM      1  C   UNL     1       2.760  -1.126  -2.262  0.00  0.00    +0.061 A 
ATOM      2  C   UNL     1       2.100  -1.378  -3.467  0.00  0.00    +0.015 A 
ATOM      3  C   UNL     1       2.814  -1.821  -4.561  0.00  0.00    +0.003 A 
ATOM      4  C   UNL     1       4.181  -2.017  -4.466  0.00  0.00    +0.029 A 
ATOM      5  C   UNL     1       4.840  -1.770  -3.276  0.00  0.00    +0.109 A 
ATOM      6  C   UNL     1       4.140  -1.320  -2.176  0.00  0.00    +0.043 A 
ENDROOT
BRANCH   5   7
ATOM      7  S   UNL     1       6.581  -2.024  -3.166  0.00  0.00    +0.075 S 
ATOM      8  O   UNL     1       6.873  -2.244  -1.793  0.00  0.00    -0.150 OA
ATOM      9  O   UNL     1       6.919  -2.963  -4.177  0.00  0.00    -0.150 OA
BRANCH   7  10
ATOM     10  N   UNL     1       7.311  -0.597  -3.582  0.00  0.00    -0.202 N 
ATOM     11  C   UNL     1       7.697  -0.218  -4.944  0.00  0.00    +0.136 C 
ATOM     12  C   UNL     1       8.328   1.178  -4.810  0.00  0.00    +0.058 C 
ATOM     13  C   UNL     1       8.247   1.491  -3.333  0.00  0.00    -0.023 A 
ATOM     14  C   UNL     1       7.642   0.422  -2.688  0.00  0.00    +0.054 A 
ATOM     15  C   UNL     1       7.451   0.484  -1.307  0.00  0.00    +0.025 A 
ATOM     16  C   UNL     1       7.854   1.596  -0.598  0.00  0.00    +0.002 A 
ATOM     17  C   UNL     1       8.453   2.658  -1.251  0.00  0.00    +0.000 A 
ATOM     18  C   UNL     1       8.654   2.600  -2.618  0.00  0.00    +0.005 A 
ENDBRANCH   7  10
ENDBRANCH   5   7
BRANCH   1  19
ATOM     19  C   UNL     1       2.002  -0.651  -1.087  0.00  0.00    +0.340 C 
ATOM     20  O   UNL     1       2.580  -0.429  -0.041  0.00  0.00    -0.245 OA
BRANCH  19  21
ATOM     21  O   UNL     1       0.671  -0.465  -1.174  0.00  0.00    -0.449 OA
BRANCH  21  23
ATOM     22  C   UNL     1      -0.019   1.526   0.010  0.00  0.00    +0.062 C 
ATOM     23  C   UNL     1       0.002  -0.004   0.002  0.00  0.00    +0.259 C 
BRANCH  23  24
ATOM     24  C   UNL     1      -1.412  -0.526   0.013  0.00  0.00    +0.261 C 
ATOM     25  O   UNL     1      -1.836  -1.147  -0.938  0.00  0.00    -0.271 OA
ATOM     26  N   UNL     1      -2.204  -0.302   1.079  0.00  0.00    -0.237 N 
ATOM     27  C   UNL     1      -3.469  -0.768   1.089  0.00  0.00    +0.306 C 
ATOM     28  O   UNL     1      -3.894  -1.391   0.136  0.00  0.00    -0.252 OA
ATOM     29  N   UNL     1      -4.262  -0.544   2.156  0.00  0.00    -0.302 N 
ATOM     30  C   UNL     1      -5.636  -1.052   2.166  0.00  0.00    +0.129 C 
ATOM     31  H   UNL     1      -1.865   0.195   1.840  0.00  0.00    +0.159 HD
ATOM     32  H   UNL     1      -3.922  -0.048   2.916  0.00  0.00    +0.150 HD
ENDBRANCH  23  24
ENDBRANCH  21  23
ENDBRANCH  19  21
ENDBRANCH   1  19
TORSDOF 6
