REMARK  Name = ZINC40824661
REMARK  7 active torsions:
REMARK  status: ('A' for Active; 'I' for Inactive)
REMARK    1  A    between atoms: C_1  and  C_2
REMARK    2  A    between atoms: C_6  and  C_7
REMARK    3  A    between atoms: C_7  and  O_9
REMARK    4  A    between atoms: O_9  and  C_10
REMARK    5  A    between atoms: N_25  and  N_26
REMARK    6  A    between atoms: N_26  and  C_27
REMARK    7  A    between atoms: C_27  and  N_29
REMARK                            x       y       z     vdW  Elec       q    Type
REMARK                         _______ _______ _______ _____ _____    ______ ____
ROOT
ATOM      1  C   UNL     1      -0.303   1.509   0.033  0.00  0.00    +0.048 C 
ATOM      2  C   UNL     1      -0.175   0.007   0.013  0.00  0.00    +0.011 A 
ATOM      3  C   UNL     1      -0.135  -0.818  -1.116  0.00  0.00    +0.042 A 
ATOM      4  C   UNL     1      -0.013  -2.115  -0.676  0.00  0.00    +0.115 A 
ATOM      5  O   UNL     1       0.025  -2.097   0.654  0.00  0.00    -0.452 OA
ATOM      6  C   UNL     1      -0.068  -0.822   1.097  0.00  0.00    +0.215 A 
ATOM      7  C   UNL     1       0.056  -3.295  -1.612  0.00  0.00    +0.075 C 
ATOM      8  C   UNL     1      -0.530  -2.903  -2.970  0.00  0.00    +0.014 C 
ATOM      9  C   UNL     1       0.139  -1.630  -3.500  0.00  0.00    +0.058 C 
ATOM     10  C   UNL     1      -0.201  -0.485  -2.557  0.00  0.00    +0.070 C 
ATOM     11  N   UNL     1      -0.524   0.696  -2.985  0.00  0.00    -0.185 NA
ENDROOT
BRANCH   6  12
ATOM     12  C   UNL     1      -0.057  -0.400   2.500  0.00  0.00    +0.380 C 
ATOM     13  O   UNL     1      -0.149   0.780   2.781  0.00  0.00    -0.241 OA
BRANCH  12  14
ATOM     14  O   UNL     1       0.054  -1.320   3.480  0.00  0.00    -0.418 OA
BRANCH  14  15
ATOM     15  C   UNL     1       0.165  -0.878   4.760  0.00  0.00    +0.158 A 
ATOM     16  C   UNL     1       1.407  -0.712   5.330  0.00  0.00    +0.050 A 
ATOM     17  C   UNL     1       1.536  -0.261   6.641  0.00  0.00    +0.019 A 
ATOM     18  C   UNL     1       0.437   0.029   7.393  0.00  0.00    +0.027 A 
ATOM     19  C   UNL     1      -0.847  -0.127   6.845  0.00  0.00    +0.018 A 
ATOM     20  C   UNL     1      -0.991  -0.581   5.511  0.00  0.00    +0.114 A 
ATOM     21  N   UNL     1      -2.211  -0.726   4.985  0.00  0.00    -0.251 NA
ATOM     22  C   UNL     1      -3.289  -0.451   5.678  0.00  0.00    +0.111 A 
ATOM     23  C   UNL     1      -3.218   0.005   6.993  0.00  0.00    +0.020 A 
ATOM     24  C   UNL     1      -2.002   0.163   7.595  0.00  0.00    +0.013 A 
ATOM     25 BR   UNL     1       0.641   0.640   9.171  0.00  0.00    -0.050 Br
ENDBRANCH  14  15
ENDBRANCH  12  14
ENDBRANCH   6  12
BRANCH  11  26
ATOM     26  N   UNL     1      -0.571   0.955  -4.361  0.00  0.00    -0.218 N 
ATOM     27  H   UNL     1      -0.360   0.251  -4.994  0.00  0.00    +0.176 HD
BRANCH  26  28
ATOM     28  C   UNL     1      -0.907   2.182  -4.805  0.00  0.00    +0.147 C 
ATOM     29  S   UNL     1      -0.963   2.498  -6.486  0.00  0.00    -0.017 S 
BRANCH  28  30
ATOM     30  N   UNL     1      -1.198   3.160  -3.925  0.00  0.00    -0.339 N 
ATOM     31  H   UNL     1      -1.167   2.981  -2.972  0.00  0.00    +0.144 HD
ATOM     32  H   UNL     1      -1.440   4.044  -4.245  0.00  0.00    +0.144 HD
ENDBRANCH  28  30
ENDBRANCH  26  28
ENDBRANCH  11  26
TORSDOF 6
