REMARK  Name = ZINC65101027
REMARK  7 active torsions:
REMARK  status: ('A' for Active; 'I' for Inactive)
REMARK    1  A    between atoms: C_1  and  C_2
REMARK    2  A    between atoms: C_2  and  C_3
REMARK    3  A    between atoms: C_6  and  N_9
REMARK    4  A    between atoms: C_10  and  C_12
REMARK    5  A    between atoms: C_12  and  N_13
REMARK    6  A    between atoms: C_26  and  C_29
REMARK    7  A    between atoms: N_31  and  C_32
REMARK                            x       y       z     vdW  Elec       q    Type
REMARK                         _______ _______ _______ _____ _____    ______ ____
ROOT
ATOM      1  N   UNL     1       1.900  -2.519   8.133  0.00  0.00    -0.289 N 
ATOM      2  C   UNL     1       1.638  -1.431   8.902  0.00  0.00    +0.204 A 
ATOM      3  N   UNL     1       0.821  -1.454   9.909  0.00  0.00    -0.217 NA
ATOM      4  C   UNL     1       0.157  -2.588  10.270  0.00  0.00    +0.176 A 
ATOM      5  C   UNL     1       0.410  -3.731   9.490  0.00  0.00    +0.124 A 
ATOM      6  C   UNL     1       1.283  -3.695   8.412  0.00  0.00    +0.270 A 
ATOM      7  O   UNL     1       1.493  -4.690   7.738  0.00  0.00    -0.266 OA
ATOM      8  S   UNL     1      -0.616  -4.949  10.268  0.00  0.00    -0.045 S 
ATOM      9  C   UNL     1      -1.264  -3.968  11.473  0.00  0.00    +0.164 A 
ATOM     10  N   UNL     1      -0.709  -2.794  11.262  0.00  0.00    -0.205 NA
ATOM     11  N   UNL     1      -2.168  -4.314  12.454  0.00  0.00    -0.309 N 
ATOM     12  C   UNL     1      -2.683  -5.687  12.546  0.00  0.00    +0.108 C 
ATOM     13  C   UNL     1      -4.215  -5.639  12.546  0.00  0.00    +0.032 C 
ATOM     14  C   UNL     1      -4.692  -4.713  13.666  0.00  0.00    +0.078 C 
ATOM     15  C   UNL     1      -4.165  -3.297  13.419  0.00  0.00    +0.032 C 
ATOM     16  C   UNL     1      -2.629  -3.320  13.432  0.00  0.00    +0.108 C 
ENDROOT
BRANCH  14  17
ATOM     17  C   UNL     1      -6.199  -4.690  13.691  0.00  0.00    +0.216 C 
ATOM     18  O   UNL     1      -6.829  -5.349  12.892  0.00  0.00    -0.276 OA
ATOM     19  N   UNL     1      -6.846  -3.936  14.602  0.00  0.00    -0.318 N 
ATOM     20  C   UNL     1      -8.311  -3.914  14.626  0.00  0.00    +0.128 C 
ATOM     21  H   UNL     1      -6.342  -3.409  15.241  0.00  0.00    +0.148 HD
ENDBRANCH  14  17
BRANCH   1  22
ATOM     22  C   UNL     1       2.836  -2.423   7.010  0.00  0.00    +0.222 C 
BRANCH  22  24
ATOM     23  N   UNL     1       2.746  -1.883   4.598  0.00  0.00    -0.284 N 
ATOM     24  C   UNL     1       2.085  -2.032   5.763  0.00  0.00    +0.237 C 
ATOM     25  O   UNL     1       0.887  -1.852   5.809  0.00  0.00    -0.274 OA
ATOM     26  H   UNL     1       3.689  -2.102   4.544  0.00  0.00    +0.155 HD
BRANCH  23  30
ATOM     27  C   UNL     1       0.736  -0.485   1.228  0.00  0.00    -0.048 A 
ATOM     28  C   UNL     1       0.375  -0.033   2.483  0.00  0.00    +0.005 A 
ATOM     29  C   UNL     1       1.039  -0.494   3.603  0.00  0.00    +0.023 A 
ATOM     30  C   UNL     1       2.071  -1.414   3.466  0.00  0.00    +0.033 A 
ATOM     31  C   UNL     1       2.431  -1.866   2.204  0.00  0.00    +0.023 A 
ATOM     32  C   UNL     1       1.759  -1.404   1.089  0.00  0.00    +0.005 A 
BRANCH  27  34
ATOM     33  C   UNL     1      -1.189  -0.885  -0.284  0.00  0.00    +0.009 C 
ATOM     34  C   UNL     1       0.009   0.021   0.008  0.00  0.00    +0.032 C 
ENDBRANCH  27  34
ENDBRANCH  23  30
ENDBRANCH  22  24
ENDBRANCH   1  22
TORSDOF 5
