REMARK  Name = ZINC64926710
REMARK  9 active torsions:
REMARK  status: ('A' for Active; 'I' for Inactive)
REMARK    1  A    between atoms: C_1  and  C_2
REMARK    2  A    between atoms: C_2  and  N_3
REMARK    3  A    between atoms: C_18  and  C_21
REMARK    4  A    between atoms: N_23  and  C_24
REMARK    5  A    between atoms: C_24  and  C_25
REMARK    6  A    between atoms: C_25  and  C_26
REMARK    7  A    between atoms: C_26  and  N_27
REMARK    8  A    between atoms: N_27  and  C_28
REMARK    9  A    between atoms: N_27  and  C_29
REMARK                            x       y       z     vdW  Elec       q    Type
REMARK                         _______ _______ _______ _____ _____    ______ ____
ROOT
ATOM      1  N   UNL     1       0.729  -0.223  -1.311  0.00  0.00    -0.304 N 
ATOM      2  C   UNL     1      -0.020  -0.700  -2.372  0.00  0.00    +0.070 A 
ATOM      3  C   UNL     1      -1.395  -0.496  -2.405  0.00  0.00    +0.028 A 
ATOM      4  C   UNL     1      -2.135  -0.974  -3.466  0.00  0.00    +0.002 A 
ATOM      5  C   UNL     1      -1.516  -1.659  -4.502  0.00  0.00    +0.002 A 
ATOM      6  C   UNL     1      -0.168  -1.871  -4.489  0.00  0.00    +0.030 A 
ATOM      7  C   UNL     1       0.606  -1.394  -3.421  0.00  0.00    +0.090 A 
ATOM      8  N   UNL     1       1.940  -1.603  -3.409  0.00  0.00    -0.225 NA
ATOM      9  C   UNL     1       2.681  -1.167  -2.424  0.00  0.00    +0.188 A 
ATOM     10  C   UNL     1       2.064  -0.430  -1.305  0.00  0.00    +0.292 A 
ATOM     11  O   UNL     1       2.748  -0.017  -0.387  0.00  0.00    -0.264 OA
ATOM     12  N   UNL     1       4.046  -1.394  -2.433  0.00  0.00    -0.310 N 
ATOM     13  C   UNL     1       4.867  -1.069  -1.258  0.00  0.00    +0.107 C 
ATOM     14  C   UNL     1       5.668  -2.311  -0.858  0.00  0.00    +0.020 C 
ATOM     15  C   UNL     1       6.467  -2.809  -2.064  0.00  0.00    +0.016 C 
ATOM     16  C   UNL     1       5.505  -3.197  -3.190  0.00  0.00    +0.092 C 
ATOM     17  C   UNL     1       4.701  -1.970  -3.615  0.00  0.00    +0.119 C 
ENDROOT
BRANCH  16  18
ATOM     18  C   UNL     1       6.291  -3.719  -4.365  0.00  0.00    +0.218 C 
ATOM     19  O   UNL     1       6.215  -3.162  -5.441  0.00  0.00    -0.275 OA
ATOM     20  N   UNL     1       7.079  -4.803  -4.222  0.00  0.00    -0.315 N 
ATOM     21  H   UNL     1       7.139  -5.248  -3.362  0.00  0.00    +0.149 HD
BRANCH  20  22
ATOM     22  C   UNL     1       7.842  -5.310  -5.365  0.00  0.00    +0.102 C 
BRANCH  22  23
ATOM     23  C   UNL     1       8.647  -6.538  -4.936  0.00  0.00    +0.000 C 
BRANCH  23  24
ATOM     24  C   UNL     1       9.445  -7.067  -6.129  0.00  0.00    -0.077 C 
BRANCH  24  25
ATOM     25  N   UNL     1      10.218  -8.247  -5.718  0.00  0.00    +0.380 N 
ATOM     26  C   UNL     1      11.223  -7.851  -4.723  0.00  0.00    -0.096 C 
ATOM     27  H   UNL     1       9.596  -8.932  -5.313  0.00  0.00    -0.082 HD
BRANCH  25  28
ATOM     28  C   UNL     1      10.889  -8.826  -6.889  0.00  0.00    -0.069 C 
ATOM     29  C   UNL     1       9.841  -9.239  -7.925  0.00  0.00    -0.015 C 
ATOM     30  C   UNL     1      10.541  -9.842  -9.145  0.00  0.00    -0.002 C 
ATOM     31  C   UNL     1      11.345 -11.070  -8.716  0.00  0.00    -0.000 C 
ATOM     32  C   UNL     1      12.393 -10.658  -7.680  0.00  0.00    -0.002 C 
ATOM     33  C   UNL     1      11.694 -10.055  -6.460  0.00  0.00    -0.015 C 
ENDBRANCH  25  28
ENDBRANCH  24  25
ENDBRANCH  23  24
ENDBRANCH  22  23
ENDBRANCH  20  22
ENDBRANCH  16  18
BRANCH   1  35
ATOM     34  C   UNL     1       0.056   1.996  -0.536  0.00  0.00    +0.027 C 
ATOM     35  C   UNL     1       0.085   0.501  -0.213  0.00  0.00    +0.122 C 
ENDBRANCH   1  35
TORSDOF 7
