REMARK  Name = ZINC16608749
REMARK  7 active torsions:
REMARK  status: ('A' for Active; 'I' for Inactive)
REMARK    1  A    between atoms: C_1  and  C_2
REMARK    2  A    between atoms: C_6  and  N_28
REMARK    3  A    between atoms: C_10  and  N_19
REMARK    4  A    between atoms: C_20  and  C_21
REMARK    5  A    between atoms: C_26  and  O_27
REMARK    6  A    between atoms: C_29  and  C_30
REMARK    7  A    between atoms: C_35  and  O_36
REMARK                            x       y       z     vdW  Elec       q    Type
REMARK                         _______ _______ _______ _____ _____    ______ ____
ROOT
ATOM      1  C   UNL     1       7.394   1.240  -2.494  0.00  0.00    +0.007 C 
ATOM      2  C   UNL     1       6.078   2.019  -2.524  0.00  0.00    -0.013 C 
ATOM      3  C   UNL     1       4.904   1.037  -2.542  0.00  0.00    +0.009 C 
ATOM      4  C   UNL     1       4.963   0.160  -1.291  0.00  0.00    +0.074 C 
ATOM      5  C   UNL     1       4.867   1.035  -0.039  0.00  0.00    +0.207 C 
ATOM      6  C   UNL     1       6.023   2.043  -0.029  0.00  0.00    +0.085 C 
ATOM      7  C   UNL     1       5.978   2.903  -1.281  0.00  0.00    +0.015 C 
ATOM      8  C   UNL     1       5.855   2.955   1.192  0.00  0.00    +0.147 C 
ATOM      9  C   UNL     1       5.585   2.126   2.420  0.00  0.00    +0.019 A 
ATOM     10  C   UNL     1       5.767   2.702   3.667  0.00  0.00    +0.009 A 
ATOM     11  C   UNL     1       5.524   1.971   4.814  0.00  0.00    +0.001 A 
ATOM     12  C   UNL     1       5.098   0.659   4.721  0.00  0.00    +0.004 A 
ATOM     13  C   UNL     1       4.917   0.080   3.481  0.00  0.00    +0.046 A 
ATOM     14  C   UNL     1       5.163   0.812   2.324  0.00  0.00    +0.129 A 
ATOM     15  O   UNL     1       4.975   0.198   1.116  0.00  0.00    -0.464 OA
ENDROOT
BRANCH   8  16
ATOM     16  N   UNL     1       7.081   3.733   1.389  0.00  0.00    -0.282 NA
ATOM     17  C   UNL     1       7.040   5.026   1.351  0.00  0.00    +0.117 C 
BRANCH  17  18
ATOM     18  C   UNL     1       8.273   5.809   1.550  0.00  0.00    +0.034 A 
ATOM     19  C   UNL     1       8.233   7.205   1.510  0.00  0.00    +0.013 A 
ATOM     20  C   UNL     1       9.389   7.931   1.696  0.00  0.00    +0.001 A 
ATOM     21  C   UNL     1      10.592   7.283   1.924  0.00  0.00    +0.004 A 
ATOM     22  C   UNL     1      10.645   5.904   1.966  0.00  0.00    +0.046 A 
ATOM     23  C   UNL     1       9.491   5.157   1.787  0.00  0.00    +0.125 A 
BRANCH  23  24
ATOM     24  O   UNL     1       9.541   3.802   1.834  0.00  0.00    -0.506 OA
ATOM     25  H   UNL     1       9.711   3.385   0.979  0.00  0.00    +0.292 HD
ENDBRANCH  23  24
ENDBRANCH  17  18
ENDBRANCH   8  16
BRANCH   5  26
ATOM     26  N   UNL     1       3.586   1.745  -0.023  0.00  0.00    -0.246 NA
ATOM     27  C   UNL     1       2.476   1.078  -0.016  0.00  0.00    +0.120 C 
BRANCH  27  28
ATOM     28  C   UNL     1       1.187   1.792   0.000  0.00  0.00    +0.034 A 
ATOM     29  C   UNL     1      -0.013   1.076   0.008  0.00  0.00    +0.013 A 
ATOM     30  C   UNL     1      -1.215   1.750   0.017  0.00  0.00    +0.001 A 
ATOM     31  C   UNL     1      -1.240   3.135   0.029  0.00  0.00    +0.004 A 
ATOM     32  C   UNL     1      -0.061   3.854   0.022  0.00  0.00    +0.046 A 
ATOM     33  C   UNL     1       1.157   3.193   0.008  0.00  0.00    +0.125 A 
BRANCH  33  34
ATOM     34  O   UNL     1       2.316   3.899  -0.000  0.00  0.00    -0.506 OA
ATOM     35  H   UNL     1       2.644   4.109  -0.886  0.00  0.00    +0.292 HD
ENDBRANCH  33  34
ENDBRANCH  27  28
ENDBRANCH   5  26
TORSDOF 6
