REMARK  Name = ZINC19721783
REMARK  7 active torsions:
REMARK  status: ('A' for Active; 'I' for Inactive)
REMARK    1  A    between atoms: C_1  and  N_2
REMARK    2  A    between atoms: C_3  and  N_24
REMARK    3  A    between atoms: C_4  and  C_15
REMARK    4  A    between atoms: C_5  and  C_7
REMARK    5  A    between atoms: C_7  and  C_8
REMARK    6  A    between atoms: C_8  and  C_9
REMARK    7  A    between atoms: C_18  and  N_21
REMARK                            x       y       z     vdW  Elec       q    Type
REMARK                         _______ _______ _______ _____ _____    ______ ____
ROOT
ATOM      1  C   UNL     1       7.560  -4.622  -1.545  0.00  0.00    +0.174 C 
ATOM      2  N   UNL     1       6.975  -3.279  -1.530  0.00  0.00    -0.253 N 
ATOM      3  C   UNL     1       7.663  -2.116  -1.531  0.00  0.00    +0.122 A 
ATOM      4  C   UNL     1       6.734  -1.090  -1.520  0.00  0.00    +0.044 A 
ATOM      5  C   UNL     1       5.457  -1.683  -1.505  0.00  0.00    +0.073 A 
ATOM      6  N   UNL     1       5.608  -2.981  -1.514  0.00  0.00    -0.174 NA
ENDROOT
BRANCH   4   7
ATOM      7  C   UNL     1       7.029   0.363  -1.522  0.00  0.00    -0.013 A 
ATOM      8  C   UNL     1       6.660   1.150  -2.612  0.00  0.00    +0.011 A 
ATOM      9  C   UNL     1       6.932   2.503  -2.606  0.00  0.00    +0.033 A 
ATOM     10  C   UNL     1       7.579   3.077  -1.526  0.00  0.00    +0.126 A 
ATOM     11  C   UNL     1       7.952   2.299  -0.445  0.00  0.00    +0.033 A 
ATOM     12  C   UNL     1       7.681   0.946  -0.437  0.00  0.00    +0.011 A 
BRANCH  10  13
ATOM     13  N   UNL     1       7.873   4.527  -1.528  0.00  0.00    +0.056 N 
ATOM     14  O   UNL     1       8.444   5.035  -0.579  0.00  0.00    -0.126 OA
ATOM     15  O   UNL     1       7.546   5.214  -2.480  0.00  0.00    -0.126 OA
ENDBRANCH  10  13
ENDBRANCH   4   7
BRANCH   3  16
ATOM     16  N   UNL     1       9.044  -1.976  -1.544  0.00  0.00    -0.343 N 
ATOM     17  H   UNL     1       9.495  -0.973  -1.543  0.00  0.00    +0.144 HD
ATOM     18  H   UNL     1       9.687  -2.869  -1.556  0.00  0.00    +0.144 HD
ENDBRANCH   3  16
BRANCH   5  19
ATOM     19  C   UNL     1       4.142  -0.948  -1.488  0.00  0.00    +0.062 C 
BRANCH  19  20
ATOM     20  C   UNL     1       3.711  -0.707  -0.039  0.00  0.00    +0.041 C 
BRANCH  20  21
ATOM     21  C   UNL     1       2.396   0.029  -0.022  0.00  0.00    -0.047 A 
ATOM     22  C   UNL     1       1.208  -0.679  -0.014  0.00  0.00    +0.003 A 
ATOM     23  C   UNL     1       0.002  -0.004   0.002  0.00  0.00    +0.000 A 
ATOM     24  C   UNL     1      -0.017   1.378   0.010  0.00  0.00    +0.000 A 
ATOM     25  C   UNL     1       1.171   2.086   0.002  0.00  0.00    +0.000 A 
ATOM     26  C   UNL     1       2.377   1.411  -0.014  0.00  0.00    +0.003 A 
ENDBRANCH  20  21
ENDBRANCH  19  20
ENDBRANCH   5  19
TORSDOF 6
