REMARK  Name = ZINC40410064
REMARK  6 active torsions:
REMARK  status: ('A' for Active; 'I' for Inactive)
REMARK    1  A    between atoms: C_1  and  C_2
REMARK    2  A    between atoms: C_2  and  O_3
REMARK    3  A    between atoms: O_3  and  C_4
REMARK    4  A    between atoms: C_7  and  C_10
REMARK    5  A    between atoms: C_10  and  N_11
REMARK    6  A    between atoms: C_20  and  C_22
REMARK                            x       y       z     vdW  Elec       q    Type
REMARK                         _______ _______ _______ _____ _____    ______ ____
ROOT
ATOM      1  N   UNL     1       2.388  -6.566   0.891  0.00  0.00    +0.391 N 
ATOM      2  C   UNL     1       3.492  -5.801   1.475  0.00  0.00    -0.075 C 
ATOM      3  C   UNL     1       4.836  -6.287   0.946  0.00  0.00    +0.003 C 
ATOM      4  C   UNL     1       4.685  -6.745  -0.508  0.00  0.00    +0.119 C 
ATOM      5  N   UNL     1       4.302  -8.161  -0.524  0.00  0.00    -0.352 N 
ATOM      6  C   UNL     1       4.843  -9.136  -1.306  0.00  0.00    +0.086 A 
ATOM      7  C   UNL     1       4.207 -10.295  -1.036  0.00  0.00    +0.019 A 
ATOM      8  C   UNL     1       3.240 -10.025  -0.047  0.00  0.00    +0.021 A 
ATOM      9  C   UNL     1       3.325  -8.714   0.253  0.00  0.00    +0.010 A 
ATOM     10  C   UNL     1       2.495  -7.979   1.278  0.00  0.00    +0.013 C 
ATOM     11  H   UNL     1       2.425  -6.490  -0.114  0.00  0.00    -0.080 HD
ENDROOT
BRANCH  10  12
ATOM     12  C   UNL     1       1.119  -8.589   1.342  0.00  0.00    -0.020 A 
ATOM     13  C   UNL     1       0.283  -8.527   0.243  0.00  0.00    +0.005 A 
ATOM     14  C   UNL     1      -0.980  -9.087   0.302  0.00  0.00    +0.000 A 
ATOM     15  C   UNL     1      -1.408  -9.709   1.460  0.00  0.00    +0.003 A 
ATOM     16  C   UNL     1      -0.575  -9.772   2.560  0.00  0.00    +0.038 A 
ATOM     17  C   UNL     1       0.693  -9.217   2.500  0.00  0.00    +0.125 A 
ATOM     18  F   UNL     1       1.510  -9.282   3.574  0.00  0.00    -0.205 F 
ENDBRANCH  10  12
BRANCH   1  19
ATOM     19  C   UNL     1       1.111  -6.024   1.375  0.00  0.00    -0.042 C 
BRANCH  19  23
ATOM     20  C   UNL     1       0.680  -1.987   0.042  0.00  0.00    +0.121 A 
ATOM     21  C   UNL     1       0.208  -3.031  -0.740  0.00  0.00    +0.046 A 
ATOM     22  C   UNL     1       0.348  -4.335  -0.307  0.00  0.00    +0.005 A 
ATOM     23  C   UNL     1       0.959  -4.600   0.905  0.00  0.00    -0.064 A 
ATOM     24  C   UNL     1       1.430  -3.562   1.686  0.00  0.00    +0.005 A 
ATOM     25  C   UNL     1       1.298  -2.256   1.255  0.00  0.00    +0.046 A 
BRANCH  20  26
ATOM     26  O   UNL     1       0.543  -0.703  -0.382  0.00  0.00    -0.492 OA
BRANCH  26  28
ATOM     27  C   UNL     1      -0.164   0.997  -1.947  0.00  0.00    +0.048 C 
ATOM     28  C   UNL     1      -0.102  -0.500  -1.640  0.00  0.00    +0.225 C 
ENDBRANCH  26  28
ENDBRANCH  20  26
ENDBRANCH  19  23
ENDBRANCH   1  19
TORSDOF 5
