REMARK  Name = ZINC39659110
REMARK  6 active torsions:
REMARK  status: ('A' for Active; 'I' for Inactive)
REMARK    1  A    between atoms: C_1  and  C_2
REMARK    2  A    between atoms: C_2  and  C_33
REMARK    3  A    between atoms: C_5  and  C_8
REMARK    4  A    between atoms: C_8  and  N_9
REMARK    5  A    between atoms: C_10  and  C_12
REMARK    6  A    between atoms: C_23  and  C_25
REMARK                            x       y       z     vdW  Elec       q    Type
REMARK                         _______ _______ _______ _____ _____    ______ ____
ROOT
ATOM      1  C   UNL     1       3.285  -2.823   4.688  0.00  0.00    +0.100 C 
ATOM      2  C   UNL     1       4.421  -1.805   4.444  0.00  0.00    +0.121 C 
ATOM      3  N   UNL     1       5.526  -2.260   5.322  0.00  0.00    -0.296 N 
ATOM      4  C   UNL     1       5.493  -3.738   5.219  0.00  0.00    +0.115 C 
ATOM      5  C   UNL     1       3.992  -4.091   5.195  0.00  0.00    -0.004 C 
ATOM      6  C   UNL     1       3.739  -5.255   4.242  0.00  0.00    -0.010 C 
ATOM      7  C   UNL     1       4.403  -6.517   4.798  0.00  0.00    -0.082 C 
ATOM      8  N   UNL     1       3.854  -6.818   6.126  0.00  0.00    +0.379 N 
ATOM      9  C   UNL     1       4.183  -5.734   7.060  0.00  0.00    -0.082 C 
ATOM     10  C   UNL     1       3.509  -4.439   6.600  0.00  0.00    -0.010 C 
ATOM     11  C   UNL     1       6.369  -1.500   6.049  0.00  0.00    +0.247 C 
ATOM     12  O   UNL     1       6.189  -0.301   6.132  0.00  0.00    -0.270 OA
ATOM     13  H   UNL     1       2.851  -6.911   6.060  0.00  0.00    -0.086 HD
ATOM     14  H   UNL     1       4.248  -7.683   6.463  0.00  0.00    -0.086 HD
ENDROOT
BRANCH  11  15
ATOM     15  C   UNL     1       7.513  -2.126   6.745  0.00  0.00    +0.040 A 
ATOM     16  C   UNL     1       7.987  -3.373   6.334  0.00  0.00    +0.033 A 
ATOM     17  C   UNL     1       9.056  -3.953   6.989  0.00  0.00    +0.043 A 
ATOM     18  C   UNL     1       9.657  -3.299   8.051  0.00  0.00    +0.040 A 
ATOM     19  C   UNL     1       9.192  -2.063   8.464  0.00  0.00    +0.043 A 
ATOM     20  C   UNL     1       8.127  -1.470   7.813  0.00  0.00    +0.033 A 
ATOM     21 CL   UNL     1       9.952  -1.252   9.797  0.00  0.00    -0.083 Cl
ATOM     22 CL   UNL     1       9.646  -5.503   6.479  0.00  0.00    -0.083 Cl
ENDBRANCH  11  15
BRANCH   1  24
ATOM     23  N   UNL     1       1.246  -3.438   3.429  0.00  0.00    -0.312 N 
ATOM     24  C   UNL     1       2.553  -3.110   3.402  0.00  0.00    +0.218 C 
ATOM     25  O   UNL     1       3.140  -3.045   2.343  0.00  0.00    -0.275 OA
ATOM     26  H   UNL     1       0.777  -3.490   4.277  0.00  0.00    +0.149 HD
BRANCH  23  27
ATOM     27  C   UNL     1       0.535  -3.717   2.180  0.00  0.00    +0.138 C 
BRANCH  27  32
ATOM     28  C   UNL     1      -4.019  -2.963   3.407  0.00  0.00    +0.074 C 
ATOM     29  C   UNL     1      -2.947  -2.949   2.316  0.00  0.00    +0.165 C 
ATOM     30  O   UNL     1      -3.041  -4.150   1.532  0.00  0.00    -0.347 OA
ATOM     31  C   UNL     1      -1.672  -4.483   1.200  0.00  0.00    +0.196 C 
ATOM     32  C   UNL     1      -0.924  -4.061   2.489  0.00  0.00    +0.164 C 
ATOM     33  O   UNL     1      -1.648  -2.891   2.918  0.00  0.00    -0.342 OA
ATOM     34  C   UNL     1      -3.150  -1.732   1.411  0.00  0.00    +0.074 C 
ENDBRANCH  27  32
ENDBRANCH  23  27
ENDBRANCH   1  24
TORSDOF 4
