REMARK  Name = ZINC20214465
REMARK  11 active torsions:
REMARK  status: ('A' for Active; 'I' for Inactive)
REMARK    1  A    between atoms: C_1  and  C_2
REMARK    2  A    between atoms: C_2  and  O_3
REMARK    3  A    between atoms: O_3  and  C_4
REMARK    4  A    between atoms: C_4  and  C_6
REMARK    5  A    between atoms: C_7  and  C_24
REMARK    6  A    between atoms: C_12  and  C_14
REMARK    7  A    between atoms: C_17  and  O_20
REMARK    8  A    between atoms: O_20  and  C_21
REMARK    9  A    between atoms: C_21  and  C_22
REMARK   10  A    between atoms: C_21  and  C_23
REMARK   11  A    between atoms: C_24  and  N_25
REMARK                            x       y       z     vdW  Elec       q    Type
REMARK                         _______ _______ _______ _____ _____    ______ ____
ROOT
ATOM      1  C   UNL     1      -1.241   1.925  -0.060  0.00  0.00    +0.079 C 
ATOM      2  C   UNL     1      -2.403   1.238  -0.025  0.00  0.00    +0.038 C 
ATOM      3  N   UNL     1      -3.600   1.884   0.092  0.00  0.00    -0.271 N 
ATOM      4  C   UNL     1      -3.721   3.216   0.167  0.00  0.00    +0.304 C 
ATOM      5  O   UNL     1      -4.832   3.701   0.264  0.00  0.00    -0.252 OA
ATOM      6  N   UNL     1      -2.652   4.036   0.139  0.00  0.00    -0.288 N 
ATOM      7  C   UNL     1      -1.312   3.437   0.021  0.00  0.00    +0.144 C 
ATOM      8  H   UNL     1      -4.536   1.307   0.129  0.00  0.00    +0.156 HD
ATOM      9  H   UNL     1      -2.763   5.128   0.201  0.00  0.00    +0.151 HD
ENDROOT
BRANCH   7  10
ATOM     10  C   UNL     1      -0.501   3.877   1.212  0.00  0.00    -0.022 A 
ATOM     11  C   UNL     1      -1.043   3.803   2.482  0.00  0.00    +0.009 A 
ATOM     12  C   UNL     1      -0.299   4.200   3.576  0.00  0.00    +0.046 A 
ATOM     13  C   UNL     1       0.989   4.684   3.399  0.00  0.00    +0.121 A 
ATOM     14  C   UNL     1       1.528   4.763   2.123  0.00  0.00    +0.046 A 
ATOM     15  C   UNL     1       0.782   4.359   1.033  0.00  0.00    +0.009 A 
BRANCH  13  16
ATOM     16  O   UNL     1       1.720   5.081   4.473  0.00  0.00    -0.489 OA
BRANCH  16  17
ATOM     17  C   UNL     1       2.993   5.675   4.208  0.00  0.00    +0.167 C 
ATOM     18  C   UNL     1       3.383   6.587   5.372  0.00  0.00    +0.051 C 
ATOM     19  C   UNL     1       4.045   4.576   4.046  0.00  0.00    +0.051 C 
ENDBRANCH  16  17
ENDBRANCH  13  16
ENDBRANCH   7  10
BRANCH   1  20
ATOM     20  C   UNL     1       0.000   1.257  -0.175  0.00  0.00    +0.339 C 
ATOM     21  O   UNL     1       0.721   1.141   0.798  0.00  0.00    -0.245 OA
BRANCH  20  22
ATOM     22  O   UNL     1       0.383   0.743  -1.363  0.00  0.00    -0.462 OA
BRANCH  22  24
ATOM     23  C   UNL     1       1.905  -0.435  -2.824  0.00  0.00    +0.048 C 
ATOM     24  C   UNL     1       1.646   0.076  -1.405  0.00  0.00    +0.229 C 
ENDBRANCH  22  24
ENDBRANCH  20  22
ENDBRANCH   1  20
BRANCH   2  25
ATOM     25  C   UNL     1      -2.378  -0.266  -0.109  0.00  0.00    +0.136 C 
BRANCH  25  26
ATOM     26  N   UNL     1      -2.893  -0.836   1.143  0.00  0.00    -0.294 NA
ATOM     27  C   UNL     1      -1.994  -0.536   2.267  0.00  0.00    +0.103 C 
ATOM     28  C   UNL     1      -2.604  -1.076   3.563  0.00  0.00    +0.122 C 
ATOM     29  N   UNL     1      -2.818  -2.525   3.434  0.00  0.00    -0.314 N 
ATOM     30  C   UNL     1      -3.717  -2.824   2.311  0.00  0.00    +0.122 C 
ATOM     31  C   UNL     1      -3.107  -2.284   1.015  0.00  0.00    +0.103 C 
ATOM     32  C   UNL     1      -3.305  -3.063   4.619  0.00  0.00    +0.099 A 
ATOM     33  C   UNL     1      -2.592  -2.887   5.801  0.00  0.00    +0.042 A 
ATOM     34  C   UNL     1      -3.089  -3.429   6.973  0.00  0.00    +0.005 A 
ATOM     35  C   UNL     1      -4.286  -4.131   6.923  0.00  0.00    +0.018 A 
ATOM     36  C   UNL     1      -4.941  -4.267   5.716  0.00  0.00    +0.084 A 
ATOM     37  N   UNL     1      -4.446  -3.735   4.614  0.00  0.00    -0.350 N 
ATOM     38  H   UNL     1      -5.006  -3.860   3.676  0.00  0.00    +0.166 HD
ENDBRANCH  25  26
ENDBRANCH   2  25
TORSDOF 8
