REMARK  Name = ZINC36570942
REMARK  15 active torsions:
REMARK  status: ('A' for Active; 'I' for Inactive)
REMARK    1  A    between atoms: C_1  and  C_2
REMARK    2  A    between atoms: C_2  and  C_3
REMARK    3  A    between atoms: C_3  and  N_4
REMARK    4  A    between atoms: N_4  and  C_5
REMARK    5  A    between atoms: C_5  and  C_7
REMARK    6  A    between atoms: C_5  and  C_15
REMARK    7  A    between atoms: C_10  and  C_14
REMARK    8  A    between atoms: C_12  and  C_13
REMARK    9  A    between atoms: N_17  and  C_18
REMARK   10  A    between atoms: C_18  and  S_19
REMARK   11  A    between atoms: S_19  and  C_22
REMARK   12  A    between atoms: C_25  and  C_28
REMARK   13  A    between atoms: C_29  and  C_31
REMARK   14  A    between atoms: C_32  and  O_38
REMARK   15  A    between atoms: C_36  and  O_37
REMARK                            x       y       z     vdW  Elec       q    Type
REMARK                         _______ _______ _______ _____ _____    ______ ____
ROOT
ATOM      1  C   UNL     1      -1.630  -2.893   0.705  0.00  0.00    +0.193 C 
ENDROOT
BRANCH   1   2
ATOM      2  C   UNL     1      -0.663  -2.032   1.475  0.00  0.00    -0.015 A 
ATOM      3  C   UNL     1      -1.137  -1.046   2.321  0.00  0.00    +0.006 A 
ATOM      4  C   UNL     1      -0.250  -0.256   3.027  0.00  0.00    +0.004 A 
ATOM      5  C   UNL     1       1.112  -0.452   2.889  0.00  0.00    -0.050 A 
ATOM      6  C   UNL     1       1.586  -1.438   2.045  0.00  0.00    +0.007 A 
ATOM      7  C   UNL     1       0.699  -2.231   1.341  0.00  0.00    -0.045 A 
ATOM      8  C   UNL     1       1.215  -3.310   0.424  0.00  0.00    +0.044 C 
ATOM      9  C   UNL     1       2.079   0.410   3.659  0.00  0.00    +0.044 C 
ENDBRANCH   1   2
BRANCH   1  10
ATOM     10  C   UNL     1      -2.997  -2.798   1.332  0.00  0.00    +0.239 C 
ATOM     11  O   UNL     1      -3.859  -2.126   0.807  0.00  0.00    -0.273 OA
ATOM     12  N   UNL     1      -3.261  -3.460   2.475  0.00  0.00    -0.294 N 
ATOM     13  H   UNL     1      -2.552  -3.937   2.935  0.00  0.00    +0.150 HD
BRANCH  12  14
ATOM     14  C   UNL     1      -4.619  -3.459   3.025  0.00  0.00    +0.278 C 
BRANCH  14  15
ATOM     15  S   UNL     1      -5.497  -4.947   2.470  0.00  0.00    +0.013 S 
ATOM     16  O   UNL     1      -6.795  -4.992   3.046  0.00  0.00    -0.168 OA
ATOM     17  O   UNL     1      -5.318  -5.127   1.072  0.00  0.00    -0.168 OA
BRANCH  15  18
ATOM     18  C   UNL     1      -4.628  -6.288   3.211  0.00  0.00    +0.090 A 
ATOM     19  C   UNL     1      -3.568  -6.876   2.547  0.00  0.00    +0.027 A 
ATOM     20  C   UNL     1      -2.887  -7.929   3.128  0.00  0.00    +0.005 A 
ATOM     21  C   UNL     1      -3.265  -8.394   4.374  0.00  0.00    -0.050 A 
ATOM     22  C   UNL     1      -4.325  -7.805   5.038  0.00  0.00    +0.005 A 
ATOM     23  C   UNL     1      -5.004  -6.750   4.459  0.00  0.00    +0.027 A 
ATOM     24  C   UNL     1      -2.523  -9.542   5.008  0.00  0.00    +0.044 C 
ENDBRANCH  15  18
ENDBRANCH  14  15
ENDBRANCH  12  14
ENDBRANCH   1  10
BRANCH   1  25
ATOM     25  N   UNL     1      -1.696  -2.431  -0.684  0.00  0.00    -0.282 N 
ATOM     26  C   UNL     1      -1.465  -3.293  -1.693  0.00  0.00    +0.255 C 
ATOM     27  O   UNL     1      -1.201  -4.456  -1.451  0.00  0.00    -0.270 OA
BRANCH  26  28
ATOM     28  C   UNL     1      -1.531  -2.829  -3.089  0.00  0.00    +0.119 A 
ATOM     29  C   UNL     1      -0.383  -2.336  -3.725  0.00  0.00    +0.133 A 
ATOM     30  C   UNL     1      -0.457  -1.901  -5.038  0.00  0.00    +0.046 A 
ATOM     31  C   UNL     1      -1.657  -1.953  -5.722  0.00  0.00    +0.007 A 
ATOM     32  C   UNL     1      -2.796  -2.436  -5.104  0.00  0.00    +0.046 A 
ATOM     33  C   UNL     1      -2.743  -2.881  -3.793  0.00  0.00    +0.133 A 
BRANCH  33  34
ATOM     34  O   UNL     1      -3.860  -3.361  -3.192  0.00  0.00    -0.506 OA
ATOM     35  H   UNL     1      -4.383  -2.686  -2.737  0.00  0.00    +0.292 HD
ENDBRANCH  33  34
BRANCH  29  36
ATOM     36  O   UNL     1       0.796  -2.284  -3.056  0.00  0.00    -0.506 OA
ATOM     37  H   UNL     1       1.333  -3.084  -3.142  0.00  0.00    +0.292 HD
ENDBRANCH  29  36
ENDBRANCH  26  28
BRANCH  25  38
ATOM     38  C   UNL     1      -2.014  -1.031  -0.975  0.00  0.00    +0.109 C 
BRANCH  38  40
ATOM     39  C   UNL     1      -1.040   1.214  -1.478  0.00  0.00    +0.005 C 
ATOM     40  C   UNL     1      -0.720  -0.217  -1.043  0.00  0.00    +0.016 C 
ENDBRANCH  38  40
ENDBRANCH  25  38
ENDBRANCH   1  25
TORSDOF 11
