REMARK  Name = ZINC43736469
REMARK  6 active torsions:
REMARK  status: ('A' for Active; 'I' for Inactive)
REMARK    1  A    between atoms: C_1  and  C_2
REMARK    2  A    between atoms: N_4  and  C_5
REMARK    3  A    between atoms: C_7  and  O_31
REMARK    4  A    between atoms: C_12  and  C_30
REMARK    5  A    between atoms: C_22  and  C_29
REMARK    6  A    between atoms: C_25  and  O_28
REMARK                            x       y       z     vdW  Elec       q    Type
REMARK                         _______ _______ _______ _____ _____    ______ ____
ROOT
ATOM      1  C   UNL     1       0.020  -2.136  -1.177  0.00  0.00    +0.108 C 
ATOM      2  C   UNL     1      -1.417  -2.685  -1.096  0.00  0.00    +0.135 C 
ATOM      3  C   UNL     1      -1.632  -3.547  -2.362  0.00  0.00    +0.037 C 
ATOM      4  C   UNL     1      -0.201  -3.934  -2.780  0.00  0.00    +0.003 C 
ATOM      5  C   UNL     1       0.611  -2.654  -2.515  0.00  0.00    -0.008 C 
ATOM      6  C   UNL     1       0.297  -1.593  -3.573  0.00  0.00    +0.009 C 
ATOM      7  C   UNL     1       0.528  -2.150  -4.974  0.00  0.00    +0.005 C 
ATOM      8  C   UNL     1      -0.440  -3.317  -5.209  0.00  0.00    +0.003 C 
ATOM      9  C   UNL     1      -0.124  -4.405  -4.213  0.00  0.00    +0.000 C 
ATOM     10  C   UNL     1      -1.127  -5.544  -4.435  0.00  0.00    +0.031 C 
ATOM     11  C   UNL     1      -1.075  -5.977  -5.871  0.00  0.00    -0.027 C 
ATOM     12  C   UNL     1      -0.706  -5.187  -6.837  0.00  0.00    -0.065 C 
ATOM     13  C   UNL     1      -0.280  -3.818  -6.635  0.00  0.00    -0.008 C 
ATOM     14  C   UNL     1      -1.069  -2.927  -7.598  0.00  0.00    +0.014 C 
ATOM     15  C   UNL     1      -0.902  -3.453  -9.025  0.00  0.00    +0.032 C 
ATOM     16  C   UNL     1      -1.490  -4.861  -9.130  0.00  0.00    +0.119 C 
ATOM     17  C   UNL     1      -0.704  -5.733  -8.255  0.00  0.00    +0.062 C 
ATOM     18  C   UNL     1       1.198  -3.710  -7.015  0.00  0.00    +0.016 C 
ATOM     19  C   UNL     1       2.111  -2.940  -2.408  0.00  0.00    +0.013 C 
ENDROOT
BRANCH   1  23
ATOM     20  C   UNL     1      -0.018   1.503   0.010  0.00  0.00    +0.109 C 
ATOM     21  C   UNL     1       0.002  -0.004   0.002  0.00  0.00    +0.210 C 
ATOM     22  O   UNL     1       0.020  -0.616   1.049  0.00  0.00    -0.276 OA
ATOM     23  N   UNL     1       0.000  -0.672  -1.169  0.00  0.00    -0.310 N 
ATOM     24  H   UNL     1      -0.015  -0.182  -2.006  0.00  0.00    +0.149 HD
ENDBRANCH   1  23
BRANCH  16  25
ATOM     25  O   UNL     1      -2.858  -4.838  -8.718  0.00  0.00    -0.391 OA
ATOM     26  H   UNL     1      -3.296  -5.699  -8.759  0.00  0.00    +0.210 HD
ENDBRANCH  16  25
BRANCH   2  27
ATOM     27  O   UNL     1      -2.353  -1.606  -1.073  0.00  0.00    -0.390 OA
ATOM     28  H   UNL     1      -3.276  -1.887  -1.022  0.00  0.00    +0.210 HD
ENDBRANCH   2  27
TORSDOF 3
