REMARK  Name = ZINC02388214
REMARK  7 active torsions:
REMARK  status: ('A' for Active; 'I' for Inactive)
REMARK    1  A    between atoms: C_3  and  N_11
REMARK    2  A    between atoms: C_4  and  N_8
REMARK    3  A    between atoms: N_11  and  C_12
REMARK    4  A    between atoms: C_12  and  C_13
REMARK    5  A    between atoms: C_13  and  N_14
REMARK    6  A    between atoms: N_14  and  C_15
REMARK    7  A    between atoms: C_18  and  C_20
REMARK                            x       y       z     vdW  Elec       q    Type
REMARK                         _______ _______ _______ _____ _____    ______ ____
ROOT
ATOM      1  C   UNL     1      -0.013   1.086   0.008  0.00  0.00    +0.121 C 
ENDROOT
BRANCH   1   2
ATOM      2  N   UNL     1      -0.698   1.558   1.213  0.00  0.00    -0.328 N 
ATOM      3  H   UNL     1      -1.495   2.106   1.135  0.00  0.00    +0.147 HD
BRANCH   2   4
ATOM      4  C   UNL     1      -0.207   1.222   2.470  0.00  0.00    +0.115 A 
ATOM      5  C   UNL     1      -0.860   1.679   3.612  0.00  0.00    +0.079 A 
ATOM      6  C   UNL     1      -0.363   1.332   4.855  0.00  0.00    +0.037 A 
ATOM      7  C   UNL     1       0.781   0.546   4.916  0.00  0.00    +0.072 A 
ATOM      8  C   UNL     1       1.381   0.133   3.744  0.00  0.00    +0.096 A 
ATOM      9 CL   UNL     1      -2.282   2.665   3.476  0.00  0.00    -0.080 Cl
ATOM     10  N   UNL     1       0.917   0.450   2.505  0.00  0.00    -0.348 N 
ATOM     11  H   UNL     1       1.384   0.128   1.649  0.00  0.00    +0.167 HD
BRANCH   7  12
ATOM     12  C   UNL     1       1.362   0.149   6.248  0.00  0.00    +0.419 C 
ATOM     13  F   UNL     1       2.502  -0.636   6.045  0.00  0.00    -0.166 F 
ATOM     14  F   UNL     1       1.708   1.297   6.968  0.00  0.00    -0.166 F 
ATOM     15  F   UNL     1       0.414  -0.585   6.970  0.00  0.00    -0.166 F 
ENDBRANCH   7  12
ENDBRANCH   2   4
ENDBRANCH   1   2
BRANCH   1  16
ATOM     16  C   UNL     1      -0.753   1.593  -1.232  0.00  0.00    +0.120 C 
BRANCH  16  17
ATOM     17  N   UNL     1      -0.067   1.120  -2.437  0.00  0.00    -0.341 N 
ATOM     18  H   UNL     1       0.730   0.573  -2.358  0.00  0.00    +0.146 HD
BRANCH  17  21
ATOM     19  C   UNL     1      -2.188   2.575  -5.067  0.00  0.00    +0.022 A 
ATOM     20  C   UNL     1      -1.701   2.241  -3.817  0.00  0.00    +0.026 A 
ATOM     21  C   UNL     1      -0.562   1.459  -3.703  0.00  0.00    +0.048 A 
ATOM     22  C   UNL     1       0.093   1.015  -4.852  0.00  0.00    +0.047 A 
ATOM     23  C   UNL     1      -0.405   1.349  -6.101  0.00  0.00    +0.044 A 
ATOM     24  C   UNL     1      -1.542   2.131  -6.207  0.00  0.00    +0.043 A 
ATOM     25 CL   UNL     1      -2.160   2.554  -7.773  0.00  0.00    -0.083 Cl
BRANCH  22  26
ATOM     26  N   UNL     1       1.246   0.229  -4.742  0.00  0.00    -0.357 N 
ATOM     27  H   UNL     1       1.591  -0.007  -3.867  0.00  0.00    +0.142 HD
ATOM     28  H   UNL     1       1.701  -0.079  -5.542  0.00  0.00    +0.142 HD
ENDBRANCH  22  26
ENDBRANCH  17  21
ENDBRANCH  16  17
ENDBRANCH   1  16
TORSDOF 7
