REMARK  Name = ZINC24630929
REMARK  9 active torsions:
REMARK  status: ('A' for Active; 'I' for Inactive)
REMARK    1  A    between atoms: C_1  and  C_2
REMARK    2  A    between atoms: C_2  and  C_4
REMARK    3  A    between atoms: C_7  and  S_10
REMARK    4  A    between atoms: S_10  and  N_13
REMARK    5  A    between atoms: C_16  and  C_19
REMARK    6  A    between atoms: N_21  and  C_22
REMARK    7  A    between atoms: C_22  and  C_23
REMARK    8  A    between atoms: C_23  and  C_25
REMARK    9  A    between atoms: C_23  and  N_30
REMARK                            x       y       z     vdW  Elec       q    Type
REMARK                         _______ _______ _______ _____ _____    ______ ____
ROOT
ATOM      1  N   UNL     1       1.140   4.105   1.829  0.00  0.00    -0.177 NA
ATOM      2  C   UNL     1      -0.087   4.287   2.616  0.00  0.00    +0.110 C 
ATOM      3  C   UNL     1      -0.143   5.728   3.123  0.00  0.00    +0.030 C 
ATOM      4  C   UNL     1       1.145   6.049   3.884  0.00  0.00    +0.077 C 
ATOM      5  C   UNL     1       2.343   5.913   2.941  0.00  0.00    +0.030 C 
ATOM      6  C   UNL     1       2.429   4.470   2.434  0.00  0.00    +0.110 C 
ENDROOT
BRANCH   4   7
ATOM      7  C   UNL     1       1.078   7.459   4.411  0.00  0.00    +0.216 C 
ATOM      8  O   UNL     1       1.907   8.275   4.067  0.00  0.00    -0.276 OA
ATOM      9  N   UNL     1       0.098   7.813   5.265  0.00  0.00    -0.316 N 
ATOM     10  H   UNL     1      -0.654   7.073   5.577  0.00  0.00    +0.149 HD
BRANCH   9  11
ATOM     11  C   UNL     1       0.033   9.184   5.778  0.00  0.00    +0.094 C 
BRANCH  11  12
ATOM     12  C   UNL     1      -1.230   9.352   6.625  0.00  0.00    -0.013 C 
BRANCH  12  13
ATOM     13  N   UNL     1      -1.362  10.757   7.034  0.00  0.00    +0.386 N 
ATOM     14  C   UNL     1      -1.444  11.651   5.851  0.00  0.00    -0.078 C 
ATOM     15  C   UNL     1      -2.089  12.938   6.423  0.00  0.00    -0.020 C 
ATOM     16  C   UNL     1      -3.114  12.387   7.441  0.00  0.00    -0.020 C 
ATOM     17  C   UNL     1      -2.614  10.973   7.791  0.00  0.00    -0.078 C 
ATOM     18  H   UNL     1      -0.476  10.973   7.650  0.00  0.00    -0.081 HD
ENDBRANCH  12  13
BRANCH  12  19
ATOM     19  C   UNL     1      -1.134   8.479   7.849  0.00  0.00    -0.022 A 
ATOM     20  C   UNL     1      -1.699   7.269   8.082  0.00  0.00    +0.009 A 
ATOM     21  C   UNL     1      -1.467   6.642   9.291  0.00  0.00    +0.008 A 
ATOM     22  C   UNL     1      -0.690   7.261  10.214  0.00  0.00    +0.045 A 
ATOM     23  S   UNL     1      -0.252   8.773   9.373  0.00  0.00    -0.103 S 
ENDBRANCH  12  19
ENDBRANCH  11  12
ENDBRANCH   9  11
ENDBRANCH   4   7
BRANCH   1  24
ATOM     24  S   UNL     1       1.073   3.505   0.287  0.00  0.00    +0.061 S 
ATOM     25  O   UNL     1       2.242   3.963  -0.379  0.00  0.00    -0.153 OA
ATOM     26  O   UNL     1      -0.235   3.777  -0.198  0.00  0.00    -0.153 OA
BRANCH  24  30
ATOM     27  C   UNL     1       1.432  -1.003   0.584  0.00  0.00    +0.017 A 
ATOM     28  C   UNL     1       0.174  -0.394   0.626  0.00  0.00    +0.013 A 
ATOM     29  C   UNL     1       0.073   0.979   0.535  0.00  0.00    +0.029 A 
ATOM     30  C   UNL     1       1.212   1.753   0.403  0.00  0.00    +0.106 A 
ATOM     31  C   UNL     1       2.461   1.157   0.360  0.00  0.00    +0.029 A 
ATOM     32  C   UNL     1       2.579  -0.213   0.450  0.00  0.00    +0.013 A 
BRANCH  27  34
ATOM     33  C   UNL     1       2.907  -3.119   0.635  0.00  0.00    +0.091 C 
ATOM     34  C   UNL     1       1.549  -2.466   0.681  0.00  0.00    +0.160 C 
ATOM     35  O   UNL     1       0.553  -3.148   0.797  0.00  0.00    -0.292 OA
ENDBRANCH  27  34
ENDBRANCH  24  30
ENDBRANCH   1  24
TORSDOF 8
