REMARK  Name = ZINC63362882
REMARK  8 active torsions:
REMARK  status: ('A' for Active; 'I' for Inactive)
REMARK    1  A    between atoms: C_1  and  C_2
REMARK    2  A    between atoms: C_7  and  O_34
REMARK    3  A    between atoms: C_13  and  C_15
REMARK    4  A    between atoms: C_15  and  C_16
REMARK    5  A    between atoms: N_18  and  CA_19
REMARK    6  A    between atoms: CA_19  and  CB_21
REMARK    7  A    between atoms: CA_19  and  C_31
REMARK    8  A    between atoms: CB_21  and  CG_22
REMARK                            x       y       z     vdW  Elec       q    Type
REMARK                         _______ _______ _______ _____ _____    ______ ____
ROOT
ATOM      1  C   UNK A   0       1.113  -0.147   3.667  0.00  0.00    +0.214 C 
ATOM      2  O   UNK A   0       1.980  -0.986   3.541  0.00  0.00    -0.276 OA
ATOM      3  N   TRP A   1       0.886   0.412   4.872  0.00  0.00    -0.302 N 
ATOM      4  H   TRP A   1       0.193   1.083   4.973  0.00  0.00    +0.150 HD
ENDROOT
BRANCH   1   5
ATOM      5  C   UNK A   0       0.290   0.270   2.476  0.00  0.00    +0.111 C 
BRANCH   5  17
ATOM      6  C   UNK A   0      -0.019   1.526   0.010  0.00  0.00    +0.013 C 
ATOM      7  C   UNK A   0       0.002  -0.004   0.002  0.00  0.00    +0.034 C 
ATOM      8  C   UNK A   0      -1.413  -0.524   0.009  0.00  0.00    +0.000 A 
ATOM      9  C   UNK A   0      -2.362   0.134  -0.759  0.00  0.00    +0.031 A 
ATOM     10  C   UNK A   0      -3.668  -0.311  -0.790  0.00  0.00    +0.083 A 
ATOM     11  C   UNK A   0      -4.039  -1.425  -0.048  0.00  0.00    +0.139 A 
ATOM     12  C   UNK A   0      -3.095  -2.083   0.722  0.00  0.00    +0.093 A 
ATOM     13  C   UNK A   0      -1.781  -1.631   0.754  0.00  0.00    +0.139 A 
ATOM     14  O   UNK A   0      -0.889  -2.295   1.540  0.00  0.00    -0.425 OA
ATOM     15  C   UNK A   0       0.414  -1.979   1.408  0.00  0.00    +0.316 C 
ATOM     16  O   UNK A   0       1.276  -2.826   1.423  0.00  0.00    -0.250 OA
ATOM     17  C   UNK A   0       0.747  -0.510   1.241  0.00  0.00    +0.114 C 
ATOM     18 CL   UNK A   0      -4.847   0.523  -1.754  0.00  0.00    -0.080 Cl
BRANCH  11  19
ATOM     19  O   UNK A   0      -5.324  -1.867  -0.078  0.00  0.00    -0.505 OA
ATOM     20  H   UNK A   0      -5.500  -2.517  -0.773  0.00  0.00    +0.292 HD
ENDBRANCH  11  19
ENDBRANCH   5  17
ENDBRANCH   1   5
BRANCH   3  21
ATOM     21  CA  TRP A   1       1.686   0.006   6.030  0.00  0.00    +0.190 C 
BRANCH  21  22
ATOM     22  C   TRP A   1       1.083  -1.228   6.650  0.00  0.00    +0.376 C 
ATOM     23  O   TRP A   1       1.797  -2.034   7.222  0.00  0.00    -0.244 OA
ATOM     24  OXT TRP A   1      -0.119  -1.421   6.580  0.00  0.00    -0.244 OA
ENDBRANCH  21  22
BRANCH  21  25
ATOM     25  CB  TRP A   1       1.704   1.137   7.060  0.00  0.00    +0.067 C 
BRANCH  25  26
ATOM     26  CG  TRP A   1       2.417   2.332   6.482  0.00  0.00    -0.039 C 
ATOM     27  CD2 TRP A   1       1.853   3.396   5.865  0.00  0.00    -0.001 A 
ATOM     28  CE3 TRP A   1       0.461   3.745   5.559  0.00  0.00    +0.010 A 
ATOM     29  CZ3 TRP A   1       0.202   4.905   4.915  0.00  0.00    +0.001 A 
ATOM     30  CH2 TRP A   1       1.227   5.782   4.534  0.00  0.00    +0.002 A 
ATOM     31  CZ2 TRP A   1       2.531   5.530   4.780  0.00  0.00    +0.026 A 
ATOM     32  CE2 TRP A   1       2.918   4.338   5.452  0.00  0.00    +0.043 A 
ATOM     33  NE1 TRP A   1       4.094   3.875   5.800  0.00  0.00    -0.380 N 
ATOM     34  CD1 TRP A   1       3.908   2.588   6.479  0.00  0.00    +0.144 C 
ATOM     35  HE1 TRP A   1       4.945   4.312   5.639  0.00  0.00    +0.160 HD
ENDBRANCH  25  26
ENDBRANCH  21  25
ENDBRANCH   3  21
TORSDOF 7
