REMARK  Name = ZINC45820625
REMARK  9 active torsions:
REMARK  status: ('A' for Active; 'I' for Inactive)
REMARK    1  A    between atoms: C_1  and  O_2
REMARK    2  A    between atoms: O_2  and  C_3
REMARK    3  A    between atoms: C_6  and  C_9
REMARK    4  A    between atoms: C_9  and  C_11
REMARK    5  A    between atoms: C_9  and  N_28
REMARK    6  A    between atoms: C_11  and  N_12
REMARK    7  A    between atoms: C_13  and  C_15
REMARK    8  A    between atoms: N_23  and  S_24
REMARK    9  A    between atoms: S_24  and  C_27
REMARK                            x       y       z     vdW  Elec       q    Type
REMARK                         _______ _______ _______ _____ _____    ______ ____
ROOT
ATOM      1  C   UNL     1       1.470  -2.935  -5.474  0.00  0.00    +0.094 C 
ENDROOT
BRANCH   1   2
ATOM      2  N   UNL     1       0.734  -1.753  -5.929  0.00  0.00    -0.313 N 
ATOM      3  C   UNL     1      -0.283  -1.887  -6.802  0.00  0.00    +0.244 C 
ATOM      4  O   UNL     1      -0.591  -2.989  -7.213  0.00  0.00    -0.270 OA
ATOM      5  H   UNL     1       0.980  -0.873  -5.601  0.00  0.00    +0.149 HD
BRANCH   3   6
ATOM      6  C   UNL     1      -1.024  -0.696  -7.260  0.00  0.00    +0.037 A 
ATOM      7  C   UNL     1      -0.671   0.575  -6.796  0.00  0.00    +0.015 A 
ATOM      8  C   UNL     1      -1.362   1.681  -7.224  0.00  0.00    +0.026 A 
ATOM      9  C   UNL     1      -2.425   1.549  -8.126  0.00  0.00    +0.054 A 
ATOM     10  C   UNL     1      -2.772   0.285  -8.585  0.00  0.00    -0.023 A 
ATOM     11  C   UNL     1      -2.080  -0.829  -8.165  0.00  0.00    +0.018 A 
ATOM     12  C   UNL     1      -3.939   0.425  -9.538  0.00  0.00    +0.058 C 
ATOM     13  C   UNL     1      -4.226   1.935  -9.574  0.00  0.00    +0.136 C 
ATOM     14  N   UNL     1      -3.239   2.535  -8.672  0.00  0.00    -0.207 N 
BRANCH  14  15
ATOM     15  S   UNL     1      -3.112   4.154  -8.350  0.00  0.00    +0.043 S 
ATOM     16  O   UNL     1      -4.416   4.672  -8.576  0.00  0.00    -0.155 OA
ATOM     17  O   UNL     1      -2.520   4.221  -7.060  0.00  0.00    -0.155 OA
ATOM     18  C   UNL     1      -1.961   4.790  -9.599  0.00  0.00    +0.218 C 
ENDBRANCH  14  15
ENDBRANCH   3   6
ENDBRANCH   1   2
BRANCH   1  19
ATOM     19  C   UNL     1       2.476  -2.527  -4.396  0.00  0.00    -0.020 C 
BRANCH  19  20
ATOM     20  N   UNL     1       3.276  -3.695  -4.006  0.00  0.00    +0.385 N 
ATOM     21  C   UNL     1       4.203  -3.315  -2.932  0.00  0.00    -0.078 C 
ATOM     22  C   UNL     1       4.982  -4.546  -2.466  0.00  0.00    -0.019 C 
ATOM     23  C   UNL     1       5.773  -5.120  -3.645  0.00  0.00    -0.004 C 
ATOM     24  C   UNL     1       4.805  -5.444  -4.787  0.00  0.00    -0.019 C 
ATOM     25  C   UNL     1       4.032  -4.179  -5.168  0.00  0.00    -0.078 C 
ATOM     26  H   UNL     1       2.664  -4.426  -3.676  0.00  0.00    -0.081 HD
ENDBRANCH  19  20
BRANCH  19  30
ATOM     27  C   UNL     1       0.381  -1.030  -0.986  0.00  0.00    +0.120 A 
ATOM     28  C   UNL     1       0.945  -0.149  -1.896  0.00  0.00    +0.046 A 
ATOM     29  C   UNL     1       1.622  -0.635  -2.998  0.00  0.00    +0.005 A 
ATOM     30  C   UNL     1       1.737  -1.999  -3.193  0.00  0.00    -0.059 A 
ATOM     31  C   UNL     1       1.175  -2.880  -2.288  0.00  0.00    +0.005 A 
ATOM     32  C   UNL     1       0.503  -2.398  -1.181  0.00  0.00    +0.046 A 
BRANCH  27  34
ATOM     33  C   UNL     1      -0.371   0.865   0.236  0.00  0.00    +0.277 C 
ATOM     34  O   UNL     1      -0.285  -0.555   0.099  0.00  0.00    -0.495 OA
ENDBRANCH  27  34
ENDBRANCH  19  30
ENDBRANCH   1  19
TORSDOF 7
