REMARK  Name = ZINC22282747
REMARK  9 active torsions:
REMARK  status: ('A' for Active; 'I' for Inactive)
REMARK    1  A    between atoms: C_1  and  C_2
REMARK    2  A    between atoms: C_2  and  N_3
REMARK    3  A    between atoms: N_3  and  C_4
REMARK    4  A    between atoms: N_3  and  S_6
REMARK    5  A    between atoms: C_4  and  C_5
REMARK    6  A    between atoms: S_6  and  N_9
REMARK    7  A    between atoms: C_15  and  C_17
REMARK    8  A    between atoms: C_17  and  N_18
REMARK    9  A    between atoms: C_26  and  C_30
REMARK                            x       y       z     vdW  Elec       q    Type
REMARK                         _______ _______ _______ _____ _____    ______ ____
ROOT
ATOM      1  N   UNL     1      -6.870  -3.870   3.193  0.00  0.00    -0.163 NA
ATOM      2  C   UNL     1      -6.248  -3.252   4.372  0.00  0.00    +0.129 C 
ATOM      3  C   UNL     1      -5.625  -1.914   3.952  0.00  0.00    +0.125 C 
ATOM      4  N   UNL     1      -4.806  -2.134   2.752  0.00  0.00    -0.298 N 
ATOM      5  C   UNL     1      -5.430  -2.747   1.571  0.00  0.00    +0.125 C 
ATOM      6  C   UNL     1      -6.051  -4.090   1.993  0.00  0.00    +0.129 C 
ATOM      7  C   UNL     1      -3.507  -1.774   2.732  0.00  0.00    +0.233 C 
ATOM      8  O   UNL     1      -3.004  -1.264   3.711  0.00  0.00    -0.274 OA
ENDROOT
BRANCH   1   9
ATOM      9  S   UNL     1      -8.466  -4.312   3.217  0.00  0.00    +0.100 S 
ATOM     10  O   UNL     1      -9.122  -3.418   4.107  0.00  0.00    -0.141 OA
ATOM     11  O   UNL     1      -8.865  -4.467   1.862  0.00  0.00    -0.141 OA
BRANCH   9  12
ATOM     12  N   UNL     1      -8.548  -5.814   3.909  0.00  0.00    -0.167 NA
BRANCH  12  14
ATOM     13  C   UNL     1     -10.222  -6.122   5.666  0.00  0.00    +0.022 C 
ATOM     14  C   UNL     1      -8.734  -5.944   5.357  0.00  0.00    +0.107 C 
ENDBRANCH  12  14
BRANCH  12  15
ATOM     15  C   UNL     1      -8.435  -7.012   3.075  0.00  0.00    +0.107 C 
ATOM     16  C   UNL     1      -6.984  -7.500   3.076  0.00  0.00    +0.022 C 
ENDBRANCH  12  15
ENDBRANCH   9  12
ENDBRANCH   1   9
BRANCH   7  17
ATOM     17  C   UNL     1      -2.679  -2.006   1.494  0.00  0.00    +0.209 C 
BRANCH  17  18
ATOM     18  N   UNL     1      -1.312  -1.533   1.725  0.00  0.00    -0.256 N 
ATOM     19  C   UNL     1      -0.339  -2.396   2.248  0.00  0.00    +0.079 A 
ATOM     20  C   UNL     1      -0.541  -3.766   2.260  0.00  0.00    +0.027 A 
ATOM     21  C   UNL     1       0.431  -4.600   2.782  0.00  0.00    +0.002 A 
ATOM     22  C   UNL     1       1.602  -4.070   3.290  0.00  0.00    +0.004 A 
ATOM     23  C   UNL     1       1.810  -2.703   3.280  0.00  0.00    +0.047 A 
ATOM     24  C   UNL     1       0.842  -1.862   2.760  0.00  0.00    +0.143 A 
ATOM     25  O   UNL     1       1.030  -0.515   2.742  0.00  0.00    -0.478 OA
ATOM     26  C   UNL     1       0.451   0.200   1.647  0.00  0.00    +0.256 C 
ATOM     27  C   UNL     1      -0.970  -0.258   1.438  0.00  0.00    +0.261 C 
ATOM     28  O   UNL     1      -1.803   0.515   1.014  0.00  0.00    -0.271 OA
ATOM     29  C   UNL     1       0.463   1.699   1.954  0.00  0.00    +0.062 C 
ENDBRANCH  17  18
ENDBRANCH   7  17
TORSDOF 6
