REMARK  Name = ZINC17540026
REMARK  7 active torsions:
REMARK  status: ('A' for Active; 'I' for Inactive)
REMARK    1  A    between atoms: C_1  and  C_2
REMARK    2  A    between atoms: C_2  and  C_29
REMARK    3  A    between atoms: N_5  and  C_9
REMARK    4  A    between atoms: C_9  and  C_10
REMARK    5  A    between atoms: C_21  and  C_23
REMARK    6  A    between atoms: C_32  and  O_35
REMARK    7  A    between atoms: O_35  and  C_36
REMARK                            x       y       z     vdW  Elec       q    Type
REMARK                         _______ _______ _______ _____ _____    ______ ____
ROOT
ATOM      1  C   UNL     1       0.629   2.645   0.432  0.00  0.00    +0.214 C 
ENDROOT
BRANCH   1   2
ATOM      2  C   UNL     1      -0.231   2.682   1.669  0.00  0.00    +0.238 C 
ATOM      3  O   UNL     1      -1.126   3.496   1.762  0.00  0.00    -0.273 OA
ATOM      4  N   UNL     1      -0.005   1.811   2.673  0.00  0.00    -0.261 N 
ATOM      5  C   UNL     1       1.239   1.181   2.741  0.00  0.00    +0.050 A 
ATOM      6  C   UNL     1       2.304   1.759   2.049  0.00  0.00    +0.024 A 
ATOM      7  C   UNL     1       3.555   1.177   2.080  0.00  0.00    +0.002 A 
ATOM      8  C   UNL     1       3.765   0.017   2.803  0.00  0.00    +0.001 A 
ATOM      9  C   UNL     1       2.721  -0.559   3.499  0.00  0.00    +0.016 A 
ATOM     10  C   UNL     1       1.459   0.022   3.475  0.00  0.00    +0.029 A 
ATOM     11  S   UNL     1       0.149  -0.736   4.383  0.00  0.00    -0.121 S 
ATOM     12  C   UNL     1      -1.341   0.054   3.703  0.00  0.00    +0.102 C 
ATOM     13  C   UNL     1      -1.076   1.565   3.634  0.00  0.00    +0.122 C 
BRANCH  13  14
ATOM     14  C   UNL     1      -2.326   2.281   3.193  0.00  0.00    -0.026 A 
ATOM     15  C   UNL     1      -3.085   1.771   2.157  0.00  0.00    +0.005 A 
ATOM     16  C   UNL     1      -4.234   2.426   1.754  0.00  0.00    +0.000 A 
ATOM     17  C   UNL     1      -4.620   3.595   2.383  0.00  0.00    +0.000 A 
ATOM     18  C   UNL     1      -3.858   4.108   3.416  0.00  0.00    +0.000 A 
ATOM     19  C   UNL     1      -2.711   3.451   3.821  0.00  0.00    +0.005 A 
ENDBRANCH  13  14
ENDBRANCH   1   2
BRANCH   1  24
ATOM     20  C   UNL     1      -1.037   2.807  -3.958  0.00  0.00    +0.047 C 
ATOM     21  C   UNL     1      -1.507   3.200  -2.556  0.00  0.00    +0.135 C 
ATOM     22  C   UNL     1      -0.879   2.296  -1.514  0.00  0.00    +0.251 C 
ATOM     23  O   UNL     1      -1.006   1.094  -1.415  0.00  0.00    -0.272 OA
ATOM     24  N   UNL     1      -0.152   3.106  -0.719  0.00  0.00    -0.215 N 
ATOM     25  C   UNL     1      -0.226   4.382  -1.115  0.00  0.00    +0.310 C 
ATOM     26  O   UNL     1       0.348   5.296  -0.558  0.00  0.00    -0.252 OA
ATOM     27  N   UNL     1      -1.008   4.539  -2.198  0.00  0.00    -0.281 N 
ATOM     28  H   UNL     1      -1.204   5.372  -2.655  0.00  0.00    +0.152 HD
BRANCH  21  29
ATOM     29  C   UNL     1      -3.011   3.155  -2.471  0.00  0.00    -0.015 A 
ATOM     30  C   UNL     1      -3.648   1.977  -2.125  0.00  0.00    +0.010 A 
ATOM     31  C   UNL     1      -5.026   1.934  -2.041  0.00  0.00    +0.046 A 
ATOM     32  C   UNL     1      -5.772   3.071  -2.316  0.00  0.00    +0.120 A 
ATOM     33  C   UNL     1      -5.131   4.250  -2.668  0.00  0.00    +0.046 A 
ATOM     34  C   UNL     1      -3.752   4.289  -2.745  0.00  0.00    +0.010 A 
BRANCH  32  35
ATOM     35  O   UNL     1      -7.128   3.030  -2.240  0.00  0.00    -0.495 OA
ATOM     36  C   UNL     1      -7.720   1.783  -1.871  0.00  0.00    +0.277 C 
ENDBRANCH  32  35
ENDBRANCH  21  29
ENDBRANCH   1  24
TORSDOF 5
