REMARK  Name = ZINC15481215
REMARK  8 active torsions:
REMARK  status: ('A' for Active; 'I' for Inactive)
REMARK    1  A    between atoms: C_1  and  C_2
REMARK    2  A    between atoms: C_4  and  S_25
REMARK    3  A    between atoms: C_6  and  N_9
REMARK    4  A    between atoms: C_7  and  C_8
REMARK    5  A    between atoms: C_10  and  C_12
REMARK    6  A    between atoms: C_12  and  N_13
REMARK    7  A    between atoms: C_22  and  C_24
REMARK    8  A    between atoms: S_25  and  N_28
REMARK                            x       y       z     vdW  Elec       q    Type
REMARK                         _______ _______ _______ _____ _____    ______ ____
ROOT
ATOM      1  N   UNL     1      -1.269   4.813   3.675  0.00  0.00    -0.284 N 
ATOM      2  C   UNL     1      -0.310   5.622   3.184  0.00  0.00    +0.235 C 
ATOM      3  O   UNL     1       0.278   5.319   2.167  0.00  0.00    -0.274 OA
ATOM      4  H   UNL     1      -1.793   5.091   4.442  0.00  0.00    +0.155 HD
ENDROOT
BRANCH   1  10
ATOM      5  C   UNL     1      -4.336   1.081   2.759  0.00  0.00    +0.044 C 
ATOM      6  C   UNL     1      -2.988   1.739   2.617  0.00  0.00    -0.044 A 
ATOM      7  C   UNL     1      -1.988   1.115   1.894  0.00  0.00    +0.032 A 
ATOM      8  C   UNL     1      -0.750   1.716   1.761  0.00  0.00    +0.107 A 
ATOM      9  C   UNL     1      -0.507   2.940   2.355  0.00  0.00    +0.052 A 
ATOM     10  C   UNL     1      -1.511   3.571   3.077  0.00  0.00    +0.038 A 
ATOM     11  C   UNL     1      -2.753   2.965   3.208  0.00  0.00    -0.026 A 
ATOM     12  C   UNL     1      -3.844   3.644   3.995  0.00  0.00    +0.046 C 
BRANCH   8  13
ATOM     13  S   UNL     1       0.522   0.917   0.840  0.00  0.00    +0.056 S 
ATOM     14  O   UNL     1       0.218  -0.471   0.849  0.00  0.00    -0.153 OA
ATOM     15  O   UNL     1       1.757   1.429   1.323  0.00  0.00    -0.153 OA
BRANCH  13  16
ATOM     16  N   UNL     1       0.381   1.423  -0.730  0.00  0.00    -0.204 NA
ATOM     17  H   UNL     1      -0.317   2.049  -0.977  0.00  0.00    +0.144 HD
ATOM     18  H   UNL     1       0.997   1.092  -1.403  0.00  0.00    +0.144 HD
ENDBRANCH  13  16
ENDBRANCH   8  13
ENDBRANCH   1  10
BRANCH   2  19
ATOM     19  C   UNL     1       0.034   6.903   3.899  0.00  0.00    +0.201 C 
BRANCH  19  20
ATOM     20  N   UNL     1       1.033   7.646   3.119  0.00  0.00    -0.318 N 
ATOM     21  C   UNL     1       0.525   8.008   1.873  0.00  0.00    +0.034 A 
ATOM     22  C   UNL     1      -0.833   8.322   1.792  0.00  0.00    +0.023 A 
ATOM     23  C   UNL     1      -1.393   8.693   0.589  0.00  0.00    +0.002 A 
ATOM     24  C   UNL     1      -0.607   8.757  -0.548  0.00  0.00    +0.000 A 
ATOM     25  C   UNL     1       0.736   8.446  -0.475  0.00  0.00    +0.005 A 
ATOM     26  C   UNL     1       1.305   8.069   0.731  0.00  0.00    -0.026 A 
ATOM     27  C   UNL     1       2.774   7.725   0.747  0.00  0.00    +0.039 C 
ATOM     28  C   UNL     1       3.284   7.712   2.190  0.00  0.00    +0.027 C 
ATOM     29  C   UNL     1       2.291   6.903   3.034  0.00  0.00    +0.071 C 
ATOM     30  C   UNL     1       2.861   6.696   4.439  0.00  0.00    +0.028 C 
ENDBRANCH  19  20
ENDBRANCH   2  19
TORSDOF 5
