REMARK  Name = ZINC37230170
REMARK  6 active torsions:
REMARK  status: ('A' for Active; 'I' for Inactive)
REMARK    1  A    between atoms: C_4  and  N_16
REMARK    2  A    between atoms: C_6  and  C_7
REMARK    3  A    between atoms: C_7  and  N_8
REMARK    4  A    between atoms: N_8  and  C_9
REMARK    5  A    between atoms: C_9  and  C_10
REMARK    6  A    between atoms: C_9  and  C_13
REMARK                            x       y       z     vdW  Elec       q    Type
REMARK                         _______ _______ _______ _____ _____    ______ ____
ROOT
ATOM      1  C   UNL     1      -1.306  -0.664  -0.069  0.00  0.00    -0.046 C 
ENDROOT
BRANCH   1   7
ATOM      2  C   UNL     1      -0.398   1.665  -0.197  0.00  0.00    +0.003 A 
ATOM      3  C   UNL     1       0.658   2.554  -0.261  0.00  0.00    +0.018 A 
ATOM      4  C   UNL     1       1.958   2.084  -0.268  0.00  0.00    +0.048 A 
ATOM      5  C   UNL     1       2.202   0.724  -0.211  0.00  0.00    +0.140 A 
ATOM      6  C   UNL     1       1.146  -0.165  -0.146  0.00  0.00    +0.035 A 
ATOM      7  C   UNL     1      -0.154   0.305  -0.139  0.00  0.00    -0.062 A 
ATOM      8 BR   UNL     1       3.403   3.301  -0.357  0.00  0.00    -0.048 Br
BRANCH   5   9
ATOM      9  N   UNL     1       3.594   0.220  -0.219  0.00  0.00    +0.058 N 
ATOM     10  O   UNL     1       3.806  -0.969  -0.169  0.00  0.00    -0.126 OA
ATOM     11  O   UNL     1       4.518   0.997  -0.276  0.00  0.00    -0.126 OA
ENDBRANCH   5   9
ENDBRANCH   1   7
BRANCH   1  12
ATOM     12  N   UNL     1      -1.711  -1.043  -1.429  0.00  0.00    +0.384 N 
ATOM     13  H   UNL     1      -1.900  -0.211  -1.968  0.00  0.00    -0.085 HD
ATOM     14  H   UNL     1      -0.969  -1.567  -1.867  0.00  0.00    -0.085 HD
BRANCH  12  15
ATOM     15  C   UNL     1      -2.923  -1.871  -1.366  0.00  0.00    -0.065 C 
BRANCH  15  16
ATOM     16  C   UNL     1      -3.439  -2.128  -2.783  0.00  0.00    -0.025 C 
ATOM     17  C   UNL     1      -2.549  -1.693  -3.949  0.00  0.00    +0.002 C 
ATOM     18  C   UNL     1      -3.824  -0.911  -3.627  0.00  0.00    +0.002 C 
ENDBRANCH  15  16
BRANCH  15  19
ATOM     19  C   UNL     1      -2.596  -3.205  -0.692  0.00  0.00    -0.025 C 
ATOM     20  C   UNL     1      -3.587  -3.734   0.346  0.00  0.00    +0.002 C 
ATOM     21  C   UNL     1      -2.235  -3.176   0.794  0.00  0.00    +0.002 C 
ENDBRANCH  15  19
ENDBRANCH  12  15
ENDBRANCH   1  12
TORSDOF 6
