REMARK  Name = ZINC45129919
REMARK  7 active torsions:
REMARK  status: ('A' for Active; 'I' for Inactive)
REMARK    1  A    between atoms: C_1  and  C_2
REMARK    2  A    between atoms: C_2  and  N_3
REMARK    3  A    between atoms: N_3  and  C_4
REMARK    4  A    between atoms: C_4  and  C_5
REMARK    5  A    between atoms: C_5  and  C_7
REMARK    6  A    between atoms: N_10  and  C_11
REMARK    7  A    between atoms: C_11  and  C_12
REMARK                            x       y       z     vdW  Elec       q    Type
REMARK                         _______ _______ _______ _____ _____    ______ ____
ROOT
ATOM      1  N   UNL     1       0.688  -0.476  -1.203  0.00  0.00    -0.282 N 
ATOM      2  C   UNL     1      -0.013  -0.705  -2.332  0.00  0.00    +0.302 C 
ATOM      3  O   UNL     1       0.556  -1.097  -3.332  0.00  0.00    -0.253 OA
ATOM      4  N   UNL     1      -1.345  -0.498  -2.351  0.00  0.00    -0.299 N 
ATOM      5  H   UNL     1      -1.799  -0.185  -1.553  0.00  0.00    +0.150 HD
ENDROOT
BRANCH   1   7
ATOM      6  C   UNL     1      -0.019   1.526   0.010  0.00  0.00    +0.024 C 
ATOM      7  C   UNL     1       0.002  -0.004   0.002  0.00  0.00    +0.106 C 
ENDBRANCH   1   7
BRANCH   1   8
ATOM      8  C   UNL     1       2.135  -0.701  -1.182  0.00  0.00    +0.139 C 
BRANCH   8   9
ATOM      9  C   UNL     1       2.417  -2.123  -0.770  0.00  0.00    -0.062 C 
ATOM     10  C   UNL     1       2.603  -3.045  -1.682  0.00  0.00    +0.009 C 
ATOM     11  C   UNL     1       2.485  -2.484   0.692  0.00  0.00    +0.040 C 
ENDBRANCH   8   9
ENDBRANCH   1   8
BRANCH   4  12
ATOM     12  C   UNL     1      -2.107  -0.746  -3.578  0.00  0.00    +0.113 C 
BRANCH  12  13
ATOM     13  C   UNL     1      -3.584  -0.435  -3.332  0.00  0.00    +0.048 C 
ATOM     14  C   UNL     1      -4.368  -0.586  -4.638  0.00  0.00    +0.047 C 
ATOM     15  C   UNL     1      -5.847  -0.574  -4.347  0.00  0.00    -0.005 A 
ATOM     16  C   UNL     1      -6.728  -0.322  -5.386  0.00  0.00    +0.007 A 
ATOM     17  C   UNL     1      -8.090  -0.307  -5.156  0.00  0.00    +0.000 A 
ATOM     18  C   UNL     1      -8.579  -0.546  -3.885  0.00  0.00    +0.004 A 
ATOM     19  C   UNL     1      -7.706  -0.796  -2.846  0.00  0.00    +0.046 A 
ATOM     20  C   UNL     1      -6.333  -0.810  -3.074  0.00  0.00    +0.124 A 
ATOM     21  O   UNL     1      -5.505  -1.050  -2.024  0.00  0.00    -0.491 OA
ATOM     22  C   UNL     1      -4.157  -1.425  -2.309  0.00  0.00    +0.234 C 
ENDBRANCH  12  13
ENDBRANCH   4  12
TORSDOF 5
