REMARK  Name = ZINC10817270
REMARK  13 active torsions:
REMARK  status: ('A' for Active; 'I' for Inactive)
REMARK    1  A    between atoms: C_1  and  C_2
REMARK    2  A    between atoms: C_2  and  N_61
REMARK    3  A    between atoms: C_3  and  C_4
REMARK    4  A    between atoms: C_3  and  N_61
REMARK    5  A    between atoms: C_5  and  C_6
REMARK    6  A    between atoms: C_5  and  N_61
REMARK    7  A    between atoms: C_6  and  N_7
REMARK    8  A    between atoms: C_13  and  S_17
REMARK    9  A    between atoms: S_17  and  C_18
REMARK   10  A    between atoms: C_19  and  C_21
REMARK   11  A    between atoms: C_21  and  C_22
REMARK   12  A    between atoms: C_25  and  C_29
REMARK   13  A    between atoms: C_27  and  C_28
REMARK                            x       y       z     vdW  Elec       q    Type
REMARK                         _______ _______ _______ _____ _____    ______ ____
ROOT
ATOM      1  N   UNL     1       7.163   1.834  -0.212  0.00  0.00    -0.252 N 
ATOM      2  C   UNL     1       6.019   1.060  -0.326  0.00  0.00    +0.168 A 
ATOM      3  N   UNL     1       4.766   1.445  -0.374  0.00  0.00    -0.224 NA
ATOM      4  C   UNL     1       3.741   0.571  -0.488  0.00  0.00    +0.080 A 
ATOM      5  C   UNL     1       2.356   0.854  -0.550  0.00  0.00    +0.030 A 
ATOM      6  C   UNL     1       1.443  -0.146  -0.665  0.00  0.00    +0.017 A 
ATOM      7  C   UNL     1       1.829  -1.484  -0.726  0.00  0.00    +0.009 A 
ATOM      8  C   UNL     1       3.180  -1.801  -0.667  0.00  0.00    +0.032 A 
ATOM      9  C   UNL     1       4.104  -0.793  -0.551  0.00  0.00    +0.042 A 
ATOM     10  S   UNL     1       5.876  -0.718  -0.445  0.00  0.00    -0.052 S 
ATOM     11  C   UNL     1       8.375   1.245  -0.178  0.00  0.00    +0.225 C 
ATOM     12  O   UNL     1       8.464   0.037  -0.248  0.00  0.00    -0.275 OA
ENDROOT
BRANCH   7  13
ATOM     13  S   UNL     1       0.619  -2.756  -0.874  0.00  0.00    -0.129 S 
ATOM     14  C   UNL     1      -0.958  -1.860  -0.909  0.00  0.00    +0.090 C 
ENDBRANCH   7  13
BRANCH   1  15
ATOM     15  C   UNL     1       7.055   3.292  -0.128  0.00  0.00    +0.097 C 
BRANCH  15  16
ATOM     16  C   UNL     1       6.934   3.711   1.339  0.00  0.00    -0.059 C 
BRANCH  16  17
ATOM     17  N   UNL     1       6.847   5.185   1.408  0.00  0.00    +0.380 N 
ATOM     18  H   UNL     1       7.625   5.590   0.874  0.00  0.00    -0.082 HD
BRANCH  17  20
ATOM     19  C   UNL     1       4.385   5.042   1.577  0.00  0.00    -0.017 C 
ATOM     20  C   UNL     1       5.571   5.644   0.821  0.00  0.00    -0.082 C 
ENDBRANCH  17  20
BRANCH  17  21
ATOM     21  C   UNL     1       6.946   5.631   2.814  0.00  0.00    -0.082 C 
ATOM     22  C   UNL     1       7.221   7.136   2.833  0.00  0.00    -0.017 C 
ENDBRANCH  17  21
ENDBRANCH  16  17
ENDBRANCH  15  16
ENDBRANCH   1  15
BRANCH  11  23
ATOM     23  C   UNL     1       9.619   2.087  -0.054  0.00  0.00    +0.131 C 
BRANCH  23  24
ATOM     24  C   UNL     1      10.831   1.192  -0.040  0.00  0.00    -0.036 A 
ATOM     25  C   UNL     1      11.380   0.792   1.165  0.00  0.00    +0.004 A 
ATOM     26  C   UNL     1      12.492  -0.029   1.178  0.00  0.00    +0.003 A 
ATOM     27  C   UNL     1      13.056  -0.449  -0.012  0.00  0.00    -0.050 A 
ATOM     28  C   UNL     1      12.507  -0.049  -1.216  0.00  0.00    +0.007 A 
ATOM     29  C   UNL     1      11.391   0.767  -1.230  0.00  0.00    -0.047 A 
ATOM     30  C   UNL     1      10.789   1.199  -2.542  0.00  0.00    +0.044 C 
ATOM     31  C   UNL     1      14.268  -1.345   0.002  0.00  0.00    +0.044 C 
ENDBRANCH  23  24
ENDBRANCH  11  23
TORSDOF 8
