REMARK  Name = ZINC37352640
REMARK  3 active torsions:
REMARK  status: ('A' for Active; 'I' for Inactive)
REMARK    1  A    between atoms: C_5  and  C_6
REMARK    2  A    between atoms: C_8  and  N_19
REMARK    3  A    between atoms: N_9  and  C_11
REMARK                            x       y       z     vdW  Elec       q    Type
REMARK                         _______ _______ _______ _____ _____    ______ ____
ROOT
ATOM      1  C   UNL     1      -1.134  -0.951   0.008  0.00  0.00    +0.072 A 
ATOM      2  C   UNL     1      -2.500  -0.605   0.017  0.00  0.00    +0.071 A 
ATOM      3  C   UNL     1      -3.220  -1.758   0.021  0.00  0.00    +0.113 A 
ATOM      4  N   UNL     1      -2.341  -2.795   0.014  0.00  0.00    -0.268 N 
ATOM      5  N   UNL     1      -1.045  -2.266   0.000  0.00  0.00    -0.295 N 
ATOM      6  H   UNL     1      -0.222  -2.780  -0.011  0.00  0.00    +0.187 HD
ENDROOT
BRANCH   4   7
ATOM      7  C   UNL     1      -2.690  -4.218   0.015  0.00  0.00    +0.129 C 
ATOM      8  C   UNL     1      -2.074  -4.902   1.246  0.00  0.00    +0.051 C 
ATOM      9  C   UNL     1      -2.160  -6.440   1.093  0.00  0.00    +0.168 C 
ATOM     10  S   UNL     1      -2.135  -6.667  -0.732  0.00  0.00    -0.029 S 
ATOM     11  O   UNL     1      -0.906  -7.274  -1.106  0.00  0.00    -0.174 OA
ATOM     12  O   UNL     1      -3.361  -7.258  -1.141  0.00  0.00    -0.174 OA
ATOM     13  C   UNL     1      -2.114  -4.901  -1.258  0.00  0.00    +0.192 C 
ENDBRANCH   4   7
BRANCH   1  18
ATOM     14  C   UNL     1      -0.017   1.364   0.009  0.00  0.00    +0.019 A 
ATOM     15  C   UNL     1       1.183   2.043   0.002  0.00  0.00    +0.023 A 
ATOM     16  C   UNL     1       2.343   1.337  -0.013  0.00  0.00    +0.056 A 
ATOM     17  S   UNL     1       1.754  -0.348  -0.017  0.00  0.00    -0.080 S 
ATOM     18  C   UNL     1       0.002  -0.004   0.002  0.00  0.00    +0.038 A 
ATOM     19 BR   UNL     1       4.123   1.974  -0.027  0.00  0.00    -0.043 Br
ENDBRANCH   1  18
BRANCH   3  20
ATOM     20  N   UNL     1      -4.608  -1.858   0.030  0.00  0.00    -0.343 N 
ATOM     21  H   UNL     1      -5.152  -1.055   0.034  0.00  0.00    +0.144 HD
ATOM     22  H   UNL     1      -5.031  -2.731   0.032  0.00  0.00    +0.144 HD
ENDBRANCH   3  20
TORSDOF 3
