REMARK  Name = ZINC12698854
REMARK  5 active torsions:
REMARK  status: ('A' for Active; 'I' for Inactive)
REMARK    1  A    between atoms: N_5  and  C_12
REMARK    2  A    between atoms: C_7  and  C_8
REMARK    3  A    between atoms: C_12  and  C_13
REMARK    4  A    between atoms: N_15  and  N_16
REMARK    5  A    between atoms: C_17  and  C_19
REMARK                            x       y       z     vdW  Elec       q    Type
REMARK                         _______ _______ _______ _____ _____    ______ ____
ROOT
ATOM      1  C   UNL     1       4.094  -0.917  -1.463  0.00  0.00    +0.249 C 
ATOM      2  O   UNL     1       3.395  -0.530  -2.376  0.00  0.00    -0.272 OA
ATOM      3  N   UNL     1       5.251  -1.556  -1.724  0.00  0.00    -0.233 N 
ATOM      4  H   UNL     1       5.810  -1.865  -0.993  0.00  0.00    +0.173 HD
ENDROOT
BRANCH   3   5
ATOM      5  N   UNL     1       5.647  -1.775  -3.050  0.00  0.00    -0.230 N 
ATOM      6  C   UNL     1       6.804  -2.415  -3.310  0.00  0.00    +0.267 C 
ATOM      7  O   UNL     1       7.505  -2.802  -2.394  0.00  0.00    -0.268 OA
ATOM      8  H   UNL     1       5.088  -1.466  -3.780  0.00  0.00    +0.173 HD
BRANCH   6   9
ATOM      9  C   UNL     1       7.219  -2.644  -4.698  0.00  0.00    +0.076 A 
ATOM     10  C   UNL     1       8.352  -3.263  -5.177  0.00  0.00    +0.024 A 
ATOM     11  C   UNL     1       8.512  -3.373  -6.561  0.00  0.00    -0.036 A 
ATOM     12  C   UNL     1       7.569  -2.798  -7.334  0.00  0.00    -0.006 A 
ATOM     13  S   UNL     1       6.394  -2.187  -6.210  0.00  0.00    -0.088 S 
ATOM     14  C   UNL     1       7.457  -2.583  -8.821  0.00  0.00    +0.043 C 
ATOM     15  C   UNL     1       8.673  -3.117  -9.578  0.00  0.00    +0.005 C 
ATOM     16  C   UNL     1       8.576  -4.623  -9.758  0.00  0.00    +0.000 C 
ATOM     17  C   UNL     1       7.985  -5.322  -8.551  0.00  0.00    +0.000 C 
ATOM     18  C   UNL     1       9.131  -5.555  -7.561  0.00  0.00    +0.005 C 
ATOM     19  C   UNL     1       9.670  -4.201  -7.100  0.00  0.00    +0.036 C 
ENDBRANCH   6   9
ENDBRANCH   3   5
BRANCH   1  20
ATOM     20  C   UNL     1       3.668  -0.681  -0.037  0.00  0.00    +0.222 C 
BRANCH  20  25
ATOM     21  C   UNL     1      -0.016   1.360   0.009  0.00  0.00    +0.019 A 
ATOM     22  C   UNL     1       0.002  -0.004   0.002  0.00  0.00    +0.071 A 
ATOM     23  C   UNL     1       1.237  -0.675  -0.013  0.00  0.00    +0.252 A 
ATOM     24  O   UNL     1       1.268  -1.895  -0.021  0.00  0.00    -0.268 OA
ATOM     25  N   UNL     1       2.385   0.027  -0.021  0.00  0.00    -0.306 N 
ATOM     26  C   UNL     1       2.369   1.385  -0.013  0.00  0.00    +0.102 A 
ATOM     27  C   UNL     1       1.197   2.062   0.002  0.00  0.00    +0.071 A 
BRANCH  27  28
ATOM     28  C   UNL     1       1.197   3.569   0.010  0.00  0.00    +0.419 C 
ATOM     29  F   UNL     1       1.069   4.042  -1.300  0.00  0.00    -0.166 F 
ATOM     30  F   UNL     1       0.123   4.031   0.779  0.00  0.00    -0.166 F 
ATOM     31  F   UNL     1       2.397   4.032   0.558  0.00  0.00    -0.166 F 
ENDBRANCH  27  28
ENDBRANCH  20  25
ENDBRANCH   1  20
TORSDOF 5
