REMARK  Name = ZINC43254647
REMARK  13 active torsions:
REMARK  status: ('A' for Active; 'I' for Inactive)
REMARK    1  A    between atoms: C_1  and  C_2
REMARK    2  A    between atoms: C_3  and  C_35
REMARK    3  A    between atoms: C_5  and  C_13
REMARK    4  A    between atoms: N_6  and  C_7
REMARK    5  A    between atoms: C_7  and  C_8
REMARK    6  A    between atoms: C_13  and  C_15
REMARK    7  A    between atoms: C_15  and  N_16
REMARK    8  A    between atoms: N_16  and  C_17
REMARK    9  A    between atoms: N_16  and  S_24
REMARK   10  A    between atoms: C_17  and  C_18
REMARK   11  A    between atoms: S_24  and  C_27
REMARK   12  A    between atoms: C_30  and  O_33
REMARK   13  A    between atoms: O_33  and  C_34
REMARK                            x       y       z     vdW  Elec       q    Type
REMARK                         _______ _______ _______ _____ _____    ______ ____
ROOT
ATOM      1  C   UNL     1       0.054  -3.239   1.548  0.00  0.00    +0.195 C 
ATOM      2  O   UNL     1       0.056  -3.085   2.753  0.00  0.00    -0.289 OA
ENDROOT
BRANCH   1   7
ATOM      3  C   UNL     1      -0.018   1.503   0.010  0.00  0.00    +0.064 C 
ATOM      4  C   UNL     1       0.002  -0.004   0.002  0.00  0.00    +0.029 A 
ATOM      5  C   UNL     1       0.008  -0.804  -1.127  0.00  0.00    +0.058 A 
ATOM      6  C   UNL     1       0.029  -2.145  -0.687  0.00  0.00    +0.044 A 
ATOM      7  C   UNL     1       0.034  -2.113   0.691  0.00  0.00    +0.087 A 
ATOM      8  N   UNL     1       0.023  -0.792   1.088  0.00  0.00    -0.334 N 
BRANCH   5   9
ATOM      9  C   UNL     1      -0.004  -0.342  -2.526  0.00  0.00    +0.243 C 
ATOM     10  O   UNL     1      -0.022   0.848  -2.774  0.00  0.00    -0.270 OA
ATOM     11  N   UNL     1       0.004  -1.240  -3.532  0.00  0.00    -0.325 N 
ATOM     12  H   UNL     1       0.018  -2.189  -3.335  0.00  0.00    +0.145 HD
ATOM     13  H   UNL     1      -0.004  -0.935  -4.453  0.00  0.00    +0.145 HD
ENDBRANCH   5   9
BRANCH   8  14
ATOM     14  C   UNL     1       0.030  -0.323   2.476  0.00  0.00    +0.196 C 
BRANCH  14  15
ATOM     15  C   UNL     1      -1.389  -0.182   2.965  0.00  0.00    +0.124 A 
ATOM     16  C   UNL     1      -2.110  -1.140   3.574  0.00  0.00    +0.046 A 
ATOM     17  C   UNL     1      -3.376  -0.580   3.860  0.00  0.00    +0.041 A 
ATOM     18  C   UNL     1      -3.353   0.687   3.408  0.00  0.00    +0.195 A 
ATOM     19  O   UNL     1      -2.145   0.924   2.872  0.00  0.00    -0.466 OA
ENDBRANCH  14  15
ENDBRANCH   8  14
ENDBRANCH   1   7
BRANCH   1  20
ATOM     20  C   UNL     1       0.071  -4.629   0.967  0.00  0.00    +0.190 C 
BRANCH  20  21
ATOM     21  N   UNL     1       0.089  -5.613   2.052  0.00  0.00    -0.167 NA
BRANCH  21  22
ATOM     22  S   UNL     1       1.529  -6.241   2.576  0.00  0.00    +0.061 S 
ATOM     23  O   UNL     1       1.231  -7.495   3.175  0.00  0.00    -0.153 OA
ATOM     24  O   UNL     1       2.446  -6.110   1.498  0.00  0.00    -0.153 OA
BRANCH  22  25
ATOM     25  C   UNL     1       2.116  -5.194   3.866  0.00  0.00    +0.106 A 
ATOM     26  C   UNL     1       2.925  -4.114   3.565  0.00  0.00    +0.032 A 
ATOM     27  C   UNL     1       3.386  -3.292   4.574  0.00  0.00    +0.047 A 
ATOM     28  C   UNL     1       3.037  -3.550   5.892  0.00  0.00    +0.120 A 
ATOM     29  C   UNL     1       2.224  -4.634   6.192  0.00  0.00    +0.047 A 
ATOM     30  C   UNL     1       1.761  -5.450   5.178  0.00  0.00    +0.032 A 
BRANCH  28  31
ATOM     31  O   UNL     1       3.490  -2.744   6.887  0.00  0.00    -0.495 OA
ATOM     32  C   UNL     1       3.090  -3.070   8.220  0.00  0.00    +0.277 C 
ENDBRANCH  28  31
ENDBRANCH  22  25
ENDBRANCH  21  22
BRANCH  21  33
ATOM     33  C   UNL     1      -1.166  -6.040   2.674  0.00  0.00    +0.141 C 
BRANCH  33  34
ATOM     34  C   UNL     1      -1.781  -7.176   1.853  0.00  0.00    +0.134 C 
ATOM     35  C   UNL     1      -3.129  -7.620   2.475  0.00  0.00    +0.035 C 
ATOM     36  C   UNL     1      -3.840  -8.228   1.235  0.00  0.00    +0.031 C 
ATOM     37  C   UNL     1      -3.326  -7.329   0.090  0.00  0.00    +0.160 C 
ATOM     38  O   UNL     1      -2.109  -6.715   0.533  0.00  0.00    -0.375 OA
ENDBRANCH  33  34
ENDBRANCH  21  33
ENDBRANCH  20  21
ENDBRANCH   1  20
TORSDOF 11
