REMARK  Name = ZINC12566311
REMARK  8 active torsions:
REMARK  status: ('A' for Active; 'I' for Inactive)
REMARK    1  A    between atoms: C_1  and  O_2
REMARK    2  A    between atoms: O_2  and  C_3
REMARK    3  A    between atoms: C_6  and  N_9
REMARK    4  A    between atoms: N_9  and  S_10
REMARK    5  A    between atoms: S_10  and  C_13
REMARK    6  A    between atoms: C_15  and  N_34
REMARK    7  A    between atoms: C_18  and  N_19
REMARK    8  A    between atoms: N_19  and  N_20
REMARK                            x       y       z     vdW  Elec       q    Type
REMARK                         _______ _______ _______ _____ _____    ______ ____
ROOT
ATOM      1  C   UNL     1       1.908  -4.996   3.823  0.00  0.00    +0.133 A 
ATOM      2  C   UNL     1       2.511  -6.213   4.069  0.00  0.00    +0.063 A 
ATOM      3  C   UNL     1       2.481  -7.209   3.110  0.00  0.00    +0.128 A 
ATOM      4  C   UNL     1       1.846  -6.991   1.900  0.00  0.00    +0.035 A 
ATOM      5  C   UNL     1       1.239  -5.778   1.645  0.00  0.00    +0.029 A 
ATOM      6  C   UNL     1       1.263  -4.775   2.610  0.00  0.00    +0.075 A 
ENDROOT
BRANCH   1   7
ATOM      7  S   UNL     1       1.947  -3.728   5.046  0.00  0.00    +0.074 S 
ATOM      8  O   UNL     1       2.406  -2.551   4.395  0.00  0.00    -0.150 OA
ATOM      9  O   UNL     1       2.605  -4.278   6.179  0.00  0.00    -0.150 OA
BRANCH   7  10
ATOM     10  N   UNL     1       0.382  -3.438   5.501  0.00  0.00    -0.216 N 
ATOM     11  H   UNL     1      -0.035  -2.588   5.290  0.00  0.00    +0.174 HD
BRANCH  10  15
ATOM     12  C   UNL     1      -1.768  -6.360   7.554  0.00  0.00    +0.120 A 
ATOM     13  C   UNL     1      -1.796  -5.044   7.991  0.00  0.00    +0.047 A 
ATOM     14  C   UNL     1      -1.084  -4.075   7.311  0.00  0.00    +0.028 A 
ATOM     15  C   UNL     1      -0.340  -4.419   6.191  0.00  0.00    +0.048 A 
ATOM     16  C   UNL     1      -0.312  -5.737   5.754  0.00  0.00    +0.028 A 
ATOM     17  C   UNL     1      -1.020  -6.706   6.438  0.00  0.00    +0.047 A 
BRANCH  12  19
ATOM     18  C   UNL     1      -3.218  -6.888   9.364  0.00  0.00    +0.277 C 
ATOM     19  O   UNL     1      -2.469  -7.314   8.224  0.00  0.00    -0.495 OA
ENDBRANCH  12  19
ENDBRANCH  10  15
ENDBRANCH   7  10
ENDBRANCH   1   7
BRANCH   3  20
ATOM     20  N   UNL     1       3.130  -8.512   3.378  0.00  0.00    +0.056 N 
ATOM     21  O   UNL     1       3.736  -8.721   4.529  0.00  0.00    -0.126 OA
ATOM     22  O   UNL     1       3.103  -9.462   2.466  0.00  0.00    -0.126 OA
ENDBRANCH   3  20
BRANCH   6  23
ATOM     23  N   UNL     1       0.649  -3.554   2.360  0.00  0.00    -0.235 N 
ATOM     24  H   UNL     1       0.603  -2.882   3.058  0.00  0.00    +0.174 HD
BRANCH  23  25
ATOM     25  N   UNL     1       0.159  -3.323   1.244  0.00  0.00    -0.178 NA
ATOM     26  C   UNL     1      -0.350  -2.176   0.994  0.00  0.00    +0.137 C 
ATOM     27  C   UNL     1      -0.350  -1.007   1.889  0.00  0.00    +0.014 A 
ATOM     28  C   UNL     1       0.172  -0.744   3.246  0.00  0.00    +0.011 A 
ATOM     29  C   UNL     1       0.004   0.449   3.785  0.00  0.00    +0.001 A 
ATOM     30  C   UNL     1      -0.696   1.536   3.068  0.00  0.00    +0.008 A 
ATOM     31  C   UNL     1      -1.158   1.300   1.863  0.00  0.00    -0.017 A 
ATOM     32  C   UNL     1      -0.956  -0.032   1.292  0.00  0.00    +0.002 A 
ATOM     33  C   UNL     1      -1.442  -0.370  -0.045  0.00  0.00    +0.032 A 
ATOM     34  C   UNL     1      -2.070   0.560  -0.724  0.00  0.00    +0.012 A 
ATOM     35  C   UNL     1      -2.285   1.906  -0.171  0.00  0.00    +0.001 A 
ATOM     36  C   UNL     1      -1.874   2.278   1.026  0.00  0.00    +0.008 A 
ATOM     37  C   UNL     1      -1.046  -1.774  -0.257  0.00  0.00    +0.214 C 
ATOM     38  O   UNL     1      -1.246  -2.452  -1.234  0.00  0.00    -0.285 OA
ENDBRANCH  23  25
ENDBRANCH   6  23
TORSDOF 7
