REMARK  Name = ZINC12497424
REMARK  14 active torsions:
REMARK  status: ('A' for Active; 'I' for Inactive)
REMARK    1  A    between atoms: C_1  and  C_2
REMARK    2  A    between atoms: C_2  and  O_3
REMARK    3  A    between atoms: O_3  and  C_4
REMARK    4  A    between atoms: C_4  and  C_6
REMARK    5  A    between atoms: C_6  and  C_34
REMARK    6  A    between atoms: C_11  and  C_13
REMARK    7  A    between atoms: C_16  and  O_21
REMARK    8  A    between atoms: C_17  and  O_19
REMARK    9  A    between atoms: O_19  and  C_20
REMARK   10  A    between atoms: N_24  and  C_27
REMARK   11  A    between atoms: C_30  and  C_33
REMARK   12  A    between atoms: C_34  and  C_35
REMARK   13  A    between atoms: C_35  and  S_36
REMARK   14  A    between atoms: S_36  and  C_37
REMARK                            x       y       z     vdW  Elec       q    Type
REMARK                         _______ _______ _______ _____ _____    ______ ____
ROOT
ATOM      1  C   UNL     1      -0.719   1.539  -1.202  0.00  0.00    +0.044 C 
ATOM      2  C   UNL     1       0.433   1.791  -2.181  0.00  0.00    +0.086 C 
ATOM      3  C   UNL     1       1.389   2.498  -1.138  0.00  0.00    +0.077 C 
ATOM      4  C   UNL     1       1.381   1.562  -0.003  0.00  0.00    -0.027 C 
ATOM      5  C   UNL     1       2.337   3.147  -2.017  0.00  0.00    +0.229 C 
ATOM      6  O   UNL     1       3.525   3.308  -1.838  0.00  0.00    -0.275 OA
ATOM      7  N   UNL     1       1.590   3.539  -3.100  0.00  0.00    -0.210 N 
ATOM      8  C   UNL     1       0.355   2.956  -3.129  0.00  0.00    +0.229 C 
ATOM      9  O   UNL     1      -0.605   3.305  -3.782  0.00  0.00    -0.275 OA
ATOM     10  N   UNL     1      -0.006   1.014  -0.002  0.00  0.00    +0.395 N 
ATOM     11  H   UNL     1       0.026  -0.012  -0.039  0.00  0.00    -0.083 HD
ATOM     12  H   UNL     1      -0.496   1.310   0.850  0.00  0.00    -0.083 HD
ENDROOT
BRANCH   7  13
ATOM     13  C   UNL     1       2.046   4.440  -4.073  0.00  0.00    +0.044 A 
ATOM     14  C   UNL     1       1.230   4.780  -5.143  0.00  0.00    +0.024 A 
ATOM     15  C   UNL     1       1.680   5.672  -6.097  0.00  0.00    +0.005 A 
ATOM     16  C   UNL     1       2.947   6.217  -5.993  0.00  0.00    -0.050 A 
ATOM     17  C   UNL     1       3.764   5.876  -4.931  0.00  0.00    +0.005 A 
ATOM     18  C   UNL     1       3.318   4.989  -3.971  0.00  0.00    +0.024 A 
ATOM     19  C   UNL     1       3.437   7.186  -7.038  0.00  0.00    +0.044 C 
ENDBRANCH   7  13
BRANCH   4  20
ATOM     20  C   UNL     1       2.388   0.460  -0.218  0.00  0.00    -0.057 A 
ATOM     21  C   UNL     1       2.107  -0.569  -1.097  0.00  0.00    +0.006 A 
ATOM     22  C   UNL     1       3.026  -1.581  -1.298  0.00  0.00    +0.049 A 
ATOM     23  C   UNL     1       4.233  -1.566  -0.617  0.00  0.00    +0.158 A 
ATOM     24  C   UNL     1       4.516  -0.530   0.268  0.00  0.00    +0.161 A 
ATOM     25  C   UNL     1       3.592   0.484   0.461  0.00  0.00    +0.051 A 
BRANCH  24  26
ATOM     26  O   UNL     1       5.699  -0.511   0.938  0.00  0.00    -0.491 OA
ATOM     27  C   UNL     1       5.921   0.583   1.831  0.00  0.00    +0.277 C 
ENDBRANCH  24  26
BRANCH  23  28
ATOM     28  O   UNL     1       5.138  -2.562  -0.813  0.00  0.00    -0.503 OA
ATOM     29  H   UNL     1       5.766  -2.387  -1.528  0.00  0.00    +0.292 HD
ENDBRANCH  23  28
ENDBRANCH   4  20
BRANCH   1  30
ATOM     30  C   UNL     1      -1.435   2.825  -0.877  0.00  0.00    +0.297 C 
ATOM     31  O   UNL     1      -1.487   3.711  -1.697  0.00  0.00    -0.252 OA
BRANCH  30  32
ATOM     32  O   UNL     1      -2.016   2.986   0.322  0.00  0.00    -0.466 OA
BRANCH  32  34
ATOM     33  C   UNL     1      -3.283   4.248   1.975  0.00  0.00    +0.048 C 
ATOM     34  C   UNL     1      -2.688   4.250   0.566  0.00  0.00    +0.228 C 
ENDBRANCH  32  34
ENDBRANCH  30  32
ENDBRANCH   1  30
BRANCH   1  35
ATOM     35  C   UNL     1      -1.693   0.501  -1.764  0.00  0.00    +0.010 C 
BRANCH  35  36
ATOM     36  C   UNL     1      -2.754   0.175  -0.712  0.00  0.00    +0.068 C 
BRANCH  36  37
ATOM     37  S   UNL     1      -3.908  -1.056  -1.379  0.00  0.00    -0.164 S 
ATOM     38  C   UNL     1      -5.087  -1.329  -0.027  0.00  0.00    +0.084 C 
ENDBRANCH  36  37
ENDBRANCH  35  36
ENDBRANCH   1  35
TORSDOF 10
