REMARK  Name = ZINC38660798
REMARK  12 active torsions:
REMARK  status: ('A' for Active; 'I' for Inactive)
REMARK    1  A    between atoms: C_1  and  O_2
REMARK    2  A    between atoms: O_2  and  C_3
REMARK    3  A    between atoms: C_8  and  O_9
REMARK    4  A    between atoms: O_9  and  C_10
REMARK    5  A    between atoms: C_10  and  C_11
REMARK    6  A    between atoms: C_11  and  O_13
REMARK    7  A    between atoms: O_13  and  C_14
REMARK    8  A    between atoms: C_21  and  N_40
REMARK    9  A    between atoms: C_22  and  C_38
REMARK   10  A    between atoms: C_23  and  C_25
REMARK   11  A    between atoms: C_29  and  O_31
REMARK   12  A    between atoms: O_31  and  C_32
REMARK                            x       y       z     vdW  Elec       q    Type
REMARK                         _______ _______ _______ _____ _____    ______ ____
ROOT
ATOM      1  C   UNL     1      -1.384  -7.124  -1.999  0.00  0.00    +0.135 A 
ATOM      2  C   UNL     1      -1.935  -6.355  -3.014  0.00  0.00    +0.047 A 
ATOM      3  C   UNL     1      -2.534  -6.967  -4.097  0.00  0.00    +0.012 A 
ATOM      4  C   UNL     1      -2.588  -8.348  -4.175  0.00  0.00    +0.008 A 
ATOM      5  C   UNL     1      -2.040  -9.121  -3.164  0.00  0.00    +0.138 A 
ATOM      6  C   UNL     1      -1.431  -8.507  -2.077  0.00  0.00    +0.093 A 
ATOM      7  O   UNL     1      -2.083 -10.475  -3.223  0.00  0.00    -0.441 OA
ATOM      8  C   UNL     1      -2.968 -11.083  -4.031  0.00  0.00    +0.199 C 
ATOM      9  C   UNL     1      -3.556 -10.437  -5.065  0.00  0.00    +0.098 C 
ATOM     10  C   UNL     1      -3.246  -8.997  -5.364  0.00  0.00    +0.098 C 
ENDROOT
BRANCH  10  11
ATOM     11  C   UNL     1      -2.319  -8.922  -6.550  0.00  0.00    -0.031 A 
ATOM     12  C   UNL     1      -1.073  -9.520  -6.492  0.00  0.00    +0.005 A 
ATOM     13  C   UNL     1      -0.221  -9.453  -7.579  0.00  0.00    +0.004 A 
ATOM     14  C   UNL     1      -0.611  -8.788  -8.725  0.00  0.00    +0.046 A 
ATOM     15  C   UNL     1      -1.860  -8.187  -8.785  0.00  0.00    +0.129 A 
ATOM     16  C   UNL     1      -2.716  -8.260  -7.696  0.00  0.00    +0.050 A 
BRANCH  15  17
ATOM     17  O   UNL     1      -2.246  -7.532  -9.911  0.00  0.00    -0.456 OA
BRANCH  17  18
ATOM     18  C   UNL     1      -3.422  -6.851  -9.882  0.00  0.00    +0.128 A 
ATOM     19  C   UNL     1      -3.551  -5.721  -9.088  0.00  0.00    +0.046 A 
ATOM     20  C   UNL     1      -4.748  -5.031  -9.060  0.00  0.00    +0.004 A 
ATOM     21  C   UNL     1      -5.816  -5.467  -9.822  0.00  0.00    +0.000 A 
ATOM     22  C   UNL     1      -5.691  -6.594 -10.614  0.00  0.00    +0.004 A 
ATOM     23  C   UNL     1      -4.494  -7.283 -10.650  0.00  0.00    +0.046 A 
ENDBRANCH  17  18
ENDBRANCH  15  17
ENDBRANCH  10  11
BRANCH   8  24
ATOM     24  N   UNL     1      -3.285 -12.399  -3.801  0.00  0.00    -0.328 N 
ATOM     25  H   UNL     1      -2.872 -12.876  -3.064  0.00  0.00    +0.145 HD
ATOM     26  H   UNL     1      -3.922 -12.851  -4.376  0.00  0.00    +0.145 HD
ENDBRANCH   8  24
BRANCH   9  27
ATOM     27  C   UNL     1      -4.491 -11.139  -5.891  0.00  0.00    +0.101 C 
ATOM     28  N   UNL     1      -5.233 -11.696  -6.546  0.00  0.00    -0.191 NA
ENDBRANCH   9  27
BRANCH   1  29
ATOM     29  O   UNL     1      -0.794  -6.523  -0.933  0.00  0.00    -0.423 OA
BRANCH  29  30
ATOM     30  C   UNL     1      -1.588  -5.972  -0.000  0.00  0.00    +0.350 C 
ATOM     31  O   UNL     1      -2.784  -5.941  -0.168  0.00  0.00    -0.247 OA
BRANCH  30  32
ATOM     32  C   UNL     1      -0.987  -5.394   1.255  0.00  0.00    +0.349 C 
BRANCH  32  33
ATOM     33  O   UNL     1      -2.027  -4.872   2.084  0.00  0.00    -0.477 OA
BRANCH  33  39
ATOM     34  C   UNL     1      -2.614  -3.781   4.121  0.00  0.00    +0.162 A 
ATOM     35  C   UNL     1      -2.227  -3.214   5.324  0.00  0.00    +0.049 A 
ATOM     36  C   UNL     1      -0.889  -3.169   5.670  0.00  0.00    +0.004 A 
ATOM     37  C   UNL     1       0.066  -3.688   4.816  0.00  0.00    +0.004 A 
ATOM     38  C   UNL     1      -0.313  -4.255   3.613  0.00  0.00    +0.049 A 
ATOM     39  C   UNL     1      -1.653  -4.309   3.264  0.00  0.00    +0.163 A 
BRANCH  34  41
ATOM     40  C   UNL     1      -4.860  -3.265   4.708  0.00  0.00    +0.277 C 
ATOM     41  O   UNL     1      -3.929  -3.827   3.780  0.00  0.00    -0.491 OA
ENDBRANCH  34  41
ENDBRANCH  33  39
ENDBRANCH  32  33
ENDBRANCH  30  32
ENDBRANCH  29  30
ENDBRANCH   1  29
TORSDOF 11
