REMARK  Name = ZINC25074776
REMARK  6 active torsions:
REMARK  status: ('A' for Active; 'I' for Inactive)
REMARK    1  A    between atoms: C_9  and  C_11
REMARK    2  A    between atoms: N_12  and  N_13
REMARK    3  A    between atoms: C_14  and  C_16
REMARK    4  A    between atoms: C_16  and  C_18
REMARK    5  A    between atoms: C_16  and  N_30
REMARK    6  A    between atoms: C_18  and  C_19
REMARK                            x       y       z     vdW  Elec       q    Type
REMARK                         _______ _______ _______ _____ _____    ______ ____
ROOT
ATOM      1  N   UNL     1      -4.613   5.131   1.461  0.00  0.00    -0.208 N 
ATOM      2  C   UNL     1      -3.336   5.561   1.513  0.00  0.00    +0.218 C 
ATOM      3  O   UNL     1      -3.099   6.749   1.583  0.00  0.00    -0.276 OA
ATOM      4  H   UNL     1      -4.828   4.055   1.397  0.00  0.00    +0.177 HD
ENDROOT
BRANCH   1   6
ATOM      5  C   UNL     1      -6.895   5.641   1.437  0.00  0.00    +0.140 C 
ATOM      6  N   UNL     1      -5.665   6.056   1.488  0.00  0.00    -0.188 NA
BRANCH   5  15
ATOM      7  C   UNL     1     -10.366   7.086   1.438  0.00  0.00    +0.001 A 
ATOM      8  C   UNL     1     -10.133   8.427   1.516  0.00  0.00    +0.010 A 
ATOM      9  C   UNL     1      -8.816   8.911   1.572  0.00  0.00    +0.001 A 
ATOM     10  C   UNL     1      -8.548  10.291   1.653  0.00  0.00    +0.011 A 
ATOM     11  C   UNL     1      -7.243  10.692   1.705  0.00  0.00    +0.020 A 
ATOM     12  C   UNL     1      -6.223   9.743   1.677  0.00  0.00    +0.111 A 
ATOM     13  N   UNL     1      -6.479   8.459   1.601  0.00  0.00    -0.254 NA
ATOM     14  C   UNL     1      -7.731   8.002   1.547  0.00  0.00    +0.080 A 
ATOM     15  C   UNL     1      -8.000   6.612   1.465  0.00  0.00    +0.020 A 
ATOM     16  C   UNL     1      -9.317   6.177   1.406  0.00  0.00    +0.011 A 
ENDBRANCH   5  15
ENDBRANCH   1   6
BRANCH   2  17
ATOM     17  C   UNL     1      -2.204   4.567   1.484  0.00  0.00    +0.015 C 
BRANCH  17  18
ATOM     18  N   UNL     1      -0.989   5.194   2.021  0.00  0.00    +0.386 N 
ATOM     19  H   UNL     1      -0.162   4.468   2.000  0.00  0.00    -0.089 HD
ATOM     20  H   UNL     1      -1.168   5.515   3.057  0.00  0.00    -0.089 HD
ATOM     21  H   UNL     1      -0.725   6.067   1.406  0.00  0.00    -0.089 HD
ENDBRANCH  17  18
BRANCH  17  22
ATOM     22  C   UNL     1      -1.954   4.120   0.042  0.00  0.00    +0.002 C 
BRANCH  22  23
ATOM     23  C   UNL     1      -0.907   3.037   0.027  0.00  0.00    +0.038 C 
ATOM     24  C   UNL     1      -1.148   1.748   0.016  0.00  0.00    +0.082 C 
ATOM     25  N   UNL     1      -0.011   0.966   0.007  0.00  0.00    -0.288 NA
ATOM     26  C   UNL     1       1.177   1.832   0.001  0.00  0.00    +0.135 C 
ATOM     27  C   UNL     1       0.587   3.264   0.013  0.00  0.00    +0.048 C 
ATOM     28  C   UNL     1       0.891   4.124  -1.207  0.00  0.00    -0.020 C 
ATOM     29  C   UNL     1       1.630   3.642  -2.194  0.00  0.00    -0.004 C 
ATOM     30  C   UNL     1       2.187   2.290  -2.192  0.00  0.00    -0.002 C 
ATOM     31  C   UNL     1       2.000   1.431  -1.202  0.00  0.00    -0.000 C 
ENDBRANCH  22  23
ENDBRANCH  17  22
ENDBRANCH   2  17
TORSDOF 6
