REMARK  Name = ZINC34749491
REMARK  10 active torsions:
REMARK  status: ('A' for Active; 'I' for Inactive)
REMARK    1  A    between atoms: C_1  and  C_2
REMARK    2  A    between atoms: C_2  and  C_3
REMARK    3  A    between atoms: C_4  and  C_37
REMARK    4  A    between atoms: N_10  and  C_33
REMARK    5  A    between atoms: N_16  and  C_19
REMARK    6  A    between atoms: C_19  and  C_20
REMARK    7  A    between atoms: N_22  and  C_23
REMARK    8  A    between atoms: C_33  and  C_34
REMARK    9  A    between atoms: C_34  and  C_35
REMARK   10  A    between atoms: C_34  and  C_36
REMARK                            x       y       z     vdW  Elec       q    Type
REMARK                         _______ _______ _______ _____ _____    ______ ____
ROOT
ATOM      1  C   UNL     1      -0.065  -0.598   0.925  0.00  0.00    -0.023 A 
ATOM      2  C   UNL     1       0.307   0.672   0.710  0.00  0.00    -0.007 A 
ATOM      3  S   UNL     1       0.255   1.401   2.336  0.00  0.00    -0.073 S 
ATOM      4  C   UNL     1      -0.267  -0.023   3.259  0.00  0.00    +0.117 A 
ATOM      5  C   UNL     1      -0.391  -1.022   2.276  0.00  0.00    +0.076 A 
ATOM      6  C   UNL     1      -0.813  -2.307   2.745  0.00  0.00    +0.264 A 
ATOM      7  O   UNL     1      -0.944  -3.236   1.966  0.00  0.00    -0.267 OA
ATOM      8  N   UNL     1      -1.062  -2.476   4.056  0.00  0.00    -0.280 N 
ATOM      9  C   UNL     1      -0.921  -1.448   4.941  0.00  0.00    +0.202 A 
ATOM     10  N   UNL     1      -0.525  -0.259   4.540  0.00  0.00    -0.208 NA
ATOM     11  N   UNL     1      -1.186  -1.660   6.272  0.00  0.00    -0.304 N 
ATOM     12  C   UNL     1      -2.554  -1.542   6.799  0.00  0.00    +0.089 C 
ATOM     13  C   UNL     1      -2.524  -0.628   8.028  0.00  0.00    -0.059 C 
ATOM     14  N   UNL     1      -1.545  -1.141   8.994  0.00  0.00    +0.387 N 
ATOM     15  C   UNL     1      -0.195  -1.075   8.420  0.00  0.00    -0.059 C 
ATOM     16  C   UNL     1      -0.110  -2.017   7.209  0.00  0.00    +0.089 C 
ATOM     17  C   UNL     1       0.682   1.327  -0.595  0.00  0.00    +0.052 C 
ATOM     18  H   UNL     1      -1.767  -2.099   9.220  0.00  0.00    -0.081 HD
ENDROOT
BRANCH   1  20
ATOM     19  C   UNL     1      -1.557  -1.527  -0.824  0.00  0.00    +0.009 C 
ATOM     20  C   UNL     1      -0.151  -1.572  -0.222  0.00  0.00    +0.033 C 
ENDBRANCH   1  20
BRANCH  14  21
ATOM     21  C   UNL     1      -1.595  -0.328  10.217  0.00  0.00    +0.019 C 
BRANCH  21  22
ATOM     22  C   UNL     1      -0.680  -0.926  11.255  0.00  0.00    +0.201 C 
ATOM     23  O   UNL     1      -0.048  -1.930  11.001  0.00  0.00    -0.278 OA
ATOM     24  N   UNL     1      -0.563  -0.345  12.465  0.00  0.00    -0.287 N 
ATOM     25  H   UNL     1      -1.119   0.417  12.693  0.00  0.00    +0.155 HD
BRANCH  24  26
ATOM     26  C   UNL     1       0.357  -0.839  13.391  0.00  0.00    +0.041 A 
ATOM     27  C   UNL     1       0.637  -2.188  13.441  0.00  0.00    +0.024 A 
ATOM     28  C   UNL     1       1.553  -2.691  14.360  0.00  0.00    +0.002 A 
ATOM     29  C   UNL     1       2.197  -1.868  15.233  0.00  0.00    +0.008 A 
ATOM     30  C   UNL     1       1.940  -0.487  15.215  0.00  0.00    -0.016 A 
ATOM     31  C   UNL     1       1.014   0.038  14.281  0.00  0.00    +0.003 A 
ATOM     32  C   UNL     1       0.762   1.419  14.261  0.00  0.00    +0.010 A 
ATOM     33  C   UNL     1       1.413   2.235  15.134  0.00  0.00    +0.001 A 
ATOM     34  C   UNL     1       2.329   1.721  16.049  0.00  0.00    +0.001 A 
ATOM     35  C   UNL     1       2.590   0.386  16.105  0.00  0.00    +0.008 A 
ENDBRANCH  24  26
ENDBRANCH  21  22
ENDBRANCH  14  21
BRANCH   8  36
ATOM     36  C   UNL     1      -1.494  -3.789   4.542  0.00  0.00    +0.131 C 
BRANCH  36  37
ATOM     37  C   UNL     1      -0.278  -4.577   5.030  0.00  0.00    +0.003 C 
ATOM     38  C   UNL     1      -0.741  -5.897   5.652  0.00  0.00    +0.009 C 
ATOM     39  C   UNL     1       0.650  -4.868   3.849  0.00  0.00    +0.009 C 
ENDBRANCH  36  37
ENDBRANCH   8  36
TORSDOF 6
