REMARK  Name = ZINC22108833
REMARK  11 active torsions:
REMARK  status: ('A' for Active; 'I' for Inactive)
REMARK    1  A    between atoms: C_4  and  N_7
REMARK    2  A    between atoms: C_8  and  S_12
REMARK    3  A    between atoms: S_12  and  C_13
REMARK    4  A    between atoms: C_13  and  C_14
REMARK    5  A    between atoms: C_14  and  C_15
REMARK    6  A    between atoms: C_15  and  N_16
REMARK    7  A    between atoms: N_16  and  C_17
REMARK    8  A    between atoms: C_17  and  C_18
REMARK    9  A    between atoms: C_27  and  O_28
REMARK   10  A    between atoms: O_28  and  C_29
REMARK   11  A    between atoms: C_29  and  C_30
REMARK                            x       y       z     vdW  Elec       q    Type
REMARK                         _______ _______ _______ _____ _____    ______ ____
ROOT
ATOM      1  C   UNL     1      -1.330   2.140   0.020  0.00  0.00    -0.042 C 
ENDROOT
BRANCH   1   2
ATOM      2  C   UNL     1      -0.017   1.400   0.010  0.00  0.00    -0.015 A 
ATOM      3  C   UNL     1       0.002  -0.004   0.002  0.00  0.00    -0.013 A 
ATOM      4  C   UNL     1      -1.190  -0.749   0.009  0.00  0.00    +0.009 A 
ATOM      5  C   UNL     1      -1.134  -2.109   0.001  0.00  0.00    +0.001 A 
ATOM      6  C   UNL     1       0.090  -2.777  -0.015  0.00  0.00    +0.001 A 
ATOM      7  C   UNL     1       1.264  -2.088  -0.022  0.00  0.00    +0.008 A 
ATOM      8  C   UNL     1       1.246  -0.683  -0.013  0.00  0.00    -0.017 A 
ATOM      9  C   UNL     1       2.439   0.060  -0.021  0.00  0.00    +0.012 A 
ATOM     10  C   UNL     1       2.387   1.419  -0.013  0.00  0.00    +0.046 A 
ATOM     11  C   UNL     1       1.161   2.091   0.002  0.00  0.00    +0.123 A 
BRANCH  11  12
ATOM     12  O   UNL     1       1.141   3.450   0.010  0.00  0.00    -0.487 OA
BRANCH  12  13
ATOM     13  C   UNL     1       2.405   4.117   0.001  0.00  0.00    +0.266 C 
BRANCH  13  14
ATOM     14  C   UNL     1       2.186   5.608   0.011  0.00  0.00    +0.008 A 
ATOM     15  C   UNL     1       0.901   6.118   0.021  0.00  0.00    +0.008 A 
ATOM     16  C   UNL     1       0.700   7.486   0.034  0.00  0.00    +0.000 A 
ATOM     17  C   UNL     1       1.783   8.344   0.029  0.00  0.00    +0.001 A 
ATOM     18  C   UNL     1       3.068   7.836   0.014  0.00  0.00    +0.020 A 
ATOM     19  C   UNL     1       3.270   6.467   0.005  0.00  0.00    +0.047 A 
ATOM     20 CL   UNL     1       4.884   5.828  -0.013  0.00  0.00    -0.083 Cl
ENDBRANCH  13  14
ENDBRANCH  12  13
ENDBRANCH  11  12
ENDBRANCH   1   2
BRANCH   1  21
ATOM     21  N   UNL     1      -1.750   2.373   1.408  0.00  0.00    +0.382 N 
ATOM     22  H   UNL     1      -0.975   2.966   1.916  0.00  0.00    -0.085 HD
ATOM     23  H   UNL     1      -1.857   1.401   1.912  0.00  0.00    -0.085 HD
BRANCH  21  24
ATOM     24  C   UNL     1      -3.029   3.094   1.457  0.00  0.00    -0.081 C 
BRANCH  24  25
ATOM     25  C   UNL     1      -3.432   3.318   2.916  0.00  0.00    -0.008 C 
BRANCH  25  26
ATOM     26  C   UNL     1      -4.765   4.069   2.967  0.00  0.00    +0.075 C 
BRANCH  26  27
ATOM     27  S   UNL     1      -5.242   4.333   4.693  0.00  0.00    -0.084 S 
BRANCH  27  29
ATOM     28  N   UNL     1      -7.589   5.647   5.437  0.00  0.00    -0.187 N 
ATOM     29  C   UNL     1      -6.763   5.191   4.462  0.00  0.00    +0.214 A 
ATOM     30  N   UNL     1      -7.317   5.506   3.310  0.00  0.00    -0.101 NA
ATOM     31  N   UNL     1      -8.424   6.129   3.498  0.00  0.00    -0.022 NA
ATOM     32  N   UNL     1      -8.659   6.258   4.759  0.00  0.00    -0.038 NA
BRANCH  28  36
ATOM     33  C   UNL     1      -7.064   5.316   9.559  0.00  0.00    +0.000 A 
ATOM     34  C   UNL     1      -7.660   6.446   9.028  0.00  0.00    +0.002 A 
ATOM     35  C   UNL     1      -7.835   6.558   7.663  0.00  0.00    +0.028 A 
ATOM     36  C   UNL     1      -7.412   5.536   6.824  0.00  0.00    +0.070 A 
ATOM     37  C   UNL     1      -6.819   4.402   7.360  0.00  0.00    +0.028 A 
ATOM     38  C   UNL     1      -6.641   4.297   8.726  0.00  0.00    +0.002 A 
ENDBRANCH  28  36
ENDBRANCH  27  29
ENDBRANCH  26  27
ENDBRANCH  25  26
ENDBRANCH  24  25
ENDBRANCH  21  24
ENDBRANCH   1  21
TORSDOF 11
