REMARK  Name = ZINC09987591
REMARK  7 active torsions:
REMARK  status: ('A' for Active; 'I' for Inactive)
REMARK    1  A    between atoms: C_1  and  C_2
REMARK    2  A    between atoms: C_2  and  O_3
REMARK    3  A    between atoms: O_3  and  C_4
REMARK    4  A    between atoms: C_4  and  C_6
REMARK    5  A    between atoms: C_7  and  C_26
REMARK    6  A    between atoms: N_11  and  C_12
REMARK    7  A    between atoms: C_12  and  C_14
REMARK                            x       y       z     vdW  Elec       q    Type
REMARK                         _______ _______ _______ _____ _____    ______ ____
ROOT
ATOM      1  C   UNL     1      -2.843  -2.417   0.016  0.00  0.00    +0.118 A 
ATOM      2  C   UNL     1      -3.215  -3.725   0.018  0.00  0.00    +0.036 A 
ATOM      3  N   UNL     1      -4.534  -3.985   0.028  0.00  0.00    -0.339 N 
ATOM      4  H   UNL     1      -4.854  -4.901   0.030  0.00  0.00    +0.167 HD
ATOM      5  C   UNL     1      -5.418  -2.945   0.035  0.00  0.00    +0.164 A 
ATOM      6  N   UNL     1      -6.746  -2.992   0.045  0.00  0.00    -0.152 NA
ATOM      7  S   UNL     1      -4.423  -1.589   0.036  0.00  0.00    -0.046 S 
ATOM      8  C   UNL     1      -2.194  -4.833   0.010  0.00  0.00    +0.065 C 
ENDROOT
BRANCH   1   9
ATOM      9  C   UNL     1      -1.497  -1.838   0.006  0.00  0.00    +0.348 C 
ATOM     10  O   UNL     1      -0.523  -2.566  -0.007  0.00  0.00    -0.244 OA
BRANCH   9  11
ATOM     11  O   UNL     1      -1.339  -0.499   0.012  0.00  0.00    -0.461 OA
BRANCH  11  13
ATOM     12  C   UNL     1      -0.019   1.526   0.010  0.00  0.00    +0.048 C 
ATOM     13  C   UNL     1       0.002  -0.004   0.002  0.00  0.00    +0.229 C 
ENDBRANCH  11  13
ENDBRANCH   9  11
ENDBRANCH   1   9
BRANCH   6  14
ATOM     14  C   UNL     1      -7.456  -1.857   0.051  0.00  0.00    +0.278 C 
ATOM     15  O   UNL     1      -6.884  -0.779   0.047  0.00  0.00    -0.267 OA
BRANCH  14  16
ATOM     16  C   UNL     1      -8.928  -1.909   0.062  0.00  0.00    +0.095 A 
ATOM     17  C   UNL     1      -9.812  -0.877   0.064  0.00  0.00    +0.068 A 
ATOM     18  C   UNL     1     -11.196  -1.137   0.074  0.00  0.00    +0.008 A 
ATOM     19  C   UNL     1     -12.265  -0.205   0.078  0.00  0.00    +0.012 A 
ATOM     20  C   UNL     1     -13.555  -0.627   0.090  0.00  0.00    +0.021 A 
ATOM     21  C   UNL     1     -13.879  -1.980   0.098  0.00  0.00    +0.042 A 
ATOM     22  C   UNL     1     -12.868  -2.921   0.095  0.00  0.00    +0.035 A 
ATOM     23  C   UNL     1     -11.554  -2.506   0.083  0.00  0.00    +0.023 A 
ATOM     24  S   UNL     1      -9.989  -3.344   0.069  0.00  0.00    -0.082 S 
ATOM     25 CL   UNL     1     -15.541  -2.481   0.114  0.00  0.00    -0.084 Cl
ATOM     26 CL   UNL     1      -9.236   0.761   0.053  0.00  0.00    -0.082 Cl
ENDBRANCH  14  16
ENDBRANCH   6  14
TORSDOF 5
