REMARK  Name = ZINC64713732
REMARK  7 active torsions:
REMARK  status: ('A' for Active; 'I' for Inactive)
REMARK    1  A    between atoms: C_4  and  N_7
REMARK    2  A    between atoms: C_11  and  S_14
REMARK    3  A    between atoms: S_14  and  C_15
REMARK    4  A    between atoms: C_15  and  C_16
REMARK    5  A    between atoms: N_18  and  C_19
REMARK    6  A    between atoms: C_19  and  C_20
REMARK    7  A    between atoms: C_20  and  C_21
REMARK                            x       y       z     vdW  Elec       q    Type
REMARK                         _______ _______ _______ _____ _____    ______ ____
ROOT
ATOM      1  C   UNL     1       4.360  -4.693  -2.585  0.00  0.00    +0.167 C 
ENDROOT
BRANCH   1   2
ATOM      2  C   UNL     1       4.680  -5.461  -3.841  0.00  0.00    +0.223 C 
ATOM      3  O   UNL     1       5.029  -6.620  -3.770  0.00  0.00    -0.275 OA
ATOM      4  N   UNL     1       4.579  -4.860  -5.043  0.00  0.00    -0.314 N 
ATOM      5  H   UNL     1       4.300  -3.933  -5.100  0.00  0.00    +0.149 HD
BRANCH   4   6
ATOM      6  C   UNL     1       4.891  -5.607  -6.264  0.00  0.00    +0.108 C 
BRANCH   6   7
ATOM      7  C   UNL     1       4.697  -4.699  -7.481  0.00  0.00    +0.052 C 
BRANCH   7   8
ATOM      8  C   UNL     1       5.018  -5.468  -8.737  0.00  0.00    -0.040 C 
ATOM      9  C   UNL     1       4.143  -6.115  -9.540  0.00  0.00    -0.001 A 
ATOM     10  C   UNL     1       2.687  -6.292  -9.485  0.00  0.00    +0.010 A 
ATOM     11  C   UNL     1       2.077  -7.010 -10.455  0.00  0.00    +0.001 A 
ATOM     12  C   UNL     1       2.798  -7.589 -11.508  0.00  0.00    +0.002 A 
ATOM     13  C   UNL     1       4.138  -7.470 -11.626  0.00  0.00    +0.026 A 
ATOM     14  C   UNL     1       4.882  -6.736 -10.662  0.00  0.00    +0.043 A 
ATOM     15  N   UNL     1       6.164  -6.482 -10.558  0.00  0.00    -0.380 N 
ATOM     16  C   UNL     1       6.383  -5.665  -9.358  0.00  0.00    +0.144 C 
ATOM     17  H   UNL     1       6.852  -6.780 -11.172  0.00  0.00    +0.160 HD
ENDBRANCH   7   8
ENDBRANCH   6   7
ENDBRANCH   4   6
ENDBRANCH   1   2
BRANCH   1  18
ATOM     18  S   UNL     1       4.589  -5.769  -1.143  0.00  0.00    -0.117 S 
BRANCH  18  23
ATOM     19  N   UNL     1       3.620  -0.649  -0.036  0.00  0.00    -0.293 N 
ATOM     20  C   UNL     1       3.644  -2.035   0.061  0.00  0.00    +0.178 C 
ATOM     21  N   UNL     1       2.637  -2.853   0.077  0.00  0.00    -0.163 NA
ATOM     22  N   UNL     1       2.774  -4.219   0.177  0.00  0.00    -0.244 N 
ATOM     23  C   UNL     1       4.169  -4.708   0.268  0.00  0.00    +0.212 C 
ATOM     24  S   UNL     1       5.069  -3.105   0.185  0.00  0.00    -0.054 S 
ATOM     25  H   UNL     1       4.450  -0.154  -0.119  0.00  0.00    +0.154 HD
ATOM     26  H   UNL     1       2.012  -4.818   0.188  0.00  0.00    +0.170 HD
BRANCH  19  30
ATOM     27  C   UNL     1      -0.016   1.380   0.025  0.00  0.00    +0.000 A 
ATOM     28  C   UNL     1       0.089   0.135   0.617  0.00  0.00    +0.002 A 
ATOM     29  C   UNL     1       1.294  -0.541   0.599  0.00  0.00    +0.023 A 
ATOM     30  C   UNL     1       2.400   0.032  -0.016  0.00  0.00    +0.033 A 
ATOM     31  C   UNL     1       2.291   1.283  -0.610  0.00  0.00    +0.023 A 
ATOM     32  C   UNL     1       1.084   1.953  -0.588  0.00  0.00    +0.002 A 
ENDBRANCH  19  30
ENDBRANCH  18  23
ENDBRANCH   1  18
TORSDOF 7
