REMARK  Name = ZINC34998421
REMARK  12 active torsions:
REMARK  status: ('A' for Active; 'I' for Inactive)
REMARK    1  A    between atoms: C_1  and  C_2
REMARK    2  A    between atoms: C_2  and  C_3
REMARK    3  A    between atoms: C_3  and  C_4
REMARK    4  A    between atoms: C_4  and  N_5
REMARK    5  A    between atoms: C_13  and  C_15
REMARK    6  A    between atoms: C_16  and  C_18
REMARK    7  A    between atoms: C_18  and  C_20
REMARK    8  A    between atoms: C_18  and  N_23
REMARK    9  A    between atoms: C_20  and  C_21
REMARK   10  A    between atoms: C_20  and  C_22
REMARK   11  A    between atoms: N_23  and  S_24
REMARK   12  A    between atoms: S_24  and  C_27
REMARK                            x       y       z     vdW  Elec       q    Type
REMARK                         _______ _______ _______ _____ _____    ______ ____
ROOT
ATOM      1  N   UNL     1       3.172  -2.057  -2.215  0.00  0.00    -0.299 N 
ATOM      2  C   UNL     1       3.272  -3.393  -2.356  0.00  0.00    +0.303 C 
ATOM      3  O   UNL     1       3.150  -4.118  -1.387  0.00  0.00    -0.253 OA
ATOM      4  N   UNL     1       3.506  -3.927  -3.571  0.00  0.00    -0.280 N 
ATOM      5  C   UNL     1       3.764  -3.062  -4.731  0.00  0.00    +0.128 C 
ATOM      6  C   UNL     1       2.762  -3.413  -5.838  0.00  0.00    +0.127 C 
ATOM      7  N   UNL     1       2.764  -4.871  -6.027  0.00  0.00    -0.297 N 
ATOM      8  C   UNL     1       2.505  -5.736  -4.867  0.00  0.00    +0.130 C 
ATOM      9  C   UNL     1       3.513  -5.385  -3.759  0.00  0.00    +0.092 C 
ATOM     10  C   UNL     1       4.913  -5.843  -4.170  0.00  0.00    +0.030 C 
ATOM     11  C   UNL     1       2.998  -5.405  -7.242  0.00  0.00    +0.235 C 
ATOM     12  O   UNL     1       2.941  -6.606  -7.398  0.00  0.00    -0.274 OA
ATOM     13  H   UNL     1       3.338  -1.475  -2.973  0.00  0.00    +0.150 HD
ENDROOT
BRANCH   1  14
ATOM     14  C   UNL     1       2.814  -1.482  -0.916  0.00  0.00    +0.106 C 
BRANCH  14  15
ATOM     15  C   UNL     1       2.770   0.043  -1.027  0.00  0.00    +0.018 C 
BRANCH  15  17
ATOM     16  C   UNL     1       2.352   2.169   0.218  0.00  0.00    +0.004 C 
ATOM     17  C   UNL     1       2.396   0.643   0.329  0.00  0.00    -0.002 C 
ENDBRANCH  15  17
ENDBRANCH  14  15
ENDBRANCH   1  14
BRANCH  11  18
ATOM     18  C   UNL     1       3.330  -4.508  -8.407  0.00  0.00    +0.165 C 
BRANCH  18  19
ATOM     19  C   UNL     1       2.037  -3.968  -9.020  0.00  0.00    +0.010 C 
ATOM     20  C   UNL     1       2.376  -2.950 -10.111  0.00  0.00    +0.009 C 
ATOM     21  C   UNL     1       1.240  -5.123  -9.630  0.00  0.00    +0.009 C 
ENDBRANCH  18  19
BRANCH  18  22
ATOM     22  N   UNL     1       4.066  -5.273  -9.417  0.00  0.00    -0.178 NA
ATOM     23  H   UNL     1       3.694  -6.097  -9.769  0.00  0.00    +0.149 HD
BRANCH  22  24
ATOM     24  S   UNL     1       5.535  -4.731  -9.957  0.00  0.00    +0.059 S 
ATOM     25  O   UNL     1       6.044  -5.735 -10.825  0.00  0.00    -0.153 OA
ATOM     26  O   UNL     1       5.343  -3.387 -10.376  0.00  0.00    -0.153 OA
BRANCH  24  27
ATOM     27  C   UNL     1       6.614  -4.676  -8.565  0.00  0.00    +0.105 A 
ATOM     28  C   UNL     1       6.696  -3.527  -7.800  0.00  0.00    +0.029 A 
ATOM     29  C   UNL     1       7.542  -3.483  -6.708  0.00  0.00    +0.017 A 
ATOM     30  C   UNL     1       8.307  -4.589  -6.381  0.00  0.00    +0.018 A 
ATOM     31  C   UNL     1       8.224  -5.738  -7.146  0.00  0.00    +0.017 A 
ATOM     32  C   UNL     1       7.374  -5.783  -8.235  0.00  0.00    +0.029 A 
ATOM     33 BR   UNL     1       9.465  -4.529  -4.887  0.00  0.00    -0.050 Br
ENDBRANCH  24  27
ENDBRANCH  22  24
ENDBRANCH  18  22
ENDBRANCH  11  18
TORSDOF 8
