REMARK  Name = ZINC36645362
REMARK  12 active torsions:
REMARK  status: ('A' for Active; 'I' for Inactive)
REMARK    1  A    between atoms: C_1  and  C_2
REMARK    2  A    between atoms: C_4  and  C_34
REMARK    3  A    between atoms: N_11  and  C_12
REMARK    4  A    between atoms: C_12  and  C_13
REMARK    5  A    between atoms: C_13  and  C_14
REMARK    6  A    between atoms: C_14  and  N_15
REMARK    7  A    between atoms: N_15  and  C_16
REMARK    8  A    between atoms: N_15  and  C_17
REMARK    9  A    between atoms: C_18  and  C_20
REMARK   10  A    between atoms: C_20  and  N_21
REMARK   11  A    between atoms: N_28  and  C_33
REMARK   12  A    between atoms: N_31  and  C_32
REMARK                            x       y       z     vdW  Elec       q    Type
REMARK                         _______ _______ _______ _____ _____    ______ ____
ROOT
ATOM      1  C   UNL     1      -0.018   1.503   0.010  0.00  0.00    +0.044 C 
ATOM      2  C   UNL     1       0.002  -0.004   0.002  0.00  0.00    -0.048 A 
ATOM      3  C   UNL     1       0.005  -0.675  -1.212  0.00  0.00    +0.008 A 
ATOM      4  C   UNL     1       0.024  -2.058  -1.222  0.00  0.00    -0.034 A 
ATOM      5  C   UNL     1       0.039  -2.743  -0.033  0.00  0.00    +0.044 A 
ATOM      6  C   UNL     1       0.036  -2.094   1.223  0.00  0.00    +0.081 A 
ATOM      7  C   UNL     1       0.023  -0.680   1.194  0.00  0.00    +0.032 A 
ATOM      8  N   UNL     1       0.052  -2.906   2.302  0.00  0.00    -0.224 NA
ATOM      9  C   UNL     1       0.070  -4.214   2.200  0.00  0.00    +0.168 A 
ATOM     10  S   UNL     1       0.065  -4.459   0.429  0.00  0.00    -0.052 S 
ATOM     11  N   UNL     1       0.088  -5.164   3.208  0.00  0.00    -0.249 N 
ATOM     12  C   UNL     1       0.105  -6.476   2.898  0.00  0.00    +0.241 C 
ATOM     13  O   UNL     1       0.104  -6.824   1.736  0.00  0.00    -0.273 OA
ATOM     14  C   UNL     1       0.028  -2.807  -2.529  0.00  0.00    +0.045 C 
ENDROOT
BRANCH  11  15
ATOM     15  C   UNL     1       0.089  -4.743   4.611  0.00  0.00    +0.114 C 
BRANCH  15  16
ATOM     16  C   UNL     1      -1.353  -4.617   5.107  0.00  0.00    +0.001 C 
BRANCH  16  17
ATOM     17  C   UNL     1      -1.352  -4.177   6.572  0.00  0.00    -0.078 C 
BRANCH  17  18
ATOM     18  N   UNL     1      -2.737  -4.056   7.048  0.00  0.00    +0.376 N 
ATOM     19  C   UNL     1      -3.375  -5.378   7.040  0.00  0.00    -0.097 C 
ATOM     20  C   UNL     1      -2.739  -3.519   8.415  0.00  0.00    -0.097 C 
ATOM     21  H   UNL     1      -3.247  -3.432   6.441  0.00  0.00    -0.083 HD
ENDBRANCH  17  18
ENDBRANCH  16  17
ENDBRANCH  15  16
ENDBRANCH  11  15
BRANCH  12  22
ATOM     22  C   UNL     1       0.124  -7.509   3.995  0.00  0.00    +0.219 C 
BRANCH  22  23
ATOM     23  N   UNL     1       0.140  -8.849   3.403  0.00  0.00    -0.316 N 
ATOM     24  C   UNL     1      -0.929  -9.633   3.165  0.00  0.00    +0.202 A 
ATOM     25  N   UNL     1      -0.540 -10.761   2.629  0.00  0.00    -0.218 NA
ATOM     26  C   UNL     1       0.789 -10.763   2.494  0.00  0.00    +0.168 A 
ATOM     27  C   UNL     1       1.253  -9.546   2.977  0.00  0.00    +0.152 A 
ATOM     28  C   UNL     1       2.639  -9.278   2.948  0.00  0.00    +0.282 A 
ATOM     29  O   UNL     1       3.071  -8.220   3.369  0.00  0.00    -0.265 OA
ATOM     30  N   UNL     1       3.479 -10.208   2.449  0.00  0.00    -0.262 N 
ATOM     31  C   UNL     1       3.016 -11.380   1.981  0.00  0.00    +0.333 A 
ATOM     32  O   UNL     1       3.803 -12.194   1.539  0.00  0.00    -0.246 OA
ATOM     33  N   UNL     1       1.703 -11.678   1.998  0.00  0.00    -0.280 N 
ATOM     34  C   UNL     1       1.239 -12.966   1.478  0.00  0.00    +0.155 C 
ATOM     35  C   UNL     1       4.919  -9.936   2.415  0.00  0.00    +0.157 C 
ENDBRANCH  22  23
ENDBRANCH  12  22
TORSDOF 6
