REMARK  Name = ZINC40630135
REMARK  8 active torsions:
REMARK  status: ('A' for Active; 'I' for Inactive)
REMARK    1  A    between atoms: C_1  and  C_2
REMARK    2  A    between atoms: C_6  and  S_8
REMARK    3  A    between atoms: S_8  and  N_11
REMARK    4  A    between atoms: N_11  and  C_12
REMARK    5  A    between atoms: C_12  and  C_13
REMARK    6  A    between atoms: C_13  and  C_14
REMARK    7  A    between atoms: C_13  and  C_15
REMARK    8  A    between atoms: C_13  and  O_22
REMARK                            x       y       z     vdW  Elec       q    Type
REMARK                         _______ _______ _______ _____ _____    ______ ____
ROOT
ATOM      1  N   UNL     1       1.644  -3.200   3.123  0.00  0.00    -0.187 NA
ATOM      2  H   UNL     1       2.014  -4.096   3.154  0.00  0.00    +0.148 HD
ENDROOT
BRANCH   1   3
ATOM      3  S   UNL     1       0.057  -2.973   2.709  0.00  0.00    +0.059 S 
ATOM      4  O   UNL     1      -0.500  -2.110   3.691  0.00  0.00    -0.153 OA
ATOM      5  O   UNL     1      -0.479  -4.260   2.433  0.00  0.00    -0.153 OA
BRANCH   3  11
ATOM      6  C   UNL     1      -0.018   1.503   0.010  0.00  0.00    +0.044 C 
ATOM      7  C   UNL     1       0.002  -0.004   0.002  0.00  0.00    -0.049 A 
ATOM      8  C   UNL     1       0.006  -0.689  -1.199  0.00  0.00    +0.003 A 
ATOM      9  C   UNL     1       0.025  -2.071  -1.207  0.00  0.00    +0.002 A 
ATOM     10  C   UNL     1       0.040  -2.768  -0.013  0.00  0.00    +0.028 A 
ATOM     11  C   UNL     1       0.037  -2.084   1.188  0.00  0.00    +0.105 A 
ATOM     12  C   UNL     1       0.023  -0.702   1.195  0.00  0.00    +0.032 A 
ENDBRANCH   3  11
ENDBRANCH   1   3
BRANCH   1  13
ATOM     13  C   UNL     1       2.489  -2.047   3.444  0.00  0.00    +0.145 C 
BRANCH  13  14
ATOM     14  C   UNL     1       3.763  -2.527   4.141  0.00  0.00    +0.102 C 
ATOM     15  C   UNL     1       3.390  -3.368   5.364  0.00  0.00    +0.048 C 
BRANCH  14  16
ATOM     16  C   UNL     1       4.575  -1.336   4.581  0.00  0.00    -0.015 A 
ATOM     17  C   UNL     1       3.941  -0.154   4.919  0.00  0.00    +0.007 A 
ATOM     18  C   UNL     1       4.684   0.938   5.322  0.00  0.00    +0.015 A 
ATOM     19  C   UNL     1       6.063   0.850   5.388  0.00  0.00    +0.018 A 
ATOM     20  C   UNL     1       6.697  -0.332   5.050  0.00  0.00    +0.015 A 
ATOM     21  C   UNL     1       5.952  -1.426   4.652  0.00  0.00    +0.007 A 
ATOM     22 BR   UNL     1       7.082   2.345   5.940  0.00  0.00    -0.050 Br
ENDBRANCH  14  16
BRANCH  14  23
ATOM     23  O   UNL     1       4.533  -3.319   3.235  0.00  0.00    -0.383 OA
ATOM     24  H   UNL     1       4.805  -2.849   2.435  0.00  0.00    +0.211 HD
ENDBRANCH  14  23
ENDBRANCH  13  14
ENDBRANCH   1  13
TORSDOF 6
