REMARK  Name = ZINC08490857
REMARK  8 active torsions:
REMARK  status: ('A' for Active; 'I' for Inactive)
REMARK    1  A    between atoms: C_1  and  C_2
REMARK    2  A    between atoms: C_6  and  C_8
REMARK    3  A    between atoms: N_10  and  C_11
REMARK    4  A    between atoms: C_11  and  C_13
REMARK    5  A    between atoms: C_11  and  C_14
REMARK    6  A    between atoms: N_16  and  C_17
REMARK    7  A    between atoms: C_17  and  C_19
REMARK    8  A    between atoms: C_17  and  C_20
REMARK                            x       y       z     vdW  Elec       q    Type
REMARK                         _______ _______ _______ _____ _____    ______ ____
ROOT
ATOM      1  C   UNL     1      -4.165   4.687   0.065  0.00  0.00    +0.263 C 
ATOM      2  O   UNL     1      -3.879   5.869   0.069  0.00  0.00    -0.269 OA
ATOM      3  N   UNL     1      -5.458   4.308   0.076  0.00  0.00    -0.299 N 
ATOM      4  H   UNL     1      -5.718   3.239   0.073  0.00  0.00    +0.150 HD
ENDROOT
BRANCH   1  10
ATOM      5  C   UNL     1      -2.947  -0.018   0.029  0.00  0.00    +0.068 C 
ATOM      6  C   UNL     1      -2.513   1.425   0.033  0.00  0.00    +0.063 A 
ATOM      7  C   UNL     1      -1.153   1.736   0.016  0.00  0.00    +0.069 A 
ATOM      8  C   UNL     1      -0.771   3.090   0.025  0.00  0.00    +0.011 A 
ATOM      9  C   UNL     1      -1.763   4.068   0.039  0.00  0.00    +0.043 A 
ATOM     10  C   UNL     1      -3.095   3.667   0.050  0.00  0.00    +0.126 A 
ATOM     11  N   UNL     1      -3.418   2.375   0.046  0.00  0.00    -0.245 NA
ATOM     12  C   UNL     1       0.700   3.112   0.011  0.00  0.00    +0.008 A 
ATOM     13  C   UNL     1       1.647   4.133   0.007  0.00  0.00    +0.010 A 
ATOM     14  C   UNL     1       2.989   3.823  -0.007  0.00  0.00    +0.001 A 
ATOM     15  C   UNL     1       3.400   2.499  -0.017  0.00  0.00    +0.002 A 
ATOM     16  C   UNL     1       2.474   1.478  -0.013  0.00  0.00    +0.026 A 
ATOM     17  C   UNL     1       1.114   1.770   0.001  0.00  0.00    +0.048 A 
ATOM     18  N   UNL     1      -0.011   0.966   0.007  0.00  0.00    -0.353 N 
ATOM     19  H   UNL     1      -0.088  -0.132   0.006  0.00  0.00    +0.166 HD
ENDBRANCH   1  10
BRANCH   3  20
ATOM     20  C   UNL     1      -6.519   5.319   0.091  0.00  0.00    +0.156 C 
ATOM     21  C   UNL     1      -6.815   5.769  -1.341  0.00  0.00    +0.038 C 
BRANCH  20  22
ATOM     22  C   UNL     1      -7.765   4.730   0.701  0.00  0.00    +0.234 C 
ATOM     23  O   UNL     1      -7.767   3.579   1.084  0.00  0.00    -0.274 OA
ATOM     24  N   UNL     1      -8.877   5.482   0.820  0.00  0.00    -0.307 N 
ATOM     25  H   UNL     1      -8.875   6.526   0.472  0.00  0.00    +0.149 HD
BRANCH  24  26
ATOM     26  C   UNL     1     -10.089   4.910   1.412  0.00  0.00    +0.100 C 
ATOM     27  C   UNL     1     -10.882   4.169   0.334  0.00  0.00    +0.033 C 
BRANCH  26  28
ATOM     28  C   UNL     1     -10.936   6.015   1.989  0.00  0.00    -0.027 A 
ATOM     29  C   UNL     1     -11.061   7.214   1.313  0.00  0.00    +0.005 A 
ATOM     30  C   UNL     1     -11.842   8.226   1.840  0.00  0.00    +0.000 A 
ATOM     31  C   UNL     1     -12.489   8.042   3.048  0.00  0.00    +0.000 A 
ATOM     32  C   UNL     1     -12.359   6.845   3.726  0.00  0.00    +0.000 A 
ATOM     33  C   UNL     1     -11.582   5.831   3.197  0.00  0.00    +0.005 A 
ENDBRANCH  26  28
ENDBRANCH  24  26
ENDBRANCH  20  22
ENDBRANCH   3  20
TORSDOF 5
