REMARK  Name = ZINC36044222
REMARK  4 active torsions:
REMARK  status: ('A' for Active; 'I' for Inactive)
REMARK    1  A    between atoms: C_1  and  C_2
REMARK    2  A    between atoms: C_4  and  O_37
REMARK    3  A    between atoms: C_8  and  C_31
REMARK    4  A    between atoms: C_23  and  C_25
REMARK                            x       y       z     vdW  Elec       q    Type
REMARK                         _______ _______ _______ _____ _____    ______ ____
ROOT
ATOM      1  C   UNL     1      -0.361   1.217  -0.074  0.00  0.00    +0.044 C 
ATOM      2  C   UNL     1      -0.334  -0.281   0.087  0.00  0.00    -0.040 A 
ATOM      3  C   UNL     1      -0.594  -1.093  -1.000  0.00  0.00    +0.049 A 
ATOM      4  C   UNL     1      -0.571  -2.472  -0.855  0.00  0.00    +0.121 A 
ATOM      5  C   UNL     1      -0.290  -3.030   0.382  0.00  0.00    +0.091 A 
ATOM      6  C   UNL     1      -0.030  -2.212   1.475  0.00  0.00    +0.131 A 
ATOM      7  C   UNL     1      -0.042  -0.836   1.322  0.00  0.00    +0.005 A 
ATOM      8  C   UNL     1       0.261   0.084   2.476  0.00  0.00    +0.061 C 
ATOM      9  C   UNL     1       0.117  -0.672   3.801  0.00  0.00    +0.064 C 
ATOM     10  C   UNL     1       0.748   0.169   4.917  0.00  0.00    +0.010 C 
ATOM     11  C   UNL     1       2.205   0.463   4.552  0.00  0.00    +0.001 C 
ATOM     12  C   UNL     1       2.974  -0.851   4.423  0.00  0.00    +0.011 C 
ATOM     13  C   UNL     1       2.343  -1.720   3.331  0.00  0.00    +0.077 C 
ATOM     14  C   UNL     1       0.863  -2.004   3.682  0.00  0.00    +0.186 C 
ATOM     15  O   UNL     1       0.231  -2.795   2.673  0.00  0.00    -0.467 OA
ATOM     16  N   UNL     1       0.812  -2.717   4.960  0.00  0.00    -0.289 N 
ATOM     17  C   UNL     1       1.797  -3.554   5.321  0.00  0.00    +0.134 C 
ATOM     18  S   UNL     1       1.671  -4.375   6.819  0.00  0.00    -0.019 S 
ATOM     19  N   UNL     1       2.876  -3.773   4.555  0.00  0.00    -0.319 N 
ATOM     20  C   UNL     1       3.081  -3.067   3.289  0.00  0.00    +0.111 C 
ATOM     21  H   UNL     1       0.056  -2.583   5.553  0.00  0.00    +0.151 HD
ATOM     22  H   UNL     1       3.558  -4.392   4.862  0.00  0.00    +0.148 HD
ENDROOT
BRANCH  20  23
ATOM     23  C   UNL     1       4.547  -2.831   3.036  0.00  0.00    -0.027 A 
ATOM     24  C   UNL     1       5.377  -2.456   4.076  0.00  0.00    +0.005 A 
ATOM     25  C   UNL     1       6.722  -2.240   3.844  0.00  0.00    +0.000 A 
ATOM     26  C   UNL     1       7.238  -2.399   2.572  0.00  0.00    +0.000 A 
ATOM     27  C   UNL     1       6.409  -2.775   1.532  0.00  0.00    +0.000 A 
ATOM     28  C   UNL     1       5.064  -2.995   1.765  0.00  0.00    +0.005 A 
ENDBRANCH  20  23
BRANCH   8  29
ATOM     29  C   UNL     1      -0.702   1.244   2.457  0.00  0.00    -0.039 A 
ATOM     30  C   UNL     1      -2.064   1.011   2.455  0.00  0.00    +0.004 A 
ATOM     31  C   UNL     1      -2.947   2.075   2.437  0.00  0.00    +0.000 A 
ATOM     32  C   UNL     1      -2.467   3.371   2.423  0.00  0.00    +0.000 A 
ATOM     33  C   UNL     1      -1.104   3.604   2.426  0.00  0.00    +0.000 A 
ATOM     34  C   UNL     1      -0.222   2.540   2.448  0.00  0.00    +0.004 A 
ENDBRANCH   8  29
BRANCH   4  35
ATOM     35  O   UNL     1      -0.824  -3.274  -1.922  0.00  0.00    -0.507 OA
ATOM     36  H   UNL     1      -0.037  -3.513  -2.430  0.00  0.00    +0.292 HD
ENDBRANCH   4  35
TORSDOF 3
