REMARK  Name = ZINC16032951
REMARK  6 active torsions:
REMARK  status: ('A' for Active; 'I' for Inactive)
REMARK    1  A    between atoms: C_1  and  C_2
REMARK    2  A    between atoms: C_13  and  C_16
REMARK    3  A    between atoms: C_16  and  C_17
REMARK    4  A    between atoms: N_25  and  C_28
REMARK    5  A    between atoms: C_28  and  C_29
REMARK    6  A    between atoms: C_29  and  C_30
REMARK                            x       y       z     vdW  Elec       q    Type
REMARK                         _______ _______ _______ _____ _____    ______ ____
ROOT
ATOM      1  C   UNL     1      -0.018   1.503   0.010  0.00  0.00    +0.044 C 
ATOM      2  C   UNL     1       0.002  -0.004   0.002  0.00  0.00    -0.050 A 
ATOM      3  C   UNL     1       0.006  -0.691  -1.199  0.00  0.00    +0.005 A 
ATOM      4  C   UNL     1       0.024  -2.070  -1.212  0.00  0.00    +0.024 A 
ATOM      5  C   UNL     1       0.040  -2.782  -0.015  0.00  0.00    +0.039 A 
ATOM      6  C   UNL     1       0.037  -2.081   1.187  0.00  0.00    +0.004 A 
ATOM      7  C   UNL     1       0.023  -0.704   1.195  0.00  0.00    +0.011 A 
ATOM      8  C   UNL     1       0.061  -3.122   2.270  0.00  0.00    +0.136 C 
ATOM      9  C   UNL     1      -1.156  -3.005   3.194  0.00  0.00    +0.122 C 
ATOM     10  C   UNL     1      -0.634  -2.227   4.435  0.00  0.00    +0.107 C 
ATOM     11  C   UNL     1       0.852  -1.945   4.127  0.00  0.00    +0.072 C 
ATOM     12  N   UNL     1       1.245  -2.973   3.137  0.00  0.00    -0.295 NA
ATOM     13  C   UNL     1      -1.419  -0.936   4.392  0.00  0.00    +0.227 C 
ATOM     14  O   UNL     1      -1.321  -0.030   5.192  0.00  0.00    -0.275 OA
ATOM     15  N   UNL     1      -2.237  -0.948   3.333  0.00  0.00    -0.241 N 
ATOM     16  C   UNL     1      -2.176  -2.072   2.584  0.00  0.00    +0.228 C 
ATOM     17  O   UNL     1      -2.826  -2.300   1.586  0.00  0.00    -0.275 OA
ATOM     18  C   UNL     1       0.075  -4.440   1.545  0.00  0.00    +0.243 C 
ATOM     19  O   UNL     1       0.095  -5.543   2.048  0.00  0.00    -0.273 OA
ATOM     20  N   UNL     1       0.060  -4.157   0.228  0.00  0.00    -0.283 N 
ATOM     21  H   UNL     1       1.465  -3.842   3.601  0.00  0.00    +0.124 HD
ATOM     22  H   UNL     1       0.063  -4.830  -0.470  0.00  0.00    +0.155 HD
ENDROOT
BRANCH  11  23
ATOM     23  C   UNL     1       1.691  -2.059   5.402  0.00  0.00    +0.054 C 
BRANCH  23  24
ATOM     24  C   UNL     1       3.114  -1.661   5.104  0.00  0.00    -0.046 A 
ATOM     25  C   UNL     1       4.026  -2.613   4.689  0.00  0.00    +0.004 A 
ATOM     26  C   UNL     1       5.331  -2.247   4.416  0.00  0.00    +0.000 A 
ATOM     27  C   UNL     1       5.723  -0.930   4.558  0.00  0.00    +0.000 A 
ATOM     28  C   UNL     1       4.811   0.023   4.972  0.00  0.00    +0.000 A 
ATOM     29  C   UNL     1       3.505  -0.342   5.241  0.00  0.00    +0.004 A 
ENDBRANCH  23  24
ENDBRANCH  11  23
BRANCH  15  30
ATOM     30  C   UNL     1      -3.134   0.166   3.013  0.00  0.00    +0.121 C 
BRANCH  30  31
ATOM     31  C   UNL     1      -2.412   1.154   2.095  0.00  0.00    +0.054 C 
BRANCH  31  32
ATOM     32  C   UNL     1      -3.335   2.299   1.765  0.00  0.00    -0.046 A 
ATOM     33  C   UNL     1      -4.162   2.224   0.659  0.00  0.00    +0.004 A 
ATOM     34  C   UNL     1      -5.008   3.274   0.357  0.00  0.00    +0.000 A 
ATOM     35  C   UNL     1      -5.028   4.399   1.160  0.00  0.00    +0.000 A 
ATOM     36  C   UNL     1      -4.202   4.474   2.266  0.00  0.00    +0.000 A 
ATOM     37  C   UNL     1      -3.359   3.422   2.571  0.00  0.00    +0.004 A 
ENDBRANCH  31  32
ENDBRANCH  30  31
ENDBRANCH  15  30
TORSDOF 5
