REMARK  Name = ZINC64622227
REMARK  10 active torsions:
REMARK  status: ('A' for Active; 'I' for Inactive)
REMARK    1  A    between atoms: C_1  and  C_2
REMARK    2  A    between atoms: C_2  and  N_3
REMARK    3  A    between atoms: N_3  and  C_4
REMARK    4  A    between atoms: N_3  and  S_6
REMARK    5  A    between atoms: C_4  and  C_5
REMARK    6  A    between atoms: S_6  and  C_9
REMARK    7  A    between atoms: C_11  and  C_33
REMARK    8  A    between atoms: C_20  and  C_22
REMARK    9  A    between atoms: C_33  and  O_35
REMARK   10  A    between atoms: O_35  and  C_36
REMARK                            x       y       z     vdW  Elec       q    Type
REMARK                         _______ _______ _______ _____ _____    ______ ____
ROOT
ATOM      1  C   UNL     1      -0.888   0.452  -2.627  0.00  0.00    +0.243 C 
ATOM      2  C   UNL     1      -1.820   0.181  -3.792  0.00  0.00    +0.072 C 
ATOM      3  C   UNL     1      -2.897   0.919  -3.929  0.00  0.00    -0.041 C 
ATOM      4  C   UNL     1      -3.856   0.834  -5.116  0.00  0.00    +0.051 C 
ATOM      5  C   UNL     1      -5.081   1.688  -4.772  0.00  0.00    +0.112 C 
ATOM      6  N   UNL     1      -4.671   3.050  -4.419  0.00  0.00    -0.298 N 
ATOM      7  C   UNL     1      -3.458   3.286  -3.623  0.00  0.00    +0.126 C 
ATOM      8  C   UNL     1      -3.146   1.993  -2.862  0.00  0.00    +0.092 C 
ATOM      9  S   UNL     1      -1.488   2.108  -2.075  0.00  0.00    -0.119 S 
ATOM     10  C   UNL     1      -5.415   4.098  -4.828  0.00  0.00    +0.242 C 
ATOM     11  O   UNL     1      -5.034   5.230  -4.619  0.00  0.00    -0.273 OA
ENDROOT
BRANCH  10  12
ATOM     12  C   UNL     1      -6.720   3.862  -5.544  0.00  0.00    +0.190 C 
ATOM     13  C   UNL     1      -6.462   3.325  -6.934  0.00  0.00    +0.016 C 
ATOM     14  C   UNL     1      -6.991   4.230  -7.789  0.00  0.00    -0.001 A 
ATOM     15  C   UNL     1      -7.066   4.288  -9.254  0.00  0.00    +0.048 A 
ATOM     16  C   UNL     1      -7.674   5.347  -9.838  0.00  0.00    +0.124 A 
ATOM     17  C   UNL     1      -8.231   6.389  -9.080  0.00  0.00    +0.040 A 
ATOM     18  C   UNL     1      -8.200   6.404  -7.731  0.00  0.00    +0.029 A 
ATOM     19  C   UNL     1      -7.587   5.341  -7.013  0.00  0.00    +0.043 A 
ATOM     20  N   UNL     1      -7.433   5.131  -5.726  0.00  0.00    -0.370 N 
ATOM     21  F   UNL     1      -7.744   5.404 -11.187  0.00  0.00    -0.205 F 
ATOM     22  H   UNL     1      -7.739   5.715  -5.015  0.00  0.00    +0.161 HD
ENDBRANCH  10  12
BRANCH   1  23
ATOM     23  S   UNL     1      -1.097  -0.788  -1.319  0.00  0.00    +0.048 S 
ATOM     24  O   UNL     1      -0.641  -2.056  -1.770  0.00  0.00    -0.157 OA
ATOM     25  O   UNL     1      -2.375  -0.651  -0.714  0.00  0.00    -0.157 OA
BRANCH  23  26
ATOM     26  N   UNL     1      -0.021  -0.348  -0.139  0.00  0.00    -0.180 NA
BRANCH  26  28
ATOM     27  C   UNL     1      -0.343   1.854   0.874  0.00  0.00    +0.022 C 
ATOM     28  C   UNL     1      -0.494   0.344   1.062  0.00  0.00    +0.106 C 
ENDBRANCH  26  28
BRANCH  26  29
ATOM     29  C   UNL     1       1.403  -0.651  -0.297  0.00  0.00    +0.106 C 
ATOM     30  C   UNL     1       1.726  -1.968   0.411  0.00  0.00    +0.022 C 
ENDBRANCH  26  29
ENDBRANCH  23  26
ENDBRANCH   1  23
BRANCH   2  31
ATOM     31  C   UNL     1      -1.522  -0.891  -4.753  0.00  0.00    +0.338 C 
ATOM     32  O   UNL     1      -2.276  -1.099  -5.683  0.00  0.00    -0.245 OA
BRANCH  31  33
ATOM     33  O   UNL     1      -0.413  -1.642  -4.602  0.00  0.00    -0.465 OA
ATOM     34  C   UNL     1      -0.186  -2.665  -5.573  0.00  0.00    +0.280 C 
ENDBRANCH  31  33
ENDBRANCH   2  31
TORSDOF 7
