REMARK  Name = ZINC14457504
REMARK  9 active torsions:
REMARK  status: ('A' for Active; 'I' for Inactive)
REMARK    1  A    between atoms: C_1  and  C_2
REMARK    2  A    between atoms: C_2  and  C_3
REMARK    3  A    between atoms: C_2  and  C_4
REMARK    4  A    between atoms: C_2  and  N_5
REMARK    5  A    between atoms: C_6  and  C_8
REMARK    6  A    between atoms: C_21  and  C_24
REMARK    7  A    between atoms: C_27  and  O_31
REMARK    8  A    between atoms: C_28  and  O_30
REMARK    9  A    between atoms: O_31  and  C_32
REMARK                            x       y       z     vdW  Elec       q    Type
REMARK                         _______ _______ _______ _____ _____    ______ ____
ROOT
ATOM      1  C   UNL     1       0.120   1.800   0.072  0.00  0.00    +0.037 A 
ATOM      2  C   UNL     1       0.021   0.405   0.072  0.00  0.00    +0.015 A 
ATOM      3  C   UNL     1       1.166  -0.357   0.042  0.00  0.00    +0.024 A 
ATOM      4  C   UNL     1       2.416   0.257   0.012  0.00  0.00    +0.031 A 
ATOM      5  C   UNL     1       2.526   1.642   0.014  0.00  0.00    -0.019 A 
ATOM      6  C   UNL     1       1.375   2.409   0.043  0.00  0.00    +0.019 A 
ATOM      7  C   UNL     1       3.839   2.332   0.003  0.00  0.00    +0.049 C 
ATOM      8  C   UNL     1       4.134   2.927  -1.377  0.00  0.00    -0.023 C 
ATOM      9  C   UNL     1       5.410   2.826  -1.657  0.00  0.00    -0.030 C 
ATOM     10  C   UNL     1       6.154   2.162  -0.515  0.00  0.00    +0.033 C 
ATOM     11  C   UNL     1       5.035   1.390   0.244  0.00  0.00    +0.029 C 
ATOM     12  C   UNL     1       4.813   0.066  -0.493  0.00  0.00    +0.105 C 
ATOM     13  N   UNL     1       3.561  -0.536  -0.022  0.00  0.00    -0.336 N 
ATOM     14  H   UNL     1       3.532  -1.464   0.260  0.00  0.00    +0.147 HD
ENDROOT
BRANCH  12  15
ATOM     15  C   UNL     1       4.722   0.323  -1.975  0.00  0.00    -0.023 A 
ATOM     16  C   UNL     1       3.497   0.593  -2.555  0.00  0.00    +0.009 A 
ATOM     17  C   UNL     1       3.409   0.834  -3.913  0.00  0.00    +0.050 A 
ATOM     18  C   UNL     1       4.550   0.795  -4.699  0.00  0.00    +0.161 A 
ATOM     19  C   UNL     1       5.783   0.518  -4.116  0.00  0.00    +0.159 A 
ATOM     20  C   UNL     1       5.864   0.282  -2.753  0.00  0.00    +0.054 A 
BRANCH  19  21
ATOM     21  O   UNL     1       6.906   0.479  -4.883  0.00  0.00    -0.503 OA
ATOM     22  H   UNL     1       7.104  -0.395  -5.246  0.00  0.00    +0.292 HD
ENDBRANCH  19  21
BRANCH  18  23
ATOM     23  O   UNL     1       4.465   1.027  -6.036  0.00  0.00    -0.491 OA
ATOM     24  C   UNL     1       3.167   1.305  -6.565  0.00  0.00    +0.277 C 
ENDBRANCH  18  23
ENDBRANCH  12  15
BRANCH   1  26
ATOM     25  N   UNL     1      -2.313   2.037   0.118  0.00  0.00    -0.307 N 
ATOM     26  C   UNL     1      -1.101   2.626   0.096  0.00  0.00    +0.244 C 
ATOM     27  O   UNL     1      -1.014   3.839   0.096  0.00  0.00    -0.270 OA
ATOM     28  H   UNL     1      -2.382   1.070   0.118  0.00  0.00    +0.150 HD
BRANCH  25  30
ATOM     29  C   UNL     1      -3.568   3.743  -1.105  0.00  0.00    +0.031 C 
ATOM     30  C   UNL     1      -3.526   2.858   0.143  0.00  0.00    +0.026 C 
ATOM     31  C   UNL     1      -4.757   1.949   0.165  0.00  0.00    +0.031 C 
ATOM     32  C   UNL     1      -3.521   3.740   1.393  0.00  0.00    +0.031 C 
ENDBRANCH  25  30
ENDBRANCH   1  26
TORSDOF 5
