REMARK  Name = ZINC58894969
REMARK  16 active torsions:
REMARK  status: ('A' for Active; 'I' for Inactive)
REMARK    1  A    between atoms: C_1  and  C_2
REMARK    2  A    between atoms: C_2  and  O_3
REMARK    3  A    between atoms: O_3  and  C_4
REMARK    4  A    between atoms: C_7  and  C_10
REMARK    5  A    between atoms: C_10  and  C_12
REMARK    6  A    between atoms: C_10  and  O_33
REMARK    7  A    between atoms: C_12  and  C_13
REMARK    8  A    between atoms: C_13  and  C_14
REMARK    9  A    between atoms: N_16  and  N_17
REMARK   10  A    between atoms: C_18  and  C_19
REMARK   11  A    between atoms: C_21  and  O_30
REMARK   12  A    between atoms: C_22  and  O_26
REMARK   13  A    between atoms: O_26  and  C_27
REMARK   14  A    between atoms: C_27  and  C_28
REMARK   15  A    between atoms: O_30  and  C_31
REMARK   16  A    between atoms: C_31  and  C_32
REMARK                            x       y       z     vdW  Elec       q    Type
REMARK                         _______ _______ _______ _____ _____    ______ ____
ROOT
ATOM      1  C   UNL     1       3.647  -8.567  -0.228  0.00  0.00    +0.232 C 
ATOM      2  O   UNL     1       4.523  -7.734  -0.330  0.00  0.00    -0.274 OA
ATOM      3  N   UNL     1       3.966  -9.873  -0.132  0.00  0.00    -0.207 N 
ATOM      4  H   UNL     1       3.265 -10.539  -0.050  0.00  0.00    +0.177 HD
ENDROOT
BRANCH   3   5
ATOM      5  N   UNL     1       5.310 -10.269  -0.148  0.00  0.00    -0.188 NA
ATOM      6  C   UNL     1       5.615 -11.530  -0.175  0.00  0.00    +0.138 C 
BRANCH   6   7
ATOM      7  C   UNL     1       4.630 -12.516  -0.656  0.00  0.00    -0.001 A 
ATOM      8  C   UNL     1       4.832 -13.879  -0.422  0.00  0.00    +0.059 A 
ATOM      9  C   UNL     1       3.907 -14.800  -0.876  0.00  0.00    +0.164 A 
ATOM     10  C   UNL     1       2.775 -14.369  -1.565  0.00  0.00    +0.177 A 
ATOM     11  C   UNL     1       2.574 -13.016  -1.797  0.00  0.00    +0.064 A 
ATOM     12  C   UNL     1       3.490 -12.090  -1.342  0.00  0.00    +0.028 A 
ATOM     13 BR   UNL     1       1.035 -12.438  -2.733  0.00  0.00    -0.046 Br
BRANCH  10  14
ATOM     14  O   UNL     1       1.866 -15.276  -2.011  0.00  0.00    -0.473 OA
BRANCH  14  15
ATOM     15  C   UNL     1       0.799 -15.615  -1.123  0.00  0.00    +0.347 C 
BRANCH  15  16
ATOM     16  C   UNL     1      -0.081 -16.604  -1.768  0.00  0.00    +0.104 C 
ATOM     17  N   UNL     1      -0.760 -17.366  -2.267  0.00  0.00    -0.193 NA
ENDBRANCH  15  16
ENDBRANCH  14  15
ENDBRANCH  10  14
BRANCH   9  18
ATOM     18  O   UNL     1       4.101 -16.127  -0.650  0.00  0.00    -0.489 OA
BRANCH  18  19
ATOM     19  C   UNL     1       5.283 -16.498   0.062  0.00  0.00    +0.226 C 
ATOM     20  C   UNL     1       5.328 -18.019   0.219  0.00  0.00    +0.048 C 
ENDBRANCH  18  19
ENDBRANCH   9  18
ENDBRANCH   6   7
ENDBRANCH   3   5
BRANCH   1  21
ATOM     21  C   UNL     1       2.201  -8.141  -0.210  0.00  0.00    +0.100 C 
BRANCH  21  22
ATOM     22  C   UNL     1       2.117  -6.619  -0.334  0.00  0.00    +0.045 C 
BRANCH  22  23
ATOM     23  C   UNL     1       0.649  -6.186  -0.315  0.00  0.00    +0.145 C 
BRANCH  23  27
ATOM     24  C   UNL     1       0.421  -1.919  -0.309  0.00  0.00    +0.121 A 
ATOM     25  C   UNL     1       0.369  -2.619   0.887  0.00  0.00    +0.046 A 
ATOM     26  C   UNL     1       0.442  -3.999   0.882  0.00  0.00    +0.010 A 
ATOM     27  C   UNL     1       0.569  -4.682  -0.313  0.00  0.00    -0.019 A 
ATOM     28  C   UNL     1       0.622  -3.986  -1.507  0.00  0.00    +0.010 A 
ATOM     29  C   UNL     1       0.542  -2.607  -1.508  0.00  0.00    +0.046 A 
BRANCH  24  30
ATOM     30  O   UNL     1       0.349  -0.562  -0.307  0.00  0.00    -0.492 OA
BRANCH  30  32
ATOM     31  C   UNL     1       0.158   1.595   0.766  0.00  0.00    +0.048 C 
ATOM     32  C   UNL     1       0.225   0.079   0.964  0.00  0.00    +0.225 C 
ENDBRANCH  30  32
ENDBRANCH  24  30
ENDBRANCH  23  27
BRANCH  23  33
ATOM     33  O   UNL     1      -0.012  -6.697  -1.474  0.00  0.00    -0.387 OA
ATOM     34  H   UNL     1       0.365  -6.390  -2.310  0.00  0.00    +0.210 HD
ENDBRANCH  23  33
ENDBRANCH  22  23
ENDBRANCH  21  22
ENDBRANCH   1  21
TORSDOF 14
