REMARK  Name = ZINC00909134
REMARK  10 active torsions:
REMARK  status: ('A' for Active; 'I' for Inactive)
REMARK    1  A    between atoms: C_1  and  C_2
REMARK    2  A    between atoms: C_2  and  C_3
REMARK    3  A    between atoms: C_3  and  C_4
REMARK    4  A    between atoms: C_3  and  C_5
REMARK    5  A    between atoms: C_3  and  N_6
REMARK    6  A    between atoms: C_7  and  C_11
REMARK    7  A    between atoms: C_11  and  C_13
REMARK    8  A    between atoms: C_11  and  N_62
REMARK    9  A    between atoms: C_18  and  C_26
REMARK   10  A    between atoms: C_19  and  C_25
REMARK                            x       y       z     vdW  Elec       q    Type
REMARK                         _______ _______ _______ _____ _____    ______ ____
ROOT
ATOM      1  C   UNL     1       1.716   3.153  -0.102  0.00  0.00    +0.039 C 
ENDROOT
BRANCH   1   2
ATOM      2  C   UNL     1       1.663   3.763   1.275  0.00  0.00    +0.011 A 
ATOM      3  C   UNL     1       2.811   4.138   1.892  0.00  0.00    +0.017 A 
ATOM      4  C   UNL     1       2.725   4.728   3.230  0.00  0.00    -0.001 A 
ATOM      5  C   UNL     1       3.874   5.134   3.916  0.00  0.00    +0.010 A 
ATOM      6  C   UNL     1       3.761   5.681   5.162  0.00  0.00    +0.004 A 
ATOM      7  C   UNL     1       2.515   5.837   5.755  0.00  0.00    -0.046 A 
ATOM      8  C   UNL     1       1.369   5.442   5.098  0.00  0.00    -0.024 A 
ATOM      9  C   UNL     1       1.460   4.884   3.827  0.00  0.00    +0.052 A 
ATOM     10  N   UNL     1       0.331   4.482   3.146  0.00  0.00    -0.322 N 
ATOM     11  H   UNL     1      -0.567   4.590   3.573  0.00  0.00    +0.169 HD
ATOM     12  C   UNL     1       0.419   3.946   1.915  0.00  0.00    +0.251 A 
ATOM     13  O   UNL     1      -0.601   3.607   1.341  0.00  0.00    -0.268 OA
ATOM     14  C   UNL     1       0.023   5.616   5.753  0.00  0.00    +0.046 C 
ATOM     15  C   UNL     1       2.414   6.442   7.131  0.00  0.00    +0.044 C 
ENDBRANCH   1   2
BRANCH   1  21
ATOM     16  C   UNL     1       0.800   3.295  -2.338  0.00  0.00    -0.077 C 
ATOM     17  C   UNL     1      -0.218   4.032  -3.211  0.00  0.00    -0.019 C 
ATOM     18  C   UNL     1       0.192   5.503  -3.333  0.00  0.00    -0.004 C 
ATOM     19  C   UNL     1       0.285   6.116  -1.933  0.00  0.00    -0.019 C 
ATOM     20  C   UNL     1       1.289   5.318  -1.098  0.00  0.00    -0.077 C 
ATOM     21  N   UNL     1       0.824   3.918  -0.998  0.00  0.00    +0.389 N 
ATOM     22  H   UNL     1      -0.126   3.909  -0.609  0.00  0.00    -0.080 HD
ENDBRANCH   1  21
BRANCH   1  24
ATOM     23  N   UNL     1       1.983   0.619  -0.217  0.00  0.00    -0.225 N 
ATOM     24  C   UNL     1       1.238   1.726  -0.038  0.00  0.00    +0.143 A 
ATOM     25  N   UNL     1       0.015   1.320   0.202  0.00  0.00    -0.115 NA
ATOM     26  N   UNL     1       0.009   0.032   0.172  0.00  0.00    -0.023 NA
ATOM     27  N   UNL     1       1.197  -0.395  -0.081  0.00  0.00    -0.043 NA
BRANCH  23  28
ATOM     28  C   UNL     1       3.418   0.575  -0.512  0.00  0.00    +0.061 C 
ATOM     29  C   UNL     1       3.684   1.258  -1.855  0.00  0.00    +0.036 C 
ATOM     30  C   UNL     1       4.188   1.302   0.592  0.00  0.00    +0.036 C 
BRANCH  28  32
ATOM     31  C   UNL     1       5.377  -0.928  -0.888  0.00  0.00    +0.006 C 
ATOM     32  C   UNL     1       3.879  -0.882  -0.580  0.00  0.00    +0.026 C 
ENDBRANCH  28  32
ENDBRANCH  23  28
ENDBRANCH   1  24
TORSDOF 5
