REMARK  Name = ZINC61879757
REMARK  5 active torsions:
REMARK  status: ('A' for Active; 'I' for Inactive)
REMARK    1  A    between atoms: C_1  and  C_2
REMARK    2  A    between atoms: C_11  and  C_14
REMARK    3  A    between atoms: C_14  and  N_15
REMARK    4  A    between atoms: N_18  and  C_19
REMARK    5  A    between atoms: C_19  and  C_20
REMARK                            x       y       z     vdW  Elec       q    Type
REMARK                         _______ _______ _______ _____ _____    ______ ____
ROOT
ATOM      1  N   UNL     1      -2.304  -7.683   4.228  0.00  0.00    -0.295 N 
ATOM      2  C   UNL     1      -2.664  -8.757   4.959  0.00  0.00    +0.300 C 
ATOM      3  O   UNL     1      -3.161  -8.605   6.058  0.00  0.00    -0.253 OA
ATOM      4  N   UNL     1      -2.474  -9.998   4.471  0.00  0.00    -0.292 N 
ATOM      5  H   UNL     1      -1.907  -7.804   3.351  0.00  0.00    +0.151 HD
ATOM      6  H   UNL     1      -2.078 -10.119   3.594  0.00  0.00    +0.151 HD
ENDROOT
BRANCH   1   7
ATOM      7  C   UNL     1      -2.510  -6.333   4.759  0.00  0.00    +0.142 C 
BRANCH   7  18
ATOM      8  C   UNL     1       1.516  -1.759  -2.543  0.00  0.00    +0.007 C 
ATOM      9  C   UNL     1       0.744  -1.592  -1.232  0.00  0.00    -0.011 C 
ATOM     10  C   UNL     1       1.541  -2.221  -0.087  0.00  0.00    +0.022 C 
ATOM     11  C   UNL     1       0.782  -2.021   1.228  0.00  0.00    +0.107 C 
ATOM     12  N   UNL     1      -0.578  -2.556   1.075  0.00  0.00    -0.317 N 
ATOM     13  C   UNL     1      -1.400  -2.086  -0.049  0.00  0.00    +0.107 C 
ATOM     14  C   UNL     1      -0.616  -2.284  -1.350  0.00  0.00    +0.022 C 
ATOM     15  C   UNL     1      -1.078  -3.489   1.976  0.00  0.00    +0.099 A 
ATOM     16  C   UNL     1      -2.408  -3.889   1.888  0.00  0.00    +0.042 A 
ATOM     17  C   UNL     1      -2.892  -4.819   2.790  0.00  0.00    +0.010 A 
ATOM     18  C   UNL     1      -2.026  -5.319   3.755  0.00  0.00    -0.014 A 
ATOM     19  C   UNL     1      -0.719  -4.878   3.784  0.00  0.00    +0.089 A 
ATOM     20  N   UNL     1      -0.283  -3.994   2.906  0.00  0.00    -0.349 N 
ATOM     21  H   UNL     1       0.642  -3.704   2.947  0.00  0.00    +0.167 HD
ENDBRANCH   7  18
ENDBRANCH   1   7
BRANCH   4  22
ATOM     22  C   UNL     1      -2.866 -11.165   5.264  0.00  0.00    +0.180 C 
BRANCH  22  23
ATOM     23  C   UNL     1      -2.550 -12.424   4.498  0.00  0.00    +0.123 A 
ATOM     24  C   UNL     1      -1.391 -13.093   4.567  0.00  0.00    +0.055 A 
ATOM     25  C   UNL     1      -1.528 -14.242   3.663  0.00  0.00    +0.020 A 
ATOM     26  C   UNL     1      -0.694 -15.296   3.295  0.00  0.00    +0.011 A 
ATOM     27  C   UNL     1      -1.138 -16.230   2.400  0.00  0.00    +0.001 A 
ATOM     28  C   UNL     1      -2.411 -16.133   1.857  0.00  0.00    +0.004 A 
ATOM     29  C   UNL     1      -3.249 -15.098   2.209  0.00  0.00    +0.047 A 
ATOM     30  C   UNL     1      -2.818 -14.139   3.118  0.00  0.00    +0.135 A 
ATOM     31  O   UNL     1      -3.392 -13.041   3.650  0.00  0.00    -0.458 OA
ENDBRANCH  22  23
ENDBRANCH   4  22
TORSDOF 4
