REMARK  Name = ZINC09478537
REMARK  5 active torsions:
REMARK  status: ('A' for Active; 'I' for Inactive)
REMARK    1  A    between atoms: C_4  and  C_7
REMARK    2  A    between atoms: C_7  and  C_29
REMARK    3  A    between atoms: N_10  and  N_14
REMARK    4  A    between atoms: C_15  and  C_17
REMARK    5  A    between atoms: C_17  and  N_63
REMARK                            x       y       z     vdW  Elec       q    Type
REMARK                         _______ _______ _______ _____ _____    ______ ____
ROOT
ATOM      1  C   UNL     1       7.845   8.407   1.655  0.00  0.00    +0.165 C 
ATOM      2  C   UNL     1       6.981   7.617   2.618  0.00  0.00    +0.272 C 
ATOM      3  O   UNL     1       7.223   7.362   3.778  0.00  0.00    -0.270 OA
ATOM      4  N   UNL     1       5.889   7.255   1.915  0.00  0.00    -0.137 N 
ATOM      5  C   UNL     1       5.939   7.708   0.657  0.00  0.00    +0.327 C 
ATOM      6  O   UNL     1       5.067   7.513  -0.166  0.00  0.00    -0.251 OA
ATOM      7  N   UNL     1       7.063   8.404   0.406  0.00  0.00    -0.276 N 
ATOM      8  H   UNL     1       7.310   8.823  -0.433  0.00  0.00    +0.152 HD
ENDROOT
BRANCH   1  12
ATOM      9  C   UNL     1      11.613   6.481   1.072  0.00  0.00    +0.000 A 
ATOM     10  C   UNL     1      11.132   6.686   2.352  0.00  0.00    +0.000 A 
ATOM     11  C   UNL     1       9.912   7.309   2.540  0.00  0.00    +0.006 A 
ATOM     12  C   UNL     1       9.174   7.728   1.449  0.00  0.00    -0.011 A 
ATOM     13  C   UNL     1       9.653   7.519   0.169  0.00  0.00    +0.006 A 
ATOM     14  C   UNL     1      10.875   6.900  -0.019  0.00  0.00    +0.000 A 
ENDBRANCH   1  12
BRANCH   1  15
ATOM     15  C   UNL     1       8.042   9.815   2.154  0.00  0.00    -0.011 A 
ATOM     16  C   UNL     1       8.516  10.035   3.434  0.00  0.00    +0.006 A 
ATOM     17  C   UNL     1       8.701  11.327   3.890  0.00  0.00    +0.000 A 
ATOM     18  C   UNL     1       8.403  12.399   3.069  0.00  0.00    +0.000 A 
ATOM     19  C   UNL     1       7.925  12.179   1.791  0.00  0.00    +0.000 A 
ATOM     20  C   UNL     1       7.744  10.887   1.334  0.00  0.00    +0.006 A 
ENDBRANCH   1  15
BRANCH   4  21
ATOM     21  N   UNL     1       4.830   6.503   2.439  0.00  0.00    -0.225 N 
ATOM     22  C   UNL     1       4.695   5.204   2.103  0.00  0.00    +0.213 C 
ATOM     23  O   UNL     1       5.491   4.688   1.348  0.00  0.00    -0.276 OA
ATOM     24  H   UNL     1       4.194   6.916   3.044  0.00  0.00    +0.173 HD
BRANCH  22  25
ATOM     25  C   UNL     1       3.556   4.395   2.667  0.00  0.00    +0.020 C 
BRANCH  25  35
ATOM     26  C   UNL     1       3.410   2.990   0.701  0.00  0.00    -0.078 C 
ATOM     27  C   UNL     1       3.630   1.569   0.175  0.00  0.00    -0.015 C 
ATOM     28  C   UNL     1       2.662   0.618   0.883  0.00  0.00    -0.011 C 
ATOM     29  C   UNL     1       2.903  -0.817   0.413  0.00  0.00    +0.004 C 
ATOM     30  C   UNL     1       1.924  -1.753   1.127  0.00  0.00    +0.000 C 
ATOM     31  C   UNL     1       2.137  -1.664   2.639  0.00  0.00    +0.000 C 
ATOM     32  C   UNL     1       1.907  -0.225   3.107  0.00  0.00    +0.002 C 
ATOM     33  C   UNL     1       2.894   0.700   2.394  0.00  0.00    -0.025 C 
ATOM     34  C   UNL     1       2.685   2.143   2.857  0.00  0.00    -0.074 C 
ATOM     35  N   UNL     1       3.659   3.012   2.159  0.00  0.00    +0.386 N 
ATOM     36  H   UNL     1       4.607   2.660   2.340  0.00  0.00    -0.081 HD
ENDBRANCH  25  35
ENDBRANCH  22  25
ENDBRANCH   4  21
TORSDOF 5
