REMARK  Name = ZINC21137573
REMARK  7 active torsions:
REMARK  status: ('A' for Active; 'I' for Inactive)
REMARK    1  A    between atoms: C_6  and  C_7
REMARK    2  A    between atoms: C_7  and  C_9
REMARK    3  A    between atoms: C_9  and  O_10
REMARK    4  A    between atoms: O_10  and  C_11
REMARK    5  A    between atoms: C_11  and  C_13
REMARK    6  A    between atoms: N_16  and  S_19
REMARK    7  A    between atoms: S_19  and  C_22
REMARK                            x       y       z     vdW  Elec       q    Type
REMARK                         _______ _______ _______ _____ _____    ______ ____
ROOT
ATOM      1  C   UNL     1       4.084  -0.931  -4.455  0.00  0.00    +0.100 C 
ATOM      2  C   UNL     1       4.403   0.325  -3.641  0.00  0.00    +0.032 C 
ATOM      3  C   UNL     1       5.142  -0.076  -2.361  0.00  0.00    +0.110 C 
ATOM      4  N   UNL     1       4.337  -1.073  -1.642  0.00  0.00    -0.177 NA
ATOM      5  C   UNL     1       3.904  -2.280  -2.358  0.00  0.00    +0.110 C 
ATOM      6  C   UNL     1       3.174  -1.853  -3.640  0.00  0.00    +0.032 C 
ENDROOT
BRANCH   4   7
ATOM      7  S   UNL     1       3.931  -0.843  -0.053  0.00  0.00    +0.061 S 
ATOM      8  O   UNL     1       4.904   0.038   0.491  0.00  0.00    -0.153 OA
ATOM      9  O   UNL     1       3.680  -2.131   0.493  0.00  0.00    -0.153 OA
BRANCH   7  10
ATOM     10  C   UNL     1       2.397   0.024  -0.027  0.00  0.00    +0.109 A 
ATOM     11  C   UNL     1       1.207  -0.680  -0.016  0.00  0.00    +0.032 A 
ATOM     12  C   UNL     1       0.002  -0.004   0.002  0.00  0.00    +0.051 A 
ATOM     13  C   UNL     1      -0.017   1.383   0.010  0.00  0.00    +0.162 A 
ATOM     14  C   UNL     1       1.179   2.090   0.002  0.00  0.00    +0.164 A 
ATOM     15  C   UNL     1       2.385   1.406  -0.018  0.00  0.00    +0.078 A 
ATOM     16  O   UNL     1       1.184   3.451   0.018  0.00  0.00    -0.485 OA
ATOM     17  C   UNL     1      -0.040   4.103  -0.340  0.00  0.00    +0.270 C 
ATOM     18  C   UNL     1      -1.189   3.413   0.408  0.00  0.00    +0.270 C 
ATOM     19  O   UNL     1      -1.212   2.035   0.019  0.00  0.00    -0.485 OA
ENDBRANCH   7  10
ENDBRANCH   4   7
BRANCH   1  20
ATOM     20  C   UNL     1       3.386  -0.539  -5.732  0.00  0.00    +0.311 C 
ATOM     21  O   UNL     1       3.167   0.626  -5.967  0.00  0.00    -0.251 OA
BRANCH  20  22
ATOM     22  O   UNL     1       3.009  -1.483  -6.609  0.00  0.00    -0.456 OA
BRANCH  22  23
ATOM     23  C   UNL     1       2.343  -1.032  -7.817  0.00  0.00    +0.311 C 
BRANCH  23  24
ATOM     24  C   UNL     1       1.996  -2.222  -8.674  0.00  0.00    +0.200 C 
ATOM     25  O   UNL     1       2.283  -3.340  -8.303  0.00  0.00    -0.288 OA
BRANCH  24  31
ATOM     26  C   UNL     1       0.974  -0.739 -10.388  0.00  0.00    +0.014 A 
ATOM     27  C   UNL     1       0.336  -0.562 -11.597  0.00  0.00    +0.042 A 
ATOM     28  C   UNL     1       0.018  -1.658 -12.384  0.00  0.00    +0.158 A 
ATOM     29  C   UNL     1       0.344  -2.941 -11.963  0.00  0.00    +0.159 A 
ATOM     30  C   UNL     1       0.988  -3.131 -10.758  0.00  0.00    +0.052 A 
ATOM     31  C   UNL     1       1.311  -2.027  -9.960  0.00  0.00    +0.024 A 
ATOM     32  F   UNL     1       0.031  -4.004 -12.735  0.00  0.00    -0.202 F 
ATOM     33  F   UNL     1      -0.612  -1.477 -13.566  0.00  0.00    -0.202 F 
ENDBRANCH  24  31
ENDBRANCH  23  24
ENDBRANCH  22  23
ENDBRANCH  20  22
ENDBRANCH   1  20
TORSDOF 7
