REMARK  Name = ZINC39520969
REMARK  5 active torsions:
REMARK  status: ('A' for Active; 'I' for Inactive)
REMARK    1  A    between atoms: C_4  and  C_7
REMARK    2  A    between atoms: C_7  and  N_8
REMARK    3  A    between atoms: C_18  and  S_21
REMARK    4  A    between atoms: S_21  and  O_24
REMARK    5  A    between atoms: O_24  and  C_25
REMARK                            x       y       z     vdW  Elec       q    Type
REMARK                         _______ _______ _______ _____ _____    ______ ____
ROOT
ATOM      1  N   UNL     1       4.212  -0.848   1.335  0.00  0.00    +0.394 N 
ATOM      2  C   UNL     1       4.136   0.460   1.977  0.00  0.00    -0.002 C 
ATOM      3  C   UNL     1       4.652   0.478   3.408  0.00  0.00    -0.005 C 
ATOM      4  C   UNL     1       6.004  -0.236   3.492  0.00  0.00    -0.002 C 
ATOM      5  C   UNL     1       5.822  -1.651   2.945  0.00  0.00    -0.012 C 
ATOM      6  C   UNL     1       5.481  -1.547   1.430  0.00  0.00    -0.062 C 
ATOM      7  C   UNL     1       5.358  -3.000   0.968  0.00  0.00    -0.012 C 
ATOM      8  C   UNL     1       5.478  -3.195  -0.532  0.00  0.00    +0.001 C 
ATOM      9  C   UNL     1       6.779  -2.571  -1.040  0.00  0.00    +0.030 C 
ATOM     10  C   UNL     1       6.772  -1.074  -0.728  0.00  0.00    +0.170 C 
ATOM     11  C   UNL     1       6.655  -0.849   0.772  0.00  0.00    +0.018 C 
ATOM     12  I   UNL     1       5.126   1.968   0.791  0.00  0.00    -0.103 I 
ATOM     13  H   UNL     1       3.516  -1.443   1.823  0.00  0.00    -0.079 HD
ENDROOT
BRANCH  10  14
ATOM     14  S   UNL     1       8.332  -0.346  -1.319  0.00  0.00    +0.123 S 
ATOM     15  O   UNL     1       8.284   1.069  -1.208  0.00  0.00    -0.136 OA
ATOM     16  O   UNL     1       9.437  -1.077  -0.805  0.00  0.00    -0.136 OA
BRANCH  14  17
ATOM     17  O   UNL     1       8.348  -0.618  -2.816  0.00  0.00    -0.346 OA
BRANCH  17  18
ATOM     18  C   UNL     1       7.510   0.177  -3.531  0.00  0.00    +0.156 A 
ATOM     19  C   UNL     1       6.199  -0.218  -3.756  0.00  0.00    +0.048 A 
ATOM     20  C   UNL     1       5.349   0.592  -4.483  0.00  0.00    +0.004 A 
ATOM     21  C   UNL     1       5.804   1.797  -4.987  0.00  0.00    +0.000 A 
ATOM     22  C   UNL     1       7.110   2.193  -4.765  0.00  0.00    +0.004 A 
ATOM     23  C   UNL     1       7.962   1.389  -4.034  0.00  0.00    +0.048 A 
ENDBRANCH  17  18
ENDBRANCH  14  17
ENDBRANCH  10  14
BRANCH   1  24
ATOM     24  C   UNL     1       3.711  -0.707  -0.038  0.00  0.00    -0.041 C 
BRANCH  24  28
ATOM     25  C   UNL     1      -0.220   0.963   0.041  0.00  0.00    +0.000 A 
ATOM     26  C   UNL     1       0.873   1.778  -0.184  0.00  0.00    +0.000 A 
ATOM     27  C   UNL     1       2.145   1.238  -0.209  0.00  0.00    +0.002 A 
ATOM     28  C   UNL     1       2.324  -0.118  -0.009  0.00  0.00    -0.064 A 
ATOM     29  C   UNL     1       1.232  -0.934   0.217  0.00  0.00    +0.002 A 
ATOM     30  C   UNL     1      -0.041  -0.394   0.241  0.00  0.00    +0.000 A 
ENDBRANCH  24  28
ENDBRANCH   1  24
TORSDOF 5
