REMARK  Name = ZINC13132039
REMARK  5 active torsions:
REMARK  status: ('A' for Active; 'I' for Inactive)
REMARK    1  A    between atoms: C_1  and  C_2
REMARK    2  A    between atoms: C_2  and  C_3
REMARK    3  A    between atoms: C_6  and  C_9
REMARK    4  A    between atoms: C_12  and  C_21
REMARK    5  A    between atoms: C_24  and  C_27
REMARK                            x       y       z     vdW  Elec       q    Type
REMARK                         _______ _______ _______ _____ _____    ______ ____
ROOT
ATOM      1  C   UNL     1       2.707  -1.868  -4.752  0.00  0.00    +0.143 C 
ATOM      2  C   UNL     1       3.774  -0.849  -5.170  0.00  0.00    +0.058 C 
ATOM      3  C   UNL     1       4.673  -1.456  -6.253  0.00  0.00    +0.106 C 
ATOM      4  N   UNL     1       5.368  -2.629  -5.686  0.00  0.00    -0.307 N 
ATOM      5  C   UNL     1       4.595  -3.485  -4.913  0.00  0.00    +0.216 A 
ATOM      6  N   UNL     1       3.356  -3.149  -4.476  0.00  0.00    -0.224 N 
ATOM      7  N   UNL     1       2.880  -4.238  -3.744  0.00  0.00    -0.132 NA
ATOM      8  C   UNL     1       3.821  -5.155  -3.772  0.00  0.00    +0.233 A 
ATOM      9  N   UNL     1       4.865  -4.689  -4.482  0.00  0.00    -0.180 NA
ATOM     10  N   UNL     1       3.752  -6.407  -3.159  0.00  0.00    -0.326 N 
ATOM     11  H   UNL     1       6.311  -2.792  -5.845  0.00  0.00    +0.149 HD
ATOM     12  H   UNL     1       2.958  -6.659  -2.661  0.00  0.00    +0.145 HD
ATOM     13  H   UNL     1       4.496  -7.024  -3.231  0.00  0.00    +0.145 HD
ENDROOT
BRANCH   3  14
ATOM     14  C   UNL     1       3.832  -1.882  -7.429  0.00  0.00    -0.027 A 
ATOM     15  C   UNL     1       3.134  -3.074  -7.384  0.00  0.00    +0.006 A 
ATOM     16  C   UNL     1       2.362  -3.465  -8.462  0.00  0.00    +0.004 A 
ATOM     17  C   UNL     1       2.289  -2.662  -9.586  0.00  0.00    -0.050 A 
ATOM     18  C   UNL     1       2.986  -1.470  -9.630  0.00  0.00    +0.004 A 
ATOM     19  C   UNL     1       3.754  -1.077  -8.550  0.00  0.00    +0.006 A 
ATOM     20  C   UNL     1       1.448  -3.088 -10.762  0.00  0.00    +0.044 C 
ENDBRANCH   3  14
BRANCH   1  24
ATOM     21  C   UNL     1       0.707  -0.490  -1.238  0.00  0.00    -0.048 A 
ATOM     22  C   UNL     1      -0.011  -0.719  -2.397  0.00  0.00    +0.004 A 
ATOM     23  C   UNL     1       0.636  -1.164  -3.534  0.00  0.00    +0.006 A 
ATOM     24  C   UNL     1       2.002  -1.381  -3.513  0.00  0.00    -0.023 A 
ATOM     25  C   UNL     1       2.720  -1.152  -2.354  0.00  0.00    +0.006 A 
ATOM     26  C   UNL     1       2.073  -0.702  -1.218  0.00  0.00    +0.004 A 
BRANCH  21  28
ATOM     27  C   UNL     1      -0.019   1.526   0.010  0.00  0.00    +0.009 C 
ATOM     28  C   UNL     1       0.002  -0.004   0.002  0.00  0.00    +0.032 C 
ENDBRANCH  21  28
ENDBRANCH   1  24
TORSDOF 3
