REMARK  Name = ZINC12402454
REMARK  6 active torsions:
REMARK  status: ('A' for Active; 'I' for Inactive)
REMARK    1  A    between atoms: C_1  and  C_2
REMARK    2  A    between atoms: C_2  and  O_30
REMARK    3  A    between atoms: C_6  and  O_10
REMARK    4  A    between atoms: C_11  and  C_24
REMARK    5  A    between atoms: C_13  and  C_15
REMARK    6  A    between atoms: N_17  and  C_18
REMARK                            x       y       z     vdW  Elec       q    Type
REMARK                         _______ _______ _______ _____ _____    ______ ____
ROOT
ATOM      1  C   UNL     1      -0.744   2.034   1.267  0.00  0.00    +0.042 C 
ATOM      2  C   UNL     1      -0.019   1.530   0.017  0.00  0.00    +0.081 C 
ATOM      3  C   UNL     1       0.003  -0.003   0.022  0.00  0.00    +0.090 C 
ATOM      4  C   UNL     1       0.934  -0.462   1.116  0.00  0.00    +0.046 A 
ATOM      5  C   UNL     1       1.853   0.335   1.717  0.00  0.00    +0.044 A 
ATOM      6  C   UNL     1       2.525  -0.428   2.676  0.00  0.00    +0.235 A 
ATOM      7  N   UNL     1       2.025  -1.643   2.649  0.00  0.00    -0.136 NA
ATOM      8  N   UNL     1       1.021  -1.683   1.670  0.00  0.00    -0.278 N 
ATOM      9  H   UNL     1       0.468  -2.480   1.428  0.00  0.00    +0.189 HD
ATOM     10  C   UNL     1       2.071   1.787   1.371  0.00  0.00    +0.071 C 
ATOM     11  C   UNL     1       1.417   2.062   0.011  0.00  0.00    +0.119 C 
ENDROOT
BRANCH  10  12
ATOM     12  C   UNL     1       3.548   2.074   1.291  0.00  0.00    -0.039 A 
ATOM     13  C   UNL     1       4.336   1.391   0.384  0.00  0.00    +0.004 A 
ATOM     14  C   UNL     1       5.691   1.658   0.307  0.00  0.00    +0.000 A 
ATOM     15  C   UNL     1       6.258   2.600   1.144  0.00  0.00    +0.000 A 
ATOM     16  C   UNL     1       5.470   3.280   2.054  0.00  0.00    +0.000 A 
ATOM     17  C   UNL     1       4.115   3.016   2.128  0.00  0.00    +0.004 A 
ENDBRANCH  10  12
BRANCH  11  18
ATOM     18  C   UNL     1       1.401   3.547  -0.247  0.00  0.00    +0.224 C 
ATOM     19  O   UNL     1       0.346   4.123  -0.410  0.00  0.00    -0.275 OA
ATOM     20  N   UNL     1       2.559   4.234  -0.297  0.00  0.00    -0.285 N 
ATOM     21  H   UNL     1       3.398   3.787  -0.103  0.00  0.00    +0.155 HD
BRANCH  20  22
ATOM     22  C   UNL     1       2.552   5.594  -0.628  0.00  0.00    +0.033 A 
ATOM     23  C   UNL     1       3.598   6.137  -1.363  0.00  0.00    +0.023 A 
ATOM     24  C   UNL     1       3.584   7.478  -1.694  0.00  0.00    +0.002 A 
ATOM     25  C   UNL     1       2.538   8.282  -1.283  0.00  0.00    +0.000 A 
ATOM     26  C   UNL     1       1.498   7.746  -0.545  0.00  0.00    +0.002 A 
ATOM     27  C   UNL     1       1.502   6.405  -0.217  0.00  0.00    +0.023 A 
ENDBRANCH  20  22
ENDBRANCH  11  18
BRANCH   6  28
ATOM     28  O   UNL     1       3.519   0.009   3.493  0.00  0.00    -0.491 OA
ATOM     29  H   UNL     1       3.822  -0.741   4.081  0.00  0.00    +0.294 HD
ENDBRANCH   6  28
BRANCH   2  30
ATOM     30  O   UNL     1      -0.703   1.993  -1.149  0.00  0.00    -0.388 OA
ATOM     31  H   UNL     1      -1.621   1.694  -1.211  0.00  0.00    +0.210 HD
ENDBRANCH   2  30
TORSDOF 5
