REMARK  Name = ZINC17117115
REMARK  5 active torsions:
REMARK  status: ('A' for Active; 'I' for Inactive)
REMARK    1  A    between atoms: C_1  and  C_2
REMARK    2  A    between atoms: C_2  and  C_4
REMARK    3  A    between atoms: C_2  and  N_15
REMARK    4  A    between atoms: N_6  and  C_7
REMARK    5  A    between atoms: C_7  and  C_8
REMARK                            x       y       z     vdW  Elec       q    Type
REMARK                         _______ _______ _______ _____ _____    ______ ____
ROOT
ATOM      1  C   UNL     1       0.718  -0.497  -1.257  0.00  0.00    +0.038 C 
ATOM      2  C   UNL     1       0.002  -0.004   0.002  0.00  0.00    +0.155 C 
ENDROOT
BRANCH   2   3
ATOM      3  N   UNL     1      -1.372  -0.511   0.012  0.00  0.00    -0.316 N 
ATOM      4  C   UNL     1      -1.640  -1.767   0.512  0.00  0.00    +0.150 C 
ATOM      5  N   UNL     1      -0.681  -2.507   0.970  0.00  0.00    -0.113 NA
ATOM      6  S   UNL     1      -1.403  -3.929   1.479  0.00  0.00    +0.101 S 
ATOM      7  O   UNL     1      -1.303  -3.987   2.895  0.00  0.00    -0.146 OA
ATOM      8  O   UNL     1      -0.959  -4.968   0.618  0.00  0.00    -0.146 OA
ATOM      9  C   UNL     1      -3.091  -3.574   1.071  0.00  0.00    +0.123 A 
ATOM     10  C   UNL     1      -3.017  -2.284   0.527  0.00  0.00    +0.043 A 
ATOM     11  C   UNL     1      -4.215  -1.697   0.093  0.00  0.00    +0.013 A 
ATOM     12  C   UNL     1      -5.405  -2.381   0.207  0.00  0.00    +0.001 A 
ATOM     13  C   UNL     1      -5.446  -3.653   0.748  0.00  0.00    +0.002 A 
ATOM     14  C   UNL     1      -4.271  -4.249   1.183  0.00  0.00    +0.030 A 
ATOM     15  H   UNL     1      -2.094   0.037  -0.333  0.00  0.00    +0.148 HD
ENDBRANCH   2   3
BRANCH   2  16
ATOM     16  C   UNL     1      -0.018   1.503   0.010  0.00  0.00    +0.233 C 
ATOM     17  O   UNL     1      -1.077   2.095   0.018  0.00  0.00    -0.274 OA
ATOM     18  N   UNL     1       1.139   2.192   0.003  0.00  0.00    -0.310 N 
ATOM     19  H   UNL     1       1.986   1.719  -0.008  0.00  0.00    +0.149 HD
BRANCH  18  20
ATOM     20  C   UNL     1       1.120   3.657   0.011  0.00  0.00    +0.141 C 
BRANCH  20  21
ATOM     21  C   UNL     1       2.534   4.179   0.000  0.00  0.00    -0.012 A 
ATOM     22  C   UNL     1       3.119   4.612   1.175  0.00  0.00    +0.006 A 
ATOM     23  C   UNL     1       4.418   5.087   1.166  0.00  0.00    +0.000 A 
ATOM     24  C   UNL     1       5.128   5.137  -0.019  0.00  0.00    +0.001 A 
ATOM     25  C   UNL     1       4.541   4.709  -1.195  0.00  0.00    +0.020 A 
ATOM     26  C   UNL     1       3.243   4.230  -1.186  0.00  0.00    +0.046 A 
ATOM     27 CL   UNL     1       2.506   3.692  -2.663  0.00  0.00    -0.083 Cl
ENDBRANCH  20  21
ENDBRANCH  18  20
ENDBRANCH   2  16
TORSDOF 4
