REMARK  Name = ZINC28924723
REMARK  5 active torsions:
REMARK  status: ('A' for Active; 'I' for Inactive)
REMARK    1  A    between atoms: C_1  and  N_2
REMARK    2  A    between atoms: C_3  and  C_5
REMARK    3  A    between atoms: C_5  and  N_6
REMARK    4  A    between atoms: N_15  and  C_28
REMARK    5  A    between atoms: C_16  and  C_18
REMARK                            x       y       z     vdW  Elec       q    Type
REMARK                         _______ _______ _______ _____ _____    ______ ____
ROOT
ATOM      1  N   UNL     1       0.009   1.379   0.150  0.00  0.00    -0.298 N 
ATOM      2  C   UNL     1       1.285   1.789  -0.203  0.00  0.00    +0.044 A 
ATOM      3  C   UNL     1       2.154   0.934  -0.866  0.00  0.00    +0.024 A 
ATOM      4  C   UNL     1       3.418   1.369  -1.211  0.00  0.00    +0.002 A 
ATOM      5  C   UNL     1       3.831   2.655  -0.901  0.00  0.00    +0.001 A 
ATOM      6  C   UNL     1       2.982   3.520  -0.242  0.00  0.00    +0.015 A 
ATOM      7  C   UNL     1       1.706   3.092   0.112  0.00  0.00    +0.058 A 
ATOM      8  C   UNL     1       0.764   3.980   0.823  0.00  0.00    +0.250 C 
ATOM      9  O   UNL     1       0.929   5.185   0.852  0.00  0.00    -0.270 OA
ATOM     10  N   UNL     1      -0.292   3.399   1.441  0.00  0.00    -0.278 N 
ATOM     11  C   UNL     1      -0.424   1.942   1.431  0.00  0.00    +0.194 C 
ATOM     12  C   UNL     1      -1.296   4.224   2.116  0.00  0.00    +0.134 C 
ENDROOT
BRANCH  11  13
ATOM     13  C   UNL     1       0.421   1.362   2.536  0.00  0.00    +0.006 C 
ATOM     14  C   UNL     1      -0.123   0.529   3.418  0.00  0.00    +0.017 C 
ATOM     15  C   UNL     1       0.729   0.006   4.506  0.00  0.00    +0.017 A 
ATOM     16  C   UNL     1       0.338  -1.086   5.274  0.00  0.00    +0.011 A 
ATOM     17  C   UNL     1       1.179  -1.560   6.261  0.00  0.00    +0.001 A 
ATOM     18  C   UNL     1       2.403  -0.954   6.488  0.00  0.00    +0.004 A 
ATOM     19  C   UNL     1       2.796   0.137   5.734  0.00  0.00    +0.046 A 
ATOM     20  C   UNL     1       1.962   0.627   4.746  0.00  0.00    +0.128 A 
ATOM     21  O   UNL     1       2.310   1.706   4.000  0.00  0.00    -0.487 OA
ATOM     22  C   UNL     1       1.877   1.733   2.641  0.00  0.00    +0.263 C 
ENDBRANCH  11  13
BRANCH   1  23
ATOM     23  C   UNL     1      -0.089  -0.086   0.159  0.00  0.00    +0.202 C 
BRANCH  23  26
ATOM     24  C   UNL     1      -3.135  -2.186   1.141  0.00  0.00    +0.128 C 
ATOM     25  N   UNL     1      -1.774  -1.790   0.772  0.00  0.00    -0.317 N 
ATOM     26  C   UNL     1      -1.489  -0.494   0.538  0.00  0.00    +0.230 C 
ATOM     27  O   UNL     1      -2.360   0.345   0.633  0.00  0.00    -0.274 OA
ATOM     28  H   UNL     1      -0.984  -2.551   0.686  0.00  0.00    +0.148 HD
ENDBRANCH  23  26
ENDBRANCH   1  23
TORSDOF 3
