REMARK  Name = ZINC09076707
REMARK  11 active torsions:
REMARK  status: ('A' for Active; 'I' for Inactive)
REMARK    1  A    between atoms: C_1  and  C_2
REMARK    2  A    between atoms: C_2  and  O_3
REMARK    3  A    between atoms: O_3  and  C_4
REMARK    4  A    between atoms: N_12  and  C_13
REMARK    5  A    between atoms: C_13  and  C_15
REMARK    6  A    between atoms: C_18  and  S_21
REMARK    7  A    between atoms: S_21  and  N_24
REMARK    8  A    between atoms: C_26  and  C_33
REMARK    9  A    between atoms: C_29  and  C_32
REMARK   10  A    between atoms: N_34  and  C_35
REMARK   11  A    between atoms: C_35  and  C_36
REMARK                            x       y       z     vdW  Elec       q    Type
REMARK                         _______ _______ _______ _____ _____    ______ ____
ROOT
ATOM      1  C   UNL     1      -0.016   1.332   0.009  0.00  0.00    +0.269 C 
ATOM      2  O   UNL     1       1.031   1.956   0.003  0.00  0.00    -0.268 OA
ENDROOT
BRANCH   1  11
ATOM      3  C   UNL     1       5.400  -3.164  -0.066  0.00  0.00    +0.122 A 
ATOM      4  C   UNL     1       4.423  -4.152  -0.061  0.00  0.00    +0.048 A 
ATOM      5  C   UNL     1       3.087  -3.831  -0.048  0.00  0.00    +0.030 A 
ATOM      6  C   UNL     1       2.669  -2.491  -0.036  0.00  0.00    +0.059 A 
ATOM      7  C   UNL     1       3.675  -1.514  -0.041  0.00  0.00    +0.042 A 
ATOM      8  C   UNL     1       5.013  -1.831  -0.056  0.00  0.00    +0.062 A 
ATOM      9  S   UNL     1       2.764   0.010  -0.032  0.00  0.00    -0.052 S 
ATOM     10  C   UNL     1       1.162  -0.653  -0.013  0.00  0.00    +0.168 A 
ATOM     11  N   UNL     1       0.002  -0.004   0.002  0.00  0.00    -0.152 NA
ATOM     12  N   UNL     1       1.377  -1.995  -0.022  0.00  0.00    -0.310 N 
BRANCH   3  13
ATOM     13  O   UNL     1       6.718  -3.498  -0.081  0.00  0.00    -0.492 OA
BRANCH  13  15
ATOM     14  C   UNL     1       8.553  -5.070  -0.107  0.00  0.00    +0.048 C 
ATOM     15  C   UNL     1       7.034  -4.892  -0.091  0.00  0.00    +0.225 C 
ENDBRANCH  13  15
ENDBRANCH   3  13
BRANCH  12  16
ATOM     16  C   UNL     1       0.239  -2.919  -0.016  0.00  0.00    +0.212 C 
BRANCH  16  17
ATOM     17  C   UNL     1      -0.154  -3.221  -1.402  0.00  0.00    -0.084 C 
ATOM     18  C   UNL     1      -0.469  -3.462  -2.507  0.00  0.00    +0.005 C 
ENDBRANCH  16  17
ENDBRANCH  12  16
ENDBRANCH   1  11
BRANCH   1  19
ATOM     19  C   UNL     1      -1.309   2.055   0.019  0.00  0.00    +0.039 A 
ATOM     20  C   UNL     1      -2.509   1.345   0.015  0.00  0.00    +0.015 A 
ATOM     21  C   UNL     1      -3.710   2.024   0.031  0.00  0.00    +0.029 A 
ATOM     22  C   UNL     1      -3.725   3.407   0.039  0.00  0.00    +0.106 A 
ATOM     23  C   UNL     1      -2.538   4.118   0.036  0.00  0.00    +0.029 A 
ATOM     24  C   UNL     1      -1.331   3.450   0.027  0.00  0.00    +0.015 A 
BRANCH  22  25
ATOM     25  S   UNL     1      -5.263   4.267   0.051  0.00  0.00    +0.061 S 
ATOM     26  O   UNL     1      -6.223   3.376   0.602  0.00  0.00    -0.153 OA
ATOM     27  O   UNL     1      -5.007   5.550   0.607  0.00  0.00    -0.153 OA
BRANCH  25  28
ATOM     28  N   UNL     1      -5.698   4.514  -1.528  0.00  0.00    -0.176 NA
ATOM     29  C   UNL     1      -5.283   5.732  -2.237  0.00  0.00    +0.112 C 
ATOM     30  C   UNL     1      -4.574   5.323  -3.537  0.00  0.00    +0.002 C 
ATOM     31  C   UNL     1      -5.495   4.408  -4.347  0.00  0.00    +0.009 C 
ATOM     32  C   UNL     1      -5.794   3.141  -3.542  0.00  0.00    +0.002 C 
ATOM     33  C   UNL     1      -6.512   3.523  -2.244  0.00  0.00    +0.112 C 
ATOM     34  C   UNL     1      -6.689   2.212  -4.366  0.00  0.00    +0.009 C 
ATOM     35  C   UNL     1      -3.279   4.579  -3.204  0.00  0.00    +0.009 C 
ENDBRANCH  25  28
ENDBRANCH  22  25
ENDBRANCH   1  19
TORSDOF 8
