REMARK  Name = ZINC63589430
REMARK  13 active torsions:
REMARK  status: ('A' for Active; 'I' for Inactive)
REMARK    1  A    between atoms: C_1  and  C_2
REMARK    2  A    between atoms: C_2  and  O_3
REMARK    3  A    between atoms: O_3  and  C_4
REMARK    4  A    between atoms: C_7  and  C_10
REMARK    5  A    between atoms: C_10  and  N_12
REMARK    6  A    between atoms: N_14  and  C_15
REMARK    7  A    between atoms: C_17  and  O_23
REMARK    8  A    between atoms: C_19  and  O_21
REMARK    9  A    between atoms: O_21  and  C_22
REMARK   10  A    between atoms: O_23  and  C_24
REMARK   11  A    between atoms: N_25  and  C_26
REMARK   12  A    between atoms: C_26  and  C_27
REMARK   13  A    between atoms: C_27  and  C_28
REMARK                            x       y       z     vdW  Elec       q    Type
REMARK                         _______ _______ _______ _____ _____    ______ ____
ROOT
ATOM      1  N   UNL     1      -3.222  -6.510   1.195  0.00  0.00    -0.143 NA
ATOM      2  C   UNL     1      -3.314  -7.670   0.563  0.00  0.00    +0.194 C 
ATOM      3  N   UNL     1      -4.446  -7.980  -0.135  0.00  0.00    -0.328 N 
ATOM      4  N   UNL     1      -2.277  -8.556   0.610  0.00  0.00    -0.357 N 
ATOM      5  H   UNL     1      -4.550  -8.863  -0.523  0.00  0.00    +0.169 HD
ATOM      6  H   UNL     1      -1.516  -8.381   1.184  0.00  0.00    +0.162 HD
ENDROOT
BRANCH   3   7
ATOM      7  C   UNL     1      -5.455  -7.024  -0.291  0.00  0.00    +0.049 A 
ATOM      8  C   UNL     1      -5.126  -5.713  -0.606  0.00  0.00    +0.071 A 
ATOM      9  C   UNL     1      -6.127  -4.766  -0.761  0.00  0.00    +0.126 A 
ATOM     10  C   UNL     1      -7.456  -5.129  -0.601  0.00  0.00    +0.091 A 
ATOM     11  C   UNL     1      -7.785  -6.439  -0.287  0.00  0.00    +0.126 A 
ATOM     12  C   UNL     1      -6.786  -7.388  -0.137  0.00  0.00    +0.071 A 
BRANCH  11  13
ATOM     13  O   UNL     1      -9.088  -6.793  -0.130  0.00  0.00    -0.495 OA
ATOM     14  C   UNL     1     -10.065  -5.765  -0.303  0.00  0.00    +0.277 C 
ENDBRANCH  11  13
BRANCH   9  15
ATOM     15  O   UNL     1      -5.806  -3.482  -1.069  0.00  0.00    -0.495 OA
ATOM     16  C   UNL     1      -6.876  -2.536  -1.106  0.00  0.00    +0.277 C 
ENDBRANCH   9  15
ENDBRANCH   3   7
BRANCH   1  17
ATOM     17  C   UNL     1      -2.055  -6.130   1.731  0.00  0.00    +0.270 C 
ATOM     18  O   UNL     1      -1.099  -6.885   1.709  0.00  0.00    -0.268 OA
BRANCH  17  22
ATOM     19  C   UNL     1      -1.684  -2.287   3.506  0.00  0.00    +0.121 A 
ATOM     20  C   UNL     1      -0.594  -3.148   3.483  0.00  0.00    +0.046 A 
ATOM     21  C   UNL     1      -0.710  -4.394   2.909  0.00  0.00    +0.017 A 
ATOM     22  C   UNL     1      -1.926  -4.792   2.349  0.00  0.00    +0.039 A 
ATOM     23  C   UNL     1      -3.020  -3.925   2.375  0.00  0.00    +0.017 A 
ATOM     24  C   UNL     1      -2.897  -2.682   2.955  0.00  0.00    +0.046 A 
BRANCH  19  25
ATOM     25  O   UNL     1      -1.566  -1.059   4.073  0.00  0.00    -0.492 OA
BRANCH  25  27
ATOM     26  C   UNL     1      -0.350   0.693   5.211  0.00  0.00    +0.048 C 
ATOM     27  C   UNL     1      -0.291  -0.718   4.620  0.00  0.00    +0.225 C 
ENDBRANCH  25  27
ENDBRANCH  19  25
ENDBRANCH  17  22
ENDBRANCH   1  17
BRANCH   4  28
ATOM     28  C   UNL     1      -2.315  -9.772  -0.207  0.00  0.00    +0.120 C 
BRANCH  28  29
ATOM     29  C   UNL     1      -1.101 -10.644   0.120  0.00  0.00    +0.054 C 
BRANCH  29  30
ATOM     30  C   UNL     1      -1.075 -11.835  -0.803  0.00  0.00    -0.040 C 
ATOM     31  C   UNL     1      -0.417 -11.936  -1.981  0.00  0.00    -0.001 A 
ATOM     32  C   UNL     1       0.437 -11.003  -2.726  0.00  0.00    +0.010 A 
ATOM     33  C   UNL     1       0.966 -11.399  -3.906  0.00  0.00    +0.001 A 
ATOM     34  C   UNL     1       0.720 -12.673  -4.434  0.00  0.00    +0.002 A 
ATOM     35  C   UNL     1      -0.054 -13.585  -3.808  0.00  0.00    +0.026 A 
ATOM     36  C   UNL     1      -0.661 -13.276  -2.560  0.00  0.00    +0.043 A 
ATOM     37  N   UNL     1      -1.440 -13.976  -1.771  0.00  0.00    -0.380 N 
ATOM     38  C   UNL     1      -1.773 -13.161  -0.598  0.00  0.00    +0.144 C 
ATOM     39  H   UNL     1      -1.742 -14.884  -1.933  0.00  0.00    +0.160 HD
ENDBRANCH  29  30
ENDBRANCH  28  29
ENDBRANCH   4  28
TORSDOF 10
