REMARK  Name = ZINC18067558
REMARK  5 active torsions:
REMARK  status: ('A' for Active; 'I' for Inactive)
REMARK    1  A    between atoms: C_1  and  C_2
REMARK    2  A    between atoms: C_2  and  C_4
REMARK    3  A    between atoms: C_2  and  O_23
REMARK    4  A    between atoms: C_4  and  N_5
REMARK    5  A    between atoms: C_8  and  C_17
REMARK                            x       y       z     vdW  Elec       q    Type
REMARK                         _______ _______ _______ _____ _____    ______ ____
ROOT
ATOM      1  N   UNL     1       0.762  -1.976   1.234  0.00  0.00    -0.381 N 
ATOM      2  C   UNL     1       1.867  -2.659   1.038  0.00  0.00    +0.050 A 
ATOM      3  C   UNL     1       1.866  -4.127   0.922  0.00  0.00    +0.072 A 
ATOM      4  C   UNL     1       2.990  -4.734   0.465  0.00  0.00    +0.138 A 
ATOM      5  O   UNL     1       4.087  -4.053   0.102  0.00  0.00    -0.455 OA
ATOM      6  C   UNL     1       4.267  -2.761   0.446  0.00  0.00    +0.138 A 
ATOM      7  C   UNL     1       3.189  -1.998   0.915  0.00  0.00    +0.042 A 
ATOM      8  C   UNL     1       3.367  -0.663   1.258  0.00  0.00    +0.033 A 
ATOM      9  C   UNL     1       4.617  -0.089   1.132  0.00  0.00    +0.042 A 
ATOM     10  C   UNL     1       5.685  -0.842   0.667  0.00  0.00    +0.023 A 
ATOM     11  C   UNL     1       5.518  -2.167   0.334  0.00  0.00    +0.048 A 
ATOM     12 CL   UNL     1       4.851   1.578   1.556  0.00  0.00    -0.084 Cl
ATOM     13  H   UNL     1      -0.017  -2.411   1.615  0.00  0.00    +0.160 HD
ENDROOT
BRANCH   4  14
ATOM     14  C   UNL     1       3.005  -6.208   0.363  0.00  0.00    +0.017 A 
ATOM     15  C   UNL     1       1.879  -6.948   0.727  0.00  0.00    +0.011 A 
ATOM     16  C   UNL     1       1.900  -8.324   0.629  0.00  0.00    +0.001 A 
ATOM     17  C   UNL     1       3.035  -8.970   0.171  0.00  0.00    +0.000 A 
ATOM     18  C   UNL     1       4.155  -8.243  -0.191  0.00  0.00    +0.001 A 
ATOM     19  C   UNL     1       4.145  -6.866  -0.104  0.00  0.00    +0.011 A 
ENDBRANCH   4  14
BRANCH   1  20
ATOM     20  C   UNL     1       0.706  -0.556   0.875  0.00  0.00    +0.143 C 
BRANCH  20  22
ATOM     21  C   UNL     1      -0.547   1.172  -0.423  0.00  0.00    +0.039 C 
ATOM     22  C   UNL     1      -0.488  -0.310  -0.049  0.00  0.00    +0.130 C 
BRANCH  22  23
ATOM     23  O   UNL     1      -0.343  -1.095  -1.234  0.00  0.00    -0.390 OA
ATOM     24  H   UNL     1       0.456  -0.897  -1.742  0.00  0.00    +0.210 HD
ENDBRANCH  22  23
ENDBRANCH  20  22
ENDBRANCH   1  20
TORSDOF 4
