REMARK  Name = ZINC34747711
REMARK  5 active torsions:
REMARK  status: ('A' for Active; 'I' for Inactive)
REMARK    1  A    between atoms: C_1  and  C_2
REMARK    2  A    between atoms: C_2  and  C_4
REMARK    3  A    between atoms: C_4  and  N_5
REMARK    4  A    between atoms: N_18  and  C_21
REMARK    5  A    between atoms: C_21  and  C_22
REMARK                            x       y       z     vdW  Elec       q    Type
REMARK                         _______ _______ _______ _____ _____    ______ ____
ROOT
ATOM      1  N   UNL     1      -1.740  -0.860   1.517  0.00  0.00    -0.276 N 
ATOM      2  C   UNL     1      -1.232  -1.816   2.318  0.00  0.00    +0.264 A 
ATOM      3  O   UNL     1      -0.480  -2.664   1.871  0.00  0.00    -0.267 OA
ATOM      4  C   UNL     1      -1.590  -1.819   3.703  0.00  0.00    +0.076 A 
ATOM      5  C   UNL     1      -1.157  -2.761   4.749  0.00  0.00    -0.023 A 
ATOM      6  C   UNL     1      -1.633  -2.555   5.987  0.00  0.00    -0.004 A 
ATOM      7  S   UNL     1      -2.671  -1.118   5.848  0.00  0.00    -0.073 S 
ATOM      8  C   UNL     1      -2.461  -0.801   4.116  0.00  0.00    +0.117 A 
ATOM      9  N   UNL     1      -2.928   0.114   3.273  0.00  0.00    -0.208 NA
ATOM     10  C   UNL     1      -2.579   0.099   2.003  0.00  0.00    +0.202 A 
ATOM     11  N   UNL     1      -3.071   1.060   1.155  0.00  0.00    -0.304 N 
ATOM     12  C   UNL     1      -4.238   0.789   0.301  0.00  0.00    +0.089 C 
ATOM     13  C   UNL     1      -5.249   1.925   0.486  0.00  0.00    -0.059 C 
ATOM     14  N   UNL     1      -4.592   3.211   0.224  0.00  0.00    +0.384 N 
ATOM     15  C   UNL     1      -3.542   3.450   1.222  0.00  0.00    -0.059 C 
ATOM     16  C   UNL     1      -2.450   2.391   1.078  0.00  0.00    +0.089 C 
ATOM     17  C   UNL     1      -1.128  -3.579   6.968  0.00  0.00    +0.043 C 
ATOM     18  C   UNL     1      -0.595  -4.730   6.087  0.00  0.00    +0.010 C 
ATOM     19  C   UNL     1      -0.241  -3.988   4.783  0.00  0.00    +0.037 C 
ATOM     20  H   UNL     1      -4.180   3.195  -0.698  0.00  0.00    -0.081 HD
ENDROOT
BRANCH   1  21
ATOM     21  C   UNL     1      -1.379  -0.847   0.097  0.00  0.00    +0.158 C 
BRANCH  21  23
ATOM     22  C   UNL     1       0.017   1.337  -0.210  0.00  0.00    +0.040 C 
ATOM     23  C   UNL     1      -0.048  -0.162  -0.076  0.00  0.00    -0.060 C 
ATOM     24  C   UNL     1       1.054  -0.871  -0.111  0.00  0.00    +0.009 C 
ENDBRANCH  21  23
ENDBRANCH   1  21
BRANCH  14  25
ATOM     25  C   UNL     1      -5.586   4.291   0.293  0.00  0.00    -0.052 C 
BRANCH  25  26
ATOM     26  C   UNL     1      -4.939   5.595  -0.096  0.00  0.00    -0.053 C 
ATOM     27  C   UNL     1      -5.452   6.318  -1.062  0.00  0.00    +0.002 C 
ENDBRANCH  25  26
ENDBRANCH  14  25
TORSDOF 4
