REMARK  Name = ZINC19910772
REMARK  7 active torsions:
REMARK  status: ('A' for Active; 'I' for Inactive)
REMARK    1  A    between atoms: C_1  and  C_2
REMARK    2  A    between atoms: C_2  and  C_4
REMARK    3  A    between atoms: C_10  and  C_33
REMARK    4  A    between atoms: C_12  and  O_32
REMARK    5  A    between atoms: C_22  and  C_31
REMARK    6  A    between atoms: C_23  and  O_30
REMARK    7  A    between atoms: C_26  and  O_29
REMARK                            x       y       z     vdW  Elec       q    Type
REMARK                         _______ _______ _______ _____ _____    ______ ____
ROOT
ATOM      1  C   UNL     1      -3.940  -2.198  -4.795  0.00  0.00    +0.061 C 
ATOM      2  C   UNL     1      -5.300  -2.567  -4.144  0.00  0.00    +0.012 C 
ATOM      3  C   UNL     1      -5.134  -2.341  -2.616  0.00  0.00    +0.005 C 
ATOM      4  C   UNL     1      -3.913  -1.410  -2.538  0.00  0.00    -0.001 C 
ATOM      5  C   UNL     1      -2.987  -2.037  -3.608  0.00  0.00    -0.017 C 
ATOM      6  C   UNL     1      -1.778  -1.152  -3.788  0.00  0.00    +0.039 C 
ATOM      7  C   UNL     1      -1.063  -0.989  -2.443  0.00  0.00    +0.119 C 
ATOM      8  C   UNL     1      -1.936  -0.474  -1.314  0.00  0.00    +0.030 C 
ATOM      9  C   UNL     1      -3.202  -1.337  -1.215  0.00  0.00    -0.001 C 
ATOM     10  C   UNL     1      -4.138  -0.898  -0.097  0.00  0.00    +0.004 C 
ATOM     11  C   UNL     1      -4.413   0.603  -0.186  0.00  0.00    +0.004 C 
ATOM     12  C   UNL     1      -3.081   1.338  -0.049  0.00  0.00    +0.000 C 
ATOM     13  C   UNL     1      -2.179   1.012  -1.261  0.00  0.00    +0.002 C 
ATOM     14  C   UNL     1      -0.915   1.849  -1.020  0.00  0.00    +0.123 C 
ATOM     15  C   UNL     1      -0.159   1.332   0.197  0.00  0.00    +0.063 C 
ATOM     16  C   UNL     1      -1.042   1.573   1.428  0.00  0.00    +0.117 C 
ATOM     17  C   UNL     1      -2.389   0.879   1.236  0.00  0.00    +0.035 C 
ATOM     18  C   UNL     1      -2.838   1.575  -2.522  0.00  0.00    +0.014 C 
ATOM     19  C   UNL     1      -2.540  -3.448  -3.197  0.00  0.00    +0.012 C 
ENDROOT
BRANCH   1  21
ATOM     20  C   UNL     1      -4.462  -0.988  -7.042  0.00  0.00    +0.086 C 
ATOM     21  C   UNL     1      -4.068  -0.931  -5.589  0.00  0.00    +0.134 C 
ATOM     22  O   UNL     1      -3.855   0.135  -5.063  0.00  0.00    -0.297 OA
ENDBRANCH   1  21
BRANCH  16  23
ATOM     23  O   UNL     1      -0.391   1.046   2.586  0.00  0.00    -0.392 OA
ATOM     24  H   UNL     1      -0.873   1.124   3.571  0.00  0.00    +0.210 HD
ENDBRANCH  16  23
BRANCH  14  25
ATOM     25  O   UNL     1      -0.109   1.997  -2.167  0.00  0.00    -0.391 OA
ATOM     26  H   UNL     1       0.824   2.578  -2.112  0.00  0.00    +0.210 HD
ENDBRANCH  14  25
BRANCH   7  27
ATOM     27  O   UNL     1       0.142  -0.255  -2.604  0.00  0.00    -0.391 OA
ATOM     28  H   UNL     1       0.780  -0.047  -1.732  0.00  0.00    +0.210 HD
ENDBRANCH   7  27
TORSDOF 4
