REMARK  Name = ZINC39674133
REMARK  8 active torsions:
REMARK  status: ('A' for Active; 'I' for Inactive)
REMARK    1  A    between atoms: C_1  and  C_2
REMARK    2  A    between atoms: C_5  and  C_8
REMARK    3  A    between atoms: C_12  and  C_21
REMARK    4  A    between atoms: N_23  and  C_24
REMARK    5  A    between atoms: C_24  and  C_26
REMARK    6  A    between atoms: C_24  and  C_27
REMARK    7  A    between atoms: C_28  and  C_34
REMARK    8  A    between atoms: C_31  and  C_33
REMARK                            x       y       z     vdW  Elec       q    Type
REMARK                         _______ _______ _______ _____ _____    ______ ____
ROOT
ATOM      1  C   UNL     1      -0.276  -5.068  -0.686  0.00  0.00    +0.247 C 
ATOM      2  O   UNL     1      -0.313  -5.927  -1.546  0.00  0.00    -0.270 OA
ATOM      3  N   UNL     1      -0.136  -5.417   0.609  0.00  0.00    -0.296 N 
ATOM      4  C   UNL     1      -0.187  -4.534   1.798  0.00  0.00    +0.121 C 
ATOM      5  C   UNL     1      -0.952  -5.354   2.860  0.00  0.00    +0.100 C 
ATOM      6  C   UNL     1      -0.756  -6.820   2.441  0.00  0.00    -0.004 C 
ATOM      7  C   UNL     1       0.098  -6.771   1.165  0.00  0.00    +0.115 C 
ATOM      8  C   UNL     1      -0.026  -7.590   3.537  0.00  0.00    -0.010 C 
ATOM      9  C   UNL     1       0.106  -9.058   3.122  0.00  0.00    -0.082 C 
ATOM     10  N   UNL     1      -1.229  -9.628   2.901  0.00  0.00    +0.379 N 
ATOM     11  C   UNL     1      -1.888  -8.942   1.783  0.00  0.00    -0.082 C 
ATOM     12  C   UNL     1      -2.104  -7.469   2.142  0.00  0.00    -0.010 C 
ATOM     13  H   UNL     1      -1.142 -10.611   2.687  0.00  0.00    -0.086 HD
ATOM     14  H   UNL     1      -1.783  -9.516   3.736  0.00  0.00    -0.086 HD
ENDROOT
BRANCH   1  19
ATOM     15  C   UNL     1      -0.700   0.483  -2.141  0.00  0.00    +0.044 C 
ATOM     16  C   UNL     1      -0.589  -0.971  -1.760  0.00  0.00    -0.050 A 
ATOM     17  C   UNL     1      -1.074  -1.945  -2.613  0.00  0.00    +0.004 A 
ATOM     18  C   UNL     1      -0.976  -3.278  -2.271  0.00  0.00    +0.013 A 
ATOM     19  C   UNL     1      -0.384  -3.642  -1.060  0.00  0.00    +0.037 A 
ATOM     20  C   UNL     1       0.103  -2.654  -0.203  0.00  0.00    +0.013 A 
ATOM     21  C   UNL     1       0.004  -1.325  -0.561  0.00  0.00    +0.004 A 
ENDBRANCH   1  19
BRANCH   5  22
ATOM     22  C   UNL     1      -2.416  -4.993   2.848  0.00  0.00    +0.219 C 
ATOM     23  O   UNL     1      -2.950  -4.663   1.810  0.00  0.00    -0.275 OA
ATOM     24  N   UNL     1      -3.131  -5.038   3.989  0.00  0.00    -0.309 N 
ATOM     25  H   UNL     1      -2.703  -5.302   4.819  0.00  0.00    +0.149 HD
BRANCH  24  26
ATOM     26  C   UNL     1      -4.553  -4.688   3.977  0.00  0.00    +0.100 C 
ATOM     27  C   UNL     1      -4.706  -3.171   4.113  0.00  0.00    +0.033 C 
BRANCH  26  28
ATOM     28  C   UNL     1      -5.248  -5.368   5.128  0.00  0.00    -0.001 C 
ATOM     29  C   UNL     1      -6.316  -6.168   5.088  0.00  0.00    +0.063 C 
ATOM     30  N   UNL     1      -6.649  -6.587   6.328  0.00  0.00    -0.159 NA
ATOM     31  N   UNL     1      -5.920  -6.159   7.226  0.00  0.00    -0.180 NA
ATOM     32  C   UNL     1      -4.892  -5.308   6.603  0.00  0.00    +0.154 C 
ATOM     33  C   UNL     1      -4.991  -3.873   7.126  0.00  0.00    +0.039 C 
ATOM     34  C   UNL     1      -7.051  -6.551   3.829  0.00  0.00    +0.067 C 
ENDBRANCH  26  28
ENDBRANCH  24  26
ENDBRANCH   5  22
TORSDOF 4
