REMARK  Name = ZINC39709328
REMARK  11 active torsions:
REMARK  status: ('A' for Active; 'I' for Inactive)
REMARK    1  A    between atoms: C_1  and  C_2
REMARK    2  A    between atoms: C_2  and  C_3
REMARK    3  A    between atoms: C_3  and  C_4
REMARK    4  A    between atoms: C_8  and  S_15
REMARK    5  A    between atoms: N_10  and  C_11
REMARK    6  A    between atoms: C_11  and  C_12
REMARK    7  A    between atoms: S_15  and  C_16
REMARK    8  A    between atoms: C_16  and  C_17
REMARK    9  A    between atoms: C_17  and  C_19
REMARK   10  A    between atoms: C_24  and  C_28
REMARK   11  A    between atoms: C_28  and  C_29
REMARK                            x       y       z     vdW  Elec       q    Type
REMARK                         _______ _______ _______ _____ _____    ______ ____
ROOT
ATOM      1  S   UNL     1       4.051  -3.024  -3.040  0.00  0.00    -0.152 S 
ENDROOT
BRANCH   1   5
ATOM      2  C   UNL     1       0.739  -2.027  -1.265  0.00  0.00    +0.019 C 
ATOM      3  N   UNL     1       1.497  -2.531  -0.097  0.00  0.00    -0.271 NA
ATOM      4  N   UNL     1       2.854  -2.768  -0.614  0.00  0.00    -0.262 NA
ATOM      5  C   UNL     1       2.605  -3.299  -1.980  0.00  0.00    +0.078 C 
ATOM      6  N   UNL     1       1.444  -2.518  -2.468  0.00  0.00    +0.415 N 
ATOM      7  H   UNL     1       1.507  -1.851   0.648  0.00  0.00    +0.139 HD
ATOM      8  H   UNL     1       3.343  -3.444  -0.047  0.00  0.00    +0.139 HD
ATOM      9  H   UNL     1       1.760  -1.739  -3.026  0.00  0.00    -0.075 HD
BRANCH   2  10
ATOM     10  C   UNL     1       0.718  -0.497  -1.257  0.00  0.00    +0.001 C 
BRANCH  10  12
ATOM     11  C   UNL     1      -0.019   1.526   0.010  0.00  0.00    +0.004 C 
ATOM     12  C   UNL     1       0.002  -0.004   0.002  0.00  0.00    -0.004 C 
ENDBRANCH  10  12
ENDBRANCH   2  10
BRANCH   6  13
ATOM     13  C   UNL     1       0.553  -3.378  -3.259  0.00  0.00    +0.054 C 
BRANCH  13  14
ATOM     14  C   UNL     1       1.241  -3.770  -4.540  0.00  0.00    +0.340 C 
ATOM     15  O   UNL     1       2.369  -3.370  -4.774  0.00  0.00    -0.249 OA
ATOM     16  O   UNL     1       0.670  -4.487  -5.344  0.00  0.00    -0.249 OA
ENDBRANCH  13  14
ENDBRANCH   6  13
ENDBRANCH   1   5
BRANCH   1  17
ATOM     17  C   UNL     1       4.280  -1.224  -3.012  0.00  0.00    +0.148 C 
BRANCH  17  18
ATOM     18  C   UNL     1       5.465  -0.855  -3.866  0.00  0.00    +0.171 C 
ATOM     19  O   UNL     1       6.095  -1.722  -4.438  0.00  0.00    -0.291 OA
BRANCH  18  20
ATOM     20  C   UNL     1       5.845   0.497  -4.000  0.00  0.00    +0.024 C 
ATOM     21  C   UNL     1       6.896   1.001  -4.744  0.00  0.00    +0.006 A 
ATOM     22  C   UNL     1       7.876   0.391  -5.561  0.00  0.00    +0.010 A 
ATOM     23  C   UNL     1       8.809   1.145  -6.186  0.00  0.00    +0.001 A 
ATOM     24  C   UNL     1       8.854   2.542  -6.062  0.00  0.00    +0.005 A 
ATOM     25  C   UNL     1       7.965   3.222  -5.306  0.00  0.00    -0.024 A 
ATOM     26  C   UNL     1       6.916   2.477  -4.591  0.00  0.00    +0.046 A 
ATOM     27  N   UNL     1       5.950   2.868  -3.810  0.00  0.00    -0.380 N 
ATOM     28  C   UNL     1       5.182   1.700  -3.365  0.00  0.00    +0.152 C 
ATOM     29  H   UNL     1       5.765   3.788  -3.564  0.00  0.00    +0.160 HD
BRANCH  25  30
ATOM     30  C   UNL     1       8.046   4.723  -5.195  0.00  0.00    +0.034 C 
ATOM     31  C   UNL     1       8.841   5.100  -3.944  0.00  0.00    +0.009 C 
ENDBRANCH  25  30
ENDBRANCH  18  20
ENDBRANCH  17  18
ENDBRANCH   1  17
TORSDOF 9
