REMARK  Name = ZINC12149138
REMARK  10 active torsions:
REMARK  status: ('A' for Active; 'I' for Inactive)
REMARK    1  A    between atoms: C_1  and  O_2
REMARK    2  A    between atoms: O_2  and  C_3
REMARK    3  A    between atoms: C_6  and  C_9
REMARK    4  A    between atoms: C_9  and  C_10
REMARK    5  A    between atoms: C_10  and  N_62
REMARK    6  A    between atoms: C_11  and  N_62
REMARK    7  A    between atoms: N_22  and  C_25
REMARK    8  A    between atoms: C_25  and  C_26
REMARK    9  A    between atoms: C_31  and  O_32
REMARK   10  A    between atoms: O_32  and  C_33
REMARK                            x       y       z     vdW  Elec       q    Type
REMARK                         _______ _______ _______ _____ _____    ______ ____
ROOT
ATOM      1  C   UNL     1       1.135   6.083   2.838  0.00  0.00    -0.067 C 
ATOM      2  C   UNL     1       1.723   7.497   2.851  0.00  0.00    -0.011 C 
ATOM      3  C   UNL     1       1.962   7.946   4.293  0.00  0.00    +0.035 C 
ATOM      4  C   UNL     1       0.672   7.766   5.088  0.00  0.00    -0.023 A 
ATOM      5  C   UNL     1      -0.308   6.951   4.632  0.00  0.00    -0.006 A 
ATOM      6  S   UNL     1      -1.595   7.046   5.851  0.00  0.00    -0.073 S 
ATOM      7  C   UNL     1      -0.819   8.174   6.965  0.00  0.00    +0.116 A 
ATOM      8  C   UNL     1       0.423   8.442   6.348  0.00  0.00    +0.076 A 
ATOM      9  C   UNL     1       1.306   9.347   7.028  0.00  0.00    +0.263 A 
ATOM     10  O   UNL     1       2.401   9.644   6.581  0.00  0.00    -0.267 OA
ATOM     11  N   UNL     1       0.845   9.850   8.198  0.00  0.00    -0.294 N 
ATOM     12  C   UNL     1      -0.368   9.533   8.712  0.00  0.00    +0.203 A 
ATOM     13  N   UNL     1      -1.204   8.709   8.119  0.00  0.00    -0.230 NA
ATOM     14  C   UNL     1      -0.303   6.144   3.371  0.00  0.00    +0.027 C 
ENDROOT
BRANCH   1  15
ATOM     15  N   UNL     1       1.130   5.570   1.455  0.00  0.00    +0.381 N 
ATOM     16  H   UNL     1       0.282   5.895   0.976  0.00  0.00    -0.086 HD
ATOM     17  H   UNL     1       1.958   5.921   0.961  0.00  0.00    -0.086 HD
BRANCH  15  18
ATOM     18  C   UNL     1       1.153   4.095   1.456  0.00  0.00    -0.078 C 
BRANCH  18  19
ATOM     19  C   UNL     1       1.147   3.593   0.011  0.00  0.00    +0.016 C 
BRANCH  19  23
ATOM     20  C   UNL     1       1.213  -0.680  -0.013  0.00  0.00    +0.120 A 
ATOM     21  C   UNL     1       0.002  -0.004   0.002  0.00  0.00    +0.046 A 
ATOM     22  C   UNL     1      -0.017   1.377   0.010  0.00  0.00    +0.007 A 
ATOM     23  C   UNL     1       1.171   2.086   0.002  0.00  0.00    -0.049 A 
ATOM     24  C   UNL     1       2.379   1.415  -0.013  0.00  0.00    +0.007 A 
ATOM     25  C   UNL     1       2.403   0.033  -0.021  0.00  0.00    +0.046 A 
BRANCH  20  27
ATOM     26  C   UNL     1       2.518  -2.668  -0.036  0.00  0.00    +0.277 C 
ATOM     27  O   UNL     1       1.234  -2.039  -0.020  0.00  0.00    -0.495 OA
ENDBRANCH  20  27
ENDBRANCH  19  23
ENDBRANCH  18  19
ENDBRANCH  15  18
ENDBRANCH   1  15
BRANCH  11  28
ATOM     28  C   UNL     1       1.698  10.780   8.942  0.00  0.00    +0.165 C 
BRANCH  28  29
ATOM     29  C   UNL     1       1.408  12.191   8.498  0.00  0.00    +0.014 A 
ATOM     30  C   UNL     1       2.246  12.817   7.596  0.00  0.00    +0.009 A 
ATOM     31  C   UNL     1       1.981  14.112   7.188  0.00  0.00    +0.001 A 
ATOM     32  C   UNL     1       0.878  14.783   7.683  0.00  0.00    +0.004 A 
ATOM     33  C   UNL     1       0.037  14.160   8.585  0.00  0.00    +0.046 A 
ATOM     34  C   UNL     1       0.298  12.860   8.992  0.00  0.00    +0.125 A 
BRANCH  34  35
ATOM     35  O   UNL     1      -0.530  12.244   9.876  0.00  0.00    -0.495 OA
ATOM     36  C   UNL     1      -1.654  12.993  10.342  0.00  0.00    +0.277 C 
ENDBRANCH  34  35
ENDBRANCH  28  29
ENDBRANCH  11  28
TORSDOF 8
