REMARK  Name = ZINC02906365
REMARK  12 active torsions:
REMARK  status: ('A' for Active; 'I' for Inactive)
REMARK    1  A    between atoms: C_1  and  O_2
REMARK    2  A    between atoms: O_2  and  C_3
REMARK    3  A    between atoms: C_5  and  C_12
REMARK    4  A    between atoms: C_7  and  O_10
REMARK    5  A    between atoms: C_8  and  O_9
REMARK    6  A    between atoms: O_10  and  C_11
REMARK    7  A    between atoms: N_13  and  N_14
REMARK    8  A    between atoms: C_15  and  C_17
REMARK    9  A    between atoms: C_17  and  N_27
REMARK   10  A    between atoms: C_18  and  C_19
REMARK   11  A    between atoms: C_20  and  C_21
REMARK   12  A    between atoms: C_28  and  C_30
REMARK                            x       y       z     vdW  Elec       q    Type
REMARK                         _______ _______ _______ _____ _____    ______ ____
ROOT
ATOM      1  C   UNL     1      -9.621   0.513   0.088  0.00  0.00    +0.098 C 
ATOM      2  C   UNL     1     -10.824  -0.115  -0.019  0.00  0.00    +0.028 C 
ENDROOT
BRANCH   1   4
ATOM      3  N   UNL     1      -7.841  -0.653   1.278  0.00  0.00    -0.202 N 
ATOM      4  C   UNL     1      -8.382  -0.272   0.104  0.00  0.00    +0.277 C 
ATOM      5  O   UNL     1      -7.843  -0.580  -0.943  0.00  0.00    -0.267 OA
ATOM      6  H   UNL     1      -8.271  -0.408   2.113  0.00  0.00    +0.178 HD
BRANCH   3   8
ATOM      7  C   UNL     1      -6.136  -1.770   2.425  0.00  0.00    +0.138 C 
ATOM      8  N   UNL     1      -6.658  -1.403   1.294  0.00  0.00    -0.187 NA
BRANCH   7  11
ATOM      9  C   UNL     1      -3.161  -3.696   3.669  0.00  0.00    +0.166 A 
ATOM     10  C   UNL     1      -4.329  -2.955   3.657  0.00  0.00    +0.059 A 
ATOM     11  C   UNL     1      -4.891  -2.559   2.441  0.00  0.00    +0.002 A 
ATOM     12  C   UNL     1      -4.272  -2.914   1.240  0.00  0.00    +0.059 A 
ATOM     13  C   UNL     1      -3.104  -3.655   1.258  0.00  0.00    +0.166 A 
ATOM     14  C   UNL     1      -2.543  -4.042   2.471  0.00  0.00    +0.201 A 
BRANCH   9  16
ATOM     15  C   UNL     1      -3.300  -3.691   6.043  0.00  0.00    +0.277 C 
ATOM     16  O   UNL     1      -2.613  -4.081   4.853  0.00  0.00    -0.491 OA
ENDBRANCH   9  16
BRANCH  14  17
ATOM     17  O   UNL     1      -1.391  -4.766   2.486  0.00  0.00    -0.501 OA
ATOM     18  H   UNL     1      -1.528  -5.723   2.465  0.00  0.00    +0.292 HD
ENDBRANCH  14  17
BRANCH  13  19
ATOM     19  O   UNL     1      -2.500  -4.000   0.090  0.00  0.00    -0.491 OA
ATOM     20  C   UNL     1      -3.127  -3.565  -1.118  0.00  0.00    +0.277 C 
ENDBRANCH  13  19
ENDBRANCH   7  11
ENDBRANCH   3   8
ENDBRANCH   1   4
BRANCH   1  21
ATOM     21  N   UNL     1      -9.566   1.905   0.184  0.00  0.00    -0.277 N 
ATOM     22  C   UNL     1      -8.375   2.535   0.176  0.00  0.00    +0.248 C 
ATOM     23  O   UNL     1      -7.354   1.903  -0.016  0.00  0.00    -0.270 OA
ATOM     24  H   UNL     1     -10.386   2.419   0.255  0.00  0.00    +0.155 HD
BRANCH  22  25
ATOM     25  C   UNL     1      -8.308   3.994   0.403  0.00  0.00    +0.037 A 
ATOM     26  C   UNL     1      -9.478   4.722   0.630  0.00  0.00    +0.013 A 
ATOM     27  C   UNL     1      -9.409   6.083   0.841  0.00  0.00    +0.001 A 
ATOM     28  C   UNL     1      -8.184   6.728   0.827  0.00  0.00    +0.000 A 
ATOM     29  C   UNL     1      -7.022   6.012   0.602  0.00  0.00    +0.001 A 
ATOM     30  C   UNL     1      -7.076   4.649   0.396  0.00  0.00    +0.013 A 
ENDBRANCH  22  25
ENDBRANCH   1  21
BRANCH   2  31
ATOM     31  C   UNL     1     -10.887  -1.525  -0.007  0.00  0.00    +0.003 C 
ATOM     32  C   UNL     1     -12.088  -2.148  -0.012  0.00  0.00    +0.008 C 
BRANCH  32  33
ATOM     33  C   UNL     1     -12.154  -3.617   0.000  0.00  0.00    -0.025 A 
ATOM     34  C   UNL     1     -10.977  -4.374   0.023  0.00  0.00    +0.008 A 
ATOM     35  C   UNL     1     -11.048  -5.750   0.034  0.00  0.00    +0.001 A 
ATOM     36  C   UNL     1     -12.278  -6.384   0.024  0.00  0.00    +0.000 A 
ATOM     37  C   UNL     1     -13.447  -5.643   0.002  0.00  0.00    +0.001 A 
ATOM     38  C   UNL     1     -13.394  -4.265  -0.004  0.00  0.00    +0.008 A 
ENDBRANCH  32  33
ENDBRANCH   2  31
TORSDOF 10
