REMARK  Name = ZINC66471421
REMARK  10 active torsions:
REMARK  status: ('A' for Active; 'I' for Inactive)
REMARK    1  A    between atoms: C_1  and  C_2
REMARK    2  A    between atoms: C_5  and  N_14
REMARK    3  A    between atoms: C_7  and  C_8
REMARK    4  A    between atoms: N_10  and  C_11
REMARK    5  A    between atoms: C_11  and  C_12
REMARK    6  A    between atoms: C_11  and  C_13
REMARK    7  A    between atoms: N_14  and  C_15
REMARK    8  A    between atoms: C_15  and  C_16
REMARK    9  A    between atoms: N_21  and  C_22
REMARK   10  A    between atoms: C_28  and  C_30
REMARK                            x       y       z     vdW  Elec       q    Type
REMARK                         _______ _______ _______ _____ _____    ______ ____
ROOT
ATOM      1  N   UNL     1       0.519  -4.131  -0.102  0.00  0.00    -0.335 N 
ATOM      2  H   UNL     1       0.764  -4.611   0.705  0.00  0.00    +0.147 HD
ENDROOT
BRANCH   1   7
ATOM      3  C   UNL     1      -0.501   1.454   0.081  0.00  0.00    +0.044 C 
ATOM      4  C   UNL     1      -0.230  -0.027   0.036  0.00  0.00    -0.038 A 
ATOM      5  C   UNL     1      -0.330  -0.711  -1.159  0.00  0.00    +0.006 A 
ATOM      6  C   UNL     1      -0.082  -2.070  -1.206  0.00  0.00    +0.023 A 
ATOM      7  C   UNL     1       0.270  -2.757  -0.050  0.00  0.00    +0.028 A 
ATOM      8  C   UNL     1       0.373  -2.079   1.155  0.00  0.00    +0.036 A 
ATOM      9  C   UNL     1       0.128  -0.707   1.201  0.00  0.00    +0.041 A 
BRANCH   9  10
ATOM     10  C   UNL     1       0.243   0.025   2.481  0.00  0.00    +0.245 C 
ATOM     11  O   UNL     1       0.140   1.236   2.500  0.00  0.00    -0.270 OA
ATOM     12  N   UNL     1       0.461  -0.651   3.627  0.00  0.00    -0.309 N 
ATOM     13  H   UNL     1       0.542  -1.618   3.611  0.00  0.00    +0.149 HD
BRANCH  12  14
ATOM     14  C   UNL     1       0.574   0.073   4.895  0.00  0.00    +0.067 C 
ATOM     15  C   UNL     1       0.197  -0.857   6.049  0.00  0.00    +0.027 C 
ATOM     16  C   UNL     1       2.014   0.557   5.079  0.00  0.00    +0.027 C 
ENDBRANCH  12  14
ENDBRANCH   9  10
ENDBRANCH   1   7
BRANCH   1  17
ATOM     17  C   UNL     1       0.409  -4.847  -1.375  0.00  0.00    +0.198 C 
BRANCH  17  18
ATOM     18  C   UNL     1       0.725  -6.305  -1.160  0.00  0.00    +0.237 C 
ATOM     19  O   UNL     1       1.014  -6.706  -0.053  0.00  0.00    -0.274 OA
ATOM     20  N   UNL     1       0.687  -7.163  -2.199  0.00  0.00    -0.239 N 
ATOM     21  C   UNL     1       0.970  -8.467  -2.007  0.00  0.00    +0.306 C 
ATOM     22  O   UNL     1       1.260  -8.868  -0.897  0.00  0.00    -0.252 OA
ATOM     23  N   UNL     1       0.932  -9.325  -3.046  0.00  0.00    -0.296 N 
ATOM     24  H   UNL     1       0.457  -6.842  -3.085  0.00  0.00    +0.159 HD
ATOM     25  H   UNL     1       0.702  -9.004  -3.932  0.00  0.00    +0.151 HD
BRANCH  23  26
ATOM     26  C   UNL     1       1.240 -10.742  -2.837  0.00  0.00    +0.077 C 
ATOM     27  C   UNL     1      -0.021 -11.475  -2.375  0.00  0.00    +0.022 C 
ATOM     28  C   UNL     1       0.300 -12.954  -2.157  0.00  0.00    +0.002 C 
ATOM     29  C   UNL     1       0.795 -13.568  -3.469  0.00  0.00    +0.000 C 
ATOM     30  C   UNL     1       2.056 -12.835  -3.930  0.00  0.00    +0.005 C 
ATOM     31  C   UNL     1       1.735 -11.355  -4.148  0.00  0.00    +0.006 C 
ATOM     32  C   UNL     1       2.996 -10.622  -4.610  0.00  0.00    +0.009 C 
ENDBRANCH  23  26
ENDBRANCH  17  18
ENDBRANCH   1  17
TORSDOF 6
