REMARK  Name = ZINC39942979
REMARK  6 active torsions:
REMARK  status: ('A' for Active; 'I' for Inactive)
REMARK    1  A    between atoms: C_7  and  C_10
REMARK    2  A    between atoms: C_13  and  S_23
REMARK    3  A    between atoms: N_15  and  C_16
REMARK    4  A    between atoms: S_23  and  C_24
REMARK    5  A    between atoms: C_24  and  C_25
REMARK    6  A    between atoms: C_25  and  C_26
REMARK                            x       y       z     vdW  Elec       q    Type
REMARK                         _______ _______ _______ _____ _____    ______ ____
ROOT
ATOM      1  C   UNL     1       0.664  -3.313   0.545  0.00  0.00    +0.151 C 
ATOM      2  N   UNL     1      -0.630  -3.144   0.472  0.00  0.00    -0.169 NA
ATOM      3  N   UNL     1      -1.237  -4.172  -0.260  0.00  0.00    -0.237 N 
ATOM      4  C   UNL     1      -0.157  -5.079  -0.681  0.00  0.00    +0.241 C 
ATOM      5  N   UNL     1       1.065  -4.468  -0.133  0.00  0.00    -0.254 N 
ATOM      6  H   UNL     1      -2.183  -4.268  -0.451  0.00  0.00    +0.171 HD
ENDROOT
BRANCH   1  13
ATOM      7  C   UNL     1      -0.077   0.349   3.118  0.00  0.00    +0.001 A 
ATOM      8  C   UNL     1       1.093   0.938   3.603  0.00  0.00    +0.002 A 
ATOM      9  C   UNL     1       2.319   0.437   3.313  0.00  0.00    +0.026 A 
ATOM     10  C   UNL     1       2.434  -0.717   2.495  0.00  0.00    +0.043 A 
ATOM     11  N   UNL     1       3.489  -1.387   2.076  0.00  0.00    -0.380 N 
ATOM     12  C   UNL     1       3.050  -2.514   1.247  0.00  0.00    +0.152 C 
ATOM     13  C   UNL     1       1.539  -2.444   1.214  0.00  0.00    +0.022 C 
ATOM     14  C   UNL     1       1.198  -1.334   1.987  0.00  0.00    +0.006 A 
ATOM     15  C   UNL     1      -0.044  -0.757   2.331  0.00  0.00    +0.010 A 
ATOM     16  H   UNL     1       4.412  -1.168   2.282  0.00  0.00    +0.160 HD
ENDBRANCH   1  13
BRANCH   5  17
ATOM     17  C   UNL     1       2.371  -4.949  -0.263  0.00  0.00    +0.038 A 
ATOM     18  C   UNL     1       2.854  -5.898   0.628  0.00  0.00    +0.025 A 
ATOM     19  C   UNL     1       4.145  -6.372   0.497  0.00  0.00    +0.022 A 
ATOM     20  C   UNL     1       4.957  -5.901  -0.520  0.00  0.00    +0.041 A 
ATOM     21  C   UNL     1       4.477  -4.955  -1.409  0.00  0.00    +0.022 A 
ATOM     22  C   UNL     1       3.186  -4.482  -1.287  0.00  0.00    +0.025 A 
ATOM     23 CL   UNL     1       6.579  -6.498  -0.681  0.00  0.00    -0.084 Cl
ENDBRANCH   5  17
BRANCH   4  24
ATOM     24  S   UNL     1      -0.066  -5.160  -2.491  0.00  0.00    -0.117 S 
BRANCH  24  25
ATOM     25  C   UNL     1       0.219  -3.440  -2.993  0.00  0.00    +0.081 C 
BRANCH  25  26
ATOM     26  C   UNL     1       0.317  -3.364  -4.518  0.00  0.00    +0.124 C 
BRANCH  26  27
ATOM     27  C   UNL     1       0.557  -1.914  -4.942  0.00  0.00    +0.391 C 
ATOM     28  F   UNL     1       1.750  -1.454  -4.374  0.00  0.00    -0.171 F 
ATOM     29  F   UNL     1       0.647  -1.844  -6.336  0.00  0.00    -0.171 F 
ATOM     30  F   UNL     1      -0.506  -1.117  -4.503  0.00  0.00    -0.171 F 
ENDBRANCH  26  27
ENDBRANCH  25  26
ENDBRANCH  24  25
ENDBRANCH   4  24
TORSDOF 6
