REMARK  Name = ZINC24718520
REMARK  11 active torsions:
REMARK  status: ('A' for Active; 'I' for Inactive)
REMARK    1  A    between atoms: C_1  and  C_2
REMARK    2  A    between atoms: C_2  and  O_4
REMARK    3  A    between atoms: O_4  and  C_5
REMARK    4  A    between atoms: C_5  and  C_6
REMARK    5  A    between atoms: C_8  and  O_29
REMARK    6  A    between atoms: C_10  and  N_13
REMARK    7  A    between atoms: C_10  and  O_25
REMARK    8  A    between atoms: O_25  and  C_26
REMARK    9  A    between atoms: C_26  and  C_28
REMARK   10  A    between atoms: O_29  and  C_30
REMARK   11  A    between atoms: C_30  and  C_32
REMARK                            x       y       z     vdW  Elec       q    Type
REMARK                         _______ _______ _______ _____ _____    ______ ____
ROOT
ATOM      1  C   UNL     1       1.992   0.738   0.420  0.00  0.00    +0.202 C 
ATOM      2  C   UNL     1       1.770   1.649  -0.814  0.00  0.00    +0.273 C 
ATOM      3  C   UNL     1       3.216   2.079  -1.164  0.00  0.00    +0.246 C 
ATOM      4  C   UNL     1       4.004   1.849   0.140  0.00  0.00    +0.233 C 
ATOM      5  O   UNL     1       3.069   1.387   1.129  0.00  0.00    -0.363 OA
ENDROOT
BRANCH   3   6
ATOM      6  N   UNL     1       3.752   1.243  -2.241  0.00  0.00    -0.254 N 
ATOM      7  C   UNL     1       3.177   0.128  -2.846  0.00  0.00    +0.184 C 
ATOM      8  N   UNL     1       4.070  -0.700  -3.322  0.00  0.00    -0.260 NA
ATOM      9  C   UNL     1       5.374  -0.156  -3.000  0.00  0.00    +0.235 C 
ATOM     10  C   UNL     1       5.025   1.369  -2.943  0.00  0.00    +0.230 C 
ATOM     11  N   UNL     1       6.162   2.001  -2.317  0.00  0.00    -0.251 NA
ATOM     12  C   UNL     1       7.333   1.642  -2.783  0.00  0.00    +0.184 C 
ATOM     13  N   UNL     1       7.445   0.733  -3.817  0.00  0.00    -0.275 N 
ATOM     14  C   UNL     1       6.508  -0.256  -3.962  0.00  0.00    +0.246 C 
ATOM     15  O   UNL     1       6.593  -1.132  -4.796  0.00  0.00    -0.273 OA
ATOM     16  H   UNL     1       8.286   0.803  -4.523  0.00  0.00    +0.156 HD
ENDBRANCH   3   6
BRANCH   1  17
ATOM     17  C   UNL     1       0.731   0.686   1.285  0.00  0.00    +0.267 C 
BRANCH  17  18
ATOM     18  O   UNL     1       0.925  -0.264   2.366  0.00  0.00    -0.462 OA
BRANCH  18  20
ATOM     19  C   UNL     1       0.033  -1.398   4.369  0.00  0.00    +0.136 C 
ATOM     20  C   UNL     1      -0.095  -0.429   3.222  0.00  0.00    +0.304 C 
ATOM     21  O   UNL     1      -1.117   0.199   3.073  0.00  0.00    -0.251 OA
ENDBRANCH  18  20
ENDBRANCH  17  18
ENDBRANCH   1  17
BRANCH   3  22
ATOM     22  O   UNL     1       3.252   3.481  -1.540  0.00  0.00    -0.434 OA
BRANCH  22  23
ATOM     23  C   UNL     1       2.602   3.828  -2.662  0.00  0.00    +0.306 C 
ATOM     24  O   UNL     1       2.100   2.977  -3.357  0.00  0.00    -0.251 OA
ATOM     25  C   UNL     1       2.497   5.279  -3.054  0.00  0.00    +0.136 C 
ENDBRANCH  22  23
ENDBRANCH   3  22
BRANCH   2  26
ATOM     26  O   UNL     1       0.957   2.801  -0.468  0.00  0.00    -0.453 OA
BRANCH  26  27
ATOM     27  C   UNL     1      -0.355   2.724  -0.740  0.00  0.00    +0.304 C 
ATOM     28  O   UNL     1      -0.809   1.728  -1.250  0.00  0.00    -0.251 OA
ATOM     29  C   UNL     1      -1.261   3.884  -0.414  0.00  0.00    +0.136 C 
ENDBRANCH  26  27
ENDBRANCH   2  26
TORSDOF 8
