REMARK  Name = ZINC08749387
REMARK  12 active torsions:
REMARK  status: ('A' for Active; 'I' for Inactive)
REMARK    1  A    between atoms: C_1  and  C_2
REMARK    2  A    between atoms: C_3  and  C_12
REMARK    3  A    between atoms: C_14  and  C_19
REMARK    4  A    between atoms: C_16  and  C_17
REMARK    5  A    between atoms: C_16  and  C_18
REMARK    6  A    between atoms: C_19  and  C_20
REMARK    7  A    between atoms: N_22  and  C_23
REMARK    8  A    between atoms: N_22  and  C_30
REMARK    9  A    between atoms: C_23  and  C_24
REMARK   10  A    between atoms: C_30  and  C_36
REMARK   11  A    between atoms: C_35  and  N_98
REMARK   12  A    between atoms: N_38  and  C_39
REMARK                            x       y       z     vdW  Elec       q    Type
REMARK                         _______ _______ _______ _____ _____    ______ ____
ROOT
ATOM      1  C   UNL     1      -1.592   1.537  -3.239  0.00  0.00    +0.217 C 
ATOM      2  O   UNL     1      -0.687   1.958  -3.928  0.00  0.00    -0.276 OA
ATOM      3  N   UNL     1      -2.693   1.018  -3.816  0.00  0.00    -0.283 N 
ENDROOT
BRANCH   3   4
ATOM      4  C   UNL     1      -2.754   0.865  -5.272  0.00  0.00    +0.110 C 
ATOM      5  C   UNL     1      -3.960  -0.001  -5.645  0.00  0.00    +0.017 C 
ATOM      6  C   UNL     1      -3.789  -1.395  -5.038  0.00  0.00    -0.077 C 
ATOM      7  C   UNL     1      -1.375  -1.213  -5.158  0.00  0.00    -0.077 C 
ATOM      8  C   UNL     1      -1.475   0.186  -5.769  0.00  0.00    +0.017 C 
ATOM      9  C   UNL     1      -2.424  -3.394  -5.091  0.00  0.00    -0.096 C 
ATOM     10  N   UNL     1      -2.553  -2.004  -5.574  0.00  0.00    +0.378 N 
ATOM     11  H   UNL     1      -2.604  -2.011  -6.600  0.00  0.00    -0.082 HD
BRANCH   4  12
ATOM     12  C   UNL     1      -2.888   2.221  -5.916  0.00  0.00    +0.237 C 
ATOM     13  O   UNL     1      -2.479   2.399  -7.044  0.00  0.00    -0.273 OA
ATOM     14  N   UNL     1      -3.461   3.235  -5.238  0.00  0.00    -0.308 N 
ATOM     15  H   UNL     1      -3.728   3.111  -4.314  0.00  0.00    +0.149 HD
BRANCH  14  16
ATOM     16  C   UNL     1      -3.680   4.525  -5.898  0.00  0.00    +0.035 C 
ATOM     17  C   UNL     1      -2.339   5.090  -6.370  0.00  0.00    +0.029 C 
ATOM     18  C   UNL     1      -2.568   6.437  -7.059  0.00  0.00    -0.008 C 
ATOM     19  C   UNL     1      -3.213   7.412  -6.071  0.00  0.00    +0.007 C 
ATOM     20  C   UNL     1      -4.554   6.846  -5.598  0.00  0.00    -0.008 C 
ATOM     21  C   UNL     1      -4.325   5.500  -4.910  0.00  0.00    +0.029 C 
ATOM     22  C   UNL     1      -5.479   6.654  -6.802  0.00  0.00    +0.007 C 
ATOM     23  C   UNL     1      -4.834   5.679  -7.790  0.00  0.00    -0.008 C 
ATOM     24  C   UNL     1      -3.493   6.245  -8.262  0.00  0.00    +0.007 C 
ATOM     25  C   UNL     1      -4.605   4.332  -7.101  0.00  0.00    +0.029 C 
ENDBRANCH  14  16
ENDBRANCH   4  12
ENDBRANCH   3   4
BRANCH   1  26
ATOM     26  C   UNL     1      -1.484   1.593  -1.737  0.00  0.00    +0.100 C 
BRANCH  26  28
ATOM     27  C   UNL     1       0.611   1.265  -0.204  0.00  0.00    +0.031 C 
ATOM     28  C   UNL     1      -0.070   2.027  -1.343  0.00  0.00    +0.012 C 
ATOM     29  C   UNL     1       0.110   2.693   0.024  0.00  0.00    -0.024 C 
ATOM     30  C   UNL     1      -1.137   2.875   0.891  0.00  0.00    +0.012 C 
ATOM     31  C   UNL     1       1.160   3.800   0.137  0.00  0.00    +0.012 C 
BRANCH  27  34
ATOM     32  C   UNL     1      -0.380  -1.322  -1.604  0.00  0.00    +0.063 C 
ATOM     33  C   UNL     1      -0.595  -0.977  -0.153  0.00  0.00    +0.017 A 
ATOM     34  C   UNL     1      -0.162   0.145   0.444  0.00  0.00    -0.016 A 
ATOM     35  C   UNL     1      -0.590   0.077   1.843  0.00  0.00    +0.003 A 
ATOM     36  C   UNL     1      -0.449   0.926   2.943  0.00  0.00    +0.010 A 
ATOM     37  C   UNL     1      -0.979   0.566   4.150  0.00  0.00    +0.001 A 
ATOM     38  C   UNL     1      -1.655  -0.638   4.292  0.00  0.00    +0.002 A 
ATOM     39  C   UNL     1      -1.805  -1.491   3.220  0.00  0.00    +0.026 A 
ATOM     40  C   UNL     1      -1.274  -1.144   1.982  0.00  0.00    +0.047 A 
ATOM     41  N   UNL     1      -1.256  -1.761   0.752  0.00  0.00    -0.358 N 
ATOM     42  H   UNL     1      -1.657  -2.623   0.555  0.00  0.00    +0.166 HD
ENDBRANCH  27  34
ENDBRANCH  26  28
ENDBRANCH   1  26
BRANCH   3  43
ATOM     43  C   UNL     1      -3.830   0.607  -2.988  0.00  0.00    +0.144 C 
BRANCH  43  44
ATOM     44  C   UNL     1      -4.582   1.829  -2.526  0.00  0.00    -0.030 A 
ATOM     45  C   UNL     1      -4.466   2.258  -1.217  0.00  0.00    +0.005 A 
ATOM     46  C   UNL     1      -5.152   3.381  -0.795  0.00  0.00    +0.000 A 
ATOM     47  C   UNL     1      -5.963   4.069  -1.678  0.00  0.00    +0.000 A 
ATOM     48  C   UNL     1      -6.083   3.637  -2.986  0.00  0.00    +0.000 A 
ATOM     49  C   UNL     1      -5.393   2.517  -3.410  0.00  0.00    +0.005 A 
ENDBRANCH  43  44
ENDBRANCH   3  43
TORSDOF 8
