REMARK  Name = ZINC62727991
REMARK  10 active torsions:
REMARK  status: ('A' for Active; 'I' for Inactive)
REMARK    1  A    between atoms: C_1  and  C_2
REMARK    2  A    between atoms: C_4  and  C_7
REMARK    3  A    between atoms: C_7  and  O_8
REMARK    4  A    between atoms: O_8  and  C_9
REMARK    5  A    between atoms: C_12  and  C_16
REMARK    6  A    between atoms: C_16  and  N_17
REMARK    7  A    between atoms: N_17  and  C_18
REMARK    8  A    between atoms: C_18  and  C_19
REMARK    9  A    between atoms: C_18  and  C_20
REMARK   10  A    between atoms: C_18  and  C_21
REMARK                            x       y       z     vdW  Elec       q    Type
REMARK                         _______ _______ _______ _____ _____    ______ ____
ROOT
ATOM      1  C   UNL     1       1.579  -4.766  -2.723  0.00  0.00    +0.135 A 
ATOM      2  C   UNL     1       0.486  -5.457  -3.225  0.00  0.00    +0.047 A 
ATOM      3  C   UNL     1       0.681  -6.556  -4.040  0.00  0.00    +0.005 A 
ATOM      4  C   UNL     1       1.963  -6.966  -4.355  0.00  0.00    -0.063 A 
ATOM      5  C   UNL     1       3.054  -6.279  -3.856  0.00  0.00    +0.020 A 
ATOM      6  C   UNL     1       2.865  -5.176  -3.045  0.00  0.00    +0.060 A 
ATOM      7 BR   UNL     1       4.357  -4.231  -2.370  0.00  0.00    -0.047 Br
ENDROOT
BRANCH   1   8
ATOM      8  O   UNL     1       1.390  -3.684  -1.921  0.00  0.00    -0.483 OA
BRANCH   8   9
ATOM      9  C   UNL     1       0.039  -3.320  -1.631  0.00  0.00    +0.306 C 
BRANCH   9  13
ATOM     10  C   UNL     1      -0.018   1.503   0.010  0.00  0.00    +0.069 C 
ATOM     11  C   UNL     1       0.002  -0.004   0.002  0.00  0.00    +0.081 A 
ATOM     12  C   UNL     1       0.008  -0.824  -1.141  0.00  0.00    +0.074 A 
ATOM     13  C   UNL     1       0.027  -2.108  -0.735  0.00  0.00    +0.175 A 
ATOM     14  O   UNL     1       0.034  -2.119   0.606  0.00  0.00    -0.356 OA
ATOM     15  N   UNL     1       0.023  -0.775   1.052  0.00  0.00    -0.083 NA
ENDBRANCH   9  13
ENDBRANCH   8   9
ENDBRANCH   1   8
BRANCH   4  16
ATOM     16  C   UNL     1       2.172  -8.166  -5.244  0.00  0.00    -0.046 C 
BRANCH  16  17
ATOM     17  N   UNL     1       2.229  -7.732  -6.646  0.00  0.00    +0.385 N 
ATOM     18  H   UNL     1       1.363  -7.276  -6.893  0.00  0.00    -0.085 HD
ATOM     19  H   UNL     1       2.995  -7.086  -6.767  0.00  0.00    -0.085 HD
BRANCH  17  20
ATOM     20  C   UNL     1       2.433  -8.900  -7.513  0.00  0.00    -0.077 C 
ATOM     21  C   UNL     1       1.271  -9.880  -7.329  0.00  0.00    -0.011 C 
ATOM     22  C   UNL     1       2.493  -8.448  -8.973  0.00  0.00    -0.011 C 
ATOM     23  C   UNL     1       3.746  -9.591  -7.138  0.00  0.00    -0.011 C 
ENDBRANCH  17  20
ENDBRANCH  16  17
ENDBRANCH   4  16
TORSDOF 6
