REMARK  Name = ZINC20758666
REMARK  9 active torsions:
REMARK  status: ('A' for Active; 'I' for Inactive)
REMARK    1  A    between atoms: C_1  and  C_2
REMARK    2  A    between atoms: C_2  and  C_3
REMARK    3  A    between atoms: C_3  and  C_4
REMARK    4  A    between atoms: C_4  and  C_5
REMARK    5  A    between atoms: C_5  and  C_6
REMARK    6  A    between atoms: C_6  and  N_7
REMARK    7  A    between atoms: C_9  and  C_16
REMARK    8  A    between atoms: N_30  and  C_31
REMARK    9  A    between atoms: C_31  and  C_32
REMARK                            x       y       z     vdW  Elec       q    Type
REMARK                         _______ _______ _______ _____ _____    ______ ____
ROOT
ATOM      1  C   UNL     1       2.515   1.219  -0.015  0.00  0.00    +0.021 C 
ATOM      2  C   UNL     1       2.661   0.455  -1.310  0.00  0.00    +0.011 A 
ATOM      3  C   UNL     1       3.134  -0.811  -1.369  0.00  0.00    -0.022 A 
ATOM      4  C   UNL     1       3.128  -1.204  -2.760  0.00  0.00    +0.003 A 
ATOM      5  C   UNL     1       3.500  -2.382  -3.417  0.00  0.00    +0.010 A 
ATOM      6  C   UNL     1       3.359  -2.402  -4.782  0.00  0.00    +0.001 A 
ATOM      7  C   UNL     1       2.872  -1.315  -5.489  0.00  0.00    +0.002 A 
ATOM      8  C   UNL     1       2.497  -0.137  -4.865  0.00  0.00    +0.026 A 
ATOM      9  C   UNL     1       2.628  -0.087  -3.479  0.00  0.00    +0.047 A 
ATOM     10  N   UNL     1       2.357   0.895  -2.569  0.00  0.00    -0.359 N 
ATOM     11  H   UNL     1       1.958   1.909  -2.716  0.00  0.00    +0.166 HD
ATOM     12  C   UNL     1       3.568  -1.594  -0.155  0.00  0.00    +0.019 C 
ATOM     13  C   UNL     1       3.752  -0.607   1.005  0.00  0.00    -0.073 C 
ATOM     14  N   UNL     1       2.571   0.262   1.101  0.00  0.00    +0.388 N 
ATOM     15  H   UNL     1       1.681  -0.382   1.035  0.00  0.00    -0.080 HD
ENDROOT
BRANCH   1  18
ATOM     16  N   UNL     1      -0.071   3.936   0.024  0.00  0.00    -0.261 N 
ATOM     17  C   UNL     1       1.145   3.302   0.009  0.00  0.00    +0.262 A 
ATOM     18  C   UNL     1       1.191   1.939   0.001  0.00  0.00    +0.074 A 
ATOM     19  C   UNL     1      -0.015   1.215   0.009  0.00  0.00    +0.260 A 
ATOM     20  O   UNL     1       0.002  -0.004   0.002  0.00  0.00    -0.267 OA
ATOM     21  N   UNL     1      -1.188   1.877   0.018  0.00  0.00    -0.275 N 
ATOM     22  H   UNL     1      -2.131   1.310   0.015  0.00  0.00    +0.173 HD
ATOM     23  C   UNL     1      -1.212   3.223   0.031  0.00  0.00    +0.332 A 
ATOM     24  O   UNL     1      -2.281   3.802   0.044  0.00  0.00    -0.246 OA
ATOM     25  O   UNL     1       2.287   4.021   0.001  0.00  0.00    -0.267 OA
BRANCH  16  26
ATOM     26  C   UNL     1      -0.129   5.400   0.033  0.00  0.00    +0.130 C 
BRANCH  26  27
ATOM     27  C   UNL     1      -0.162   5.918  -1.406  0.00  0.00    +0.022 C 
BRANCH  27  28
ATOM     28  C   UNL     1      -0.222   7.447  -1.397  0.00  0.00    +0.002 C 
BRANCH  28  29
ATOM     29  C   UNL     1      -0.255   7.964  -2.836  0.00  0.00    -0.000 C 
BRANCH  29  31
ATOM     30  C   UNL     1      -0.348  10.011  -4.266  0.00  0.00    +0.004 C 
ATOM     31  C   UNL     1      -0.315   9.493  -2.827  0.00  0.00    -0.003 C 
ENDBRANCH  29  31
ENDBRANCH  28  29
ENDBRANCH  27  28
ENDBRANCH  26  27
ENDBRANCH  16  26
ENDBRANCH   1  18
BRANCH  14  32
ATOM     32  C   UNL     1       2.532   0.957   2.394  0.00  0.00    -0.081 C 
ATOM     33  C   UNL     1       2.340  -0.064   3.517  0.00  0.00    -0.017 C 
ENDBRANCH  14  32
TORSDOF 7
