REMARK  Name = ZINC22698093
REMARK  9 active torsions:
REMARK  status: ('A' for Active; 'I' for Inactive)
REMARK    1  A    between atoms: C_1  and  C_2
REMARK    2  A    between atoms: C_2  and  O_3
REMARK    3  A    between atoms: O_3  and  C_4
REMARK    4  A    between atoms: N_9  and  C_12
REMARK    5  A    between atoms: C_12  and  C_14
REMARK    6  A    between atoms: C_12  and  C_21
REMARK    7  A    between atoms: C_24  and  C_35
REMARK    8  A    between atoms: N_25  and  C_28
REMARK    9  A    between atoms: C_28  and  C_29
REMARK                            x       y       z     vdW  Elec       q    Type
REMARK                         _______ _______ _______ _____ _____    ______ ____
ROOT
ATOM      1  C   UNL     1       1.470   3.169   0.364  0.00  0.00    +0.126 C 
ENDROOT
BRANCH   1   2
ATOM      2  C   UNL     1       1.312   1.673   0.446  0.00  0.00    +0.085 A 
ATOM      3  C   UNL     1       0.179   1.119   1.014  0.00  0.00    +0.191 A 
ATOM      4  C   UNL     1       0.062  -0.284   1.074  0.00  0.00    +0.072 A 
ATOM      5  C   UNL     1       1.050  -1.062   0.581  0.00  0.00    +0.023 A 
ATOM      6  N   UNL     1       2.160  -0.510   0.025  0.00  0.00    -0.308 N 
ATOM      7  C   UNL     1       2.309   0.825  -0.051  0.00  0.00    +0.260 A 
ATOM      8  O   UNL     1       3.315   1.299  -0.556  0.00  0.00    -0.267 OA
ATOM      9  C   UNL     1       0.920  -2.562   0.650  0.00  0.00    +0.064 C 
ATOM     10  O   UNL     1      -0.805   1.913   1.499  0.00  0.00    -0.287 OA
BRANCH   6  11
ATOM     11  C   UNL     1       3.213  -1.383  -0.501  0.00  0.00    +0.161 C 
BRANCH  11  12
ATOM     12  C   UNL     1       4.278  -1.573   0.548  0.00  0.00    -0.010 A 
ATOM     13  C   UNL     1       4.236  -2.665   1.402  0.00  0.00    +0.008 A 
ATOM     14  C   UNL     1       5.238  -2.799   2.351  0.00  0.00    +0.020 A 
ATOM     15  C   UNL     1       6.238  -1.847   2.414  0.00  0.00    +0.111 A 
ATOM     16  N   UNL     1       6.246  -0.821   1.586  0.00  0.00    -0.263 NA
ATOM     17  C   UNL     1       5.313  -0.665   0.667  0.00  0.00    +0.116 A 
ENDBRANCH  11  12
ENDBRANCH   6  11
ENDBRANCH   1   2
BRANCH   1  23
ATOM     18  C   UNL     1       0.949   5.440  -4.537  0.00  0.00    +0.403 C 
ATOM     19  O   UNL     1       0.211   4.899  -5.337  0.00  0.00    -0.226 OA
ATOM     20  N   UNL     1       1.497   4.725  -3.534  0.00  0.00    -0.265 N 
ATOM     21  C   UNL     1       1.214   3.288  -3.390  0.00  0.00    +0.126 C 
ATOM     22  C   UNL     1       0.767   3.023  -1.948  0.00  0.00    +0.104 C 
ATOM     23  N   UNL     1       1.775   3.554  -1.021  0.00  0.00    -0.288 NA
ATOM     24  C   UNL     1       1.899   5.012  -1.147  0.00  0.00    +0.104 C 
ATOM     25  C   UNL     1       2.393   5.359  -2.556  0.00  0.00    +0.126 C 
BRANCH  18  26
ATOM     26  O   UNL     1       1.220   6.754  -4.652  0.00  0.00    -0.451 OA
BRANCH  26  28
ATOM     27  C   UNL     1       1.018   8.931  -5.724  0.00  0.00    +0.048 C 
ATOM     28  C   UNL     1       0.596   7.461  -5.756  0.00  0.00    +0.230 C 
ENDBRANCH  26  28
ENDBRANCH  18  26
ENDBRANCH   1  23
BRANCH   1  29
ATOM     29  C   UNL     1       2.597   3.605   1.265  0.00  0.00    -0.025 A 
ATOM     30  C   UNL     1       3.896   3.609   0.795  0.00  0.00    +0.008 A 
ATOM     31  C   UNL     1       4.929   4.014   1.619  0.00  0.00    +0.038 A 
ATOM     32  C   UNL     1       4.663   4.405   2.920  0.00  0.00    +0.123 A 
ATOM     33  C   UNL     1       3.361   4.396   3.392  0.00  0.00    +0.038 A 
ATOM     34  C   UNL     1       2.330   3.996   2.564  0.00  0.00    +0.008 A 
ATOM     35  F   UNL     1       5.673   4.795   3.728  0.00  0.00    -0.205 F 
ENDBRANCH   1  29
TORSDOF 7
