REMARK  Name = ZINC36207623
REMARK  11 active torsions:
REMARK  status: ('A' for Active; 'I' for Inactive)
REMARK    1  A    between atoms: C_1  and  C_2
REMARK    2  A    between atoms: C_7  and  O_8
REMARK    3  A    between atoms: O_8  and  C_9
REMARK    4  A    between atoms: C_9  and  C_10
REMARK    5  A    between atoms: C_10  and  C_12
REMARK    6  A    between atoms: C_10  and  O_33
REMARK    7  A    between atoms: C_12  and  N_13
REMARK    8  A    between atoms: N_13  and  C_14
REMARK    9  A    between atoms: N_13  and  C_15
REMARK   10  A    between atoms: C_15  and  C_16
REMARK   11  A    between atoms: C_22  and  C_27
REMARK                            x       y       z     vdW  Elec       q    Type
REMARK                         _______ _______ _______ _____ _____    ______ ____
ROOT
ATOM      1  C   UNL     1      -0.154  -0.646   8.464  0.00  0.00    -0.003 C 
ENDROOT
BRANCH   1   2
ATOM      2  C   UNL     1      -0.154   0.273   9.659  0.00  0.00    +0.094 A 
ATOM      3  N   UNL     1      -0.130  -0.258  10.908  0.00  0.00    -0.312 N 
ATOM      4  H   UNL     1      -0.112  -1.222  11.015  0.00  0.00    +0.170 HD
ATOM      5  C   UNL     1      -0.129   0.527  12.001  0.00  0.00    +0.260 A 
ATOM      6  O   UNL     1      -0.106   0.035  13.116  0.00  0.00    -0.267 OA
ATOM      7  C   UNL     1      -0.154   1.948  11.835  0.00  0.00    +0.080 A 
ATOM      8  C   UNL     1      -0.158   2.996  12.848  0.00  0.00    +0.004 A 
ATOM      9  C   UNL     1      -0.184   4.290  12.448  0.00  0.00    +0.056 A 
ATOM     10  S   UNL     1      -0.206   4.171  10.669  0.00  0.00    -0.076 S 
ATOM     11  C   UNL     1      -0.179   2.405  10.507  0.00  0.00    +0.116 A 
ATOM     12  N   UNL     1      -0.173   1.566   9.474  0.00  0.00    -0.229 NA
BRANCH   8  13
ATOM     13  C   UNL     1      -0.134   2.652  14.290  0.00  0.00    -0.017 A 
ATOM     14  C   UNL     1      -1.033   1.717  14.801  0.00  0.00    +0.008 A 
ATOM     15  C   UNL     1      -1.006   1.401  16.144  0.00  0.00    +0.001 A 
ATOM     16  C   UNL     1      -0.089   2.009  16.983  0.00  0.00    +0.000 A 
ATOM     17  C   UNL     1       0.805   2.938  16.481  0.00  0.00    +0.001 A 
ATOM     18  C   UNL     1       0.791   3.259  15.139  0.00  0.00    +0.008 A 
ENDBRANCH   8  13
ENDBRANCH   1   2
BRANCH   1  19
ATOM     19  N   UNL     1      -0.176   0.154   7.232  0.00  0.00    +0.384 N 
ATOM     20  C   UNL     1      -1.442   0.895   7.152  0.00  0.00    -0.095 C 
ATOM     21  H   UNL     1       0.595   0.805   7.239  0.00  0.00    -0.082 HD
BRANCH  19  22
ATOM     22  C   UNL     1      -0.055  -0.735   6.069  0.00  0.00    -0.044 C 
BRANCH  22  23
ATOM     23  C   UNL     1       0.047   0.104   4.793  0.00  0.00    +0.135 C 
BRANCH  23  24
ATOM     24  O   UNL     1       1.258   0.862   4.818  0.00  0.00    -0.390 OA
ATOM     25  H   UNL     1       2.059   0.322   4.869  0.00  0.00    +0.210 HD
ENDBRANCH  23  24
BRANCH  23  26
ATOM     26  C   UNL     1       0.048  -0.820   3.574  0.00  0.00    +0.258 C 
BRANCH  26  27
ATOM     27  O   UNL     1       0.025  -0.033   2.381  0.00  0.00    -0.489 OA
BRANCH  27  34
ATOM     28  C   UNL     1      -0.018   1.503   0.010  0.00  0.00    +0.047 C 
ATOM     29  C   UNL     1       0.002  -0.004   0.002  0.00  0.00    -0.009 A 
ATOM     30  C   UNL     1       0.006  -0.689  -1.198  0.00  0.00    +0.007 A 
ATOM     31  C   UNL     1       0.024  -2.071  -1.206  0.00  0.00    +0.000 A 
ATOM     32  C   UNL     1       0.039  -2.772  -0.014  0.00  0.00    +0.004 A 
ATOM     33  C   UNL     1       0.036  -2.092   1.188  0.00  0.00    +0.046 A 
ATOM     34  C   UNL     1       0.023  -0.705   1.199  0.00  0.00    +0.124 A 
ENDBRANCH  27  34
ENDBRANCH  26  27
ENDBRANCH  23  26
ENDBRANCH  22  23
ENDBRANCH  19  22
ENDBRANCH   1  19
TORSDOF 9
