REMARK  Name = ZINC25163182
REMARK  6 active torsions:
REMARK  status: ('A' for Active; 'I' for Inactive)
REMARK    1  A    between atoms: C_1  and  C_2
REMARK    2  A    between atoms: C_3  and  C_23
REMARK    3  A    between atoms: C_8  and  C_10
REMARK    4  A    between atoms: C_10  and  C_11
REMARK    5  A    between atoms: C_11  and  N_12
REMARK    6  A    between atoms: N_27  and  C_28
REMARK                            x       y       z     vdW  Elec       q    Type
REMARK                         _______ _______ _______ _____ _____    ______ ____
ROOT
ATOM      1  C   UNL     1      -5.669  11.570  -0.828  0.00  0.00    +0.067 C 
ATOM      2  C   UNL     1      -5.097  11.084  -2.135  0.00  0.00    +0.058 A 
ATOM      3  C   UNL     1      -5.369  11.738  -3.312  0.00  0.00    +0.079 A 
ATOM      4  S   UNL     1      -4.443  10.736  -4.467  0.00  0.00    -0.049 S 
ATOM      5  C   UNL     1      -3.821   9.588  -3.323  0.00  0.00    +0.165 A 
ATOM      6  N   UNL     1      -4.326  10.023  -2.182  0.00  0.00    -0.229 NA
ATOM      7  N   UNL     1      -2.997   8.495  -3.548  0.00  0.00    -0.265 N 
ATOM      8  C   UNL     1      -2.612   7.717  -2.517  0.00  0.00    +0.220 C 
ATOM      9  O   UNL     1      -2.987   7.972  -1.392  0.00  0.00    -0.275 OA
ATOM     10  H   UNL     1      -2.657   8.263  -4.569  0.00  0.00    +0.157 HD
ENDROOT
BRANCH   3  11
ATOM     11  C   UNL     1      -6.189  12.935  -3.554  0.00  0.00    +0.153 A 
ATOM     12  N   UNL     1      -7.398  13.152  -3.077  0.00  0.00    -0.235 NA
ATOM     13  C   UNL     1      -7.834  14.344  -3.504  0.00  0.00    +0.131 A 
ATOM     14  C   UNL     1      -6.876  14.899  -4.271  0.00  0.00    +0.112 A 
ATOM     15  N   UNL     1      -5.825  14.016  -4.306  0.00  0.00    -0.273 N 
BRANCH  15  16
ATOM     16  C   UNL     1      -4.557  14.197  -5.017  0.00  0.00    +0.449 C 
ATOM     17  F   UNL     1      -4.325  15.563  -5.215  0.00  0.00    -0.185 F 
ATOM     18  F   UNL     1      -3.515  13.653  -4.258  0.00  0.00    -0.185 F 
ENDBRANCH  15  16
ENDBRANCH   3  11
BRANCH   8  19
ATOM     19  C   UNL     1      -1.717   6.529  -2.763  0.00  0.00    +0.118 C 
BRANCH  19  20
ATOM     20  C   UNL     1      -1.434   5.822  -1.436  0.00  0.00    +0.138 C 
BRANCH  20  21
ATOM     21  N   UNL     1      -0.564   4.668  -1.674  0.00  0.00    -0.274 N 
ATOM     22  C   UNL     1      -0.978   3.367  -1.961  0.00  0.00    +0.090 A 
ATOM     23  C   UNL     1      -2.224   2.775  -2.106  0.00  0.00    +0.031 A 
ATOM     24  C   UNL     1      -2.315   1.430  -2.404  0.00  0.00    +0.022 A 
ATOM     25  C   UNL     1      -1.166   0.669  -2.547  0.00  0.00    +0.045 A 
ATOM     26  C   UNL     1       0.079   1.252  -2.404  0.00  0.00    +0.068 A 
ATOM     27  C   UNL     1       0.179   2.603  -2.110  0.00  0.00    +0.158 A 
ATOM     28  O   UNL     1       1.235   3.431  -1.917  0.00  0.00    -0.407 OA
ATOM     29  C   UNL     1       0.784   4.668  -1.656  0.00  0.00    +0.421 A 
ATOM     30  O   UNL     1       1.483   5.638  -1.436  0.00  0.00    -0.223 OA
ATOM     31 CL   UNL     1      -1.290  -1.023  -2.914  0.00  0.00    -0.083 Cl
ENDBRANCH  20  21
ENDBRANCH  19  20
ENDBRANCH   8  19
TORSDOF 5
