REMARK  Name = ZINC05373345
REMARK  13 active torsions:
REMARK  status: ('A' for Active; 'I' for Inactive)
REMARK    1  A    between atoms: C_1  and  C_2
REMARK    2  A    between atoms: C_2  and  C_3
REMARK    3  A    between atoms: C_3  and  C_4
REMARK    4  A    between atoms: C_4  and  N_61
REMARK    5  A    between atoms: C_5  and  C_7
REMARK    6  A    between atoms: C_5  and  C_8
REMARK    7  A    between atoms: C_5  and  N_61
REMARK    8  A    between atoms: C_8  and  O_34
REMARK    9  A    between atoms: C_12  and  O_29
REMARK   10  A    between atoms: C_15  and  O_16
REMARK   11  A    between atoms: C_23  and  O_27
REMARK   12  A    between atoms: O_27  and  C_28
REMARK   13  A    between atoms: C_30  and  O_33
REMARK                            x       y       z     vdW  Elec       q    Type
REMARK                         _______ _______ _______ _____ _____    ______ ____
ROOT
ATOM      1  C   UNL     1       0.742  -0.511   1.242  0.00  0.00    +0.060 C 
ATOM      2  C   UNL     1      -0.036  -0.127   2.498  0.00  0.00    +0.072 C 
ATOM      3  C   UNL     1       0.548  -0.802   3.712  0.00  0.00    +0.007 A 
ATOM      4  C   UNL     1       1.379  -1.891   3.624  0.00  0.00    +0.030 A 
ATOM      5  C   UNL     1       1.886  -2.483   4.788  0.00  0.00    +0.134 A 
ATOM      6  C   UNL     1       1.559  -1.974   6.043  0.00  0.00    +0.078 A 
ATOM      7  C   UNL     1       0.709  -0.853   6.133  0.00  0.00    +0.078 A 
ATOM      8  C   UNL     1       0.211  -0.277   4.966  0.00  0.00    +0.132 A 
ATOM      9  C   UNL     1       0.354  -0.301   7.452  0.00  0.00    +0.198 C 
ATOM     10  O   UNL     1      -0.378   0.667   7.530  0.00  0.00    -0.286 OA
ATOM     11  C   UNL     1       0.889  -0.925   8.679  0.00  0.00    +0.037 A 
ATOM     12  C   UNL     1       0.558  -0.411   9.929  0.00  0.00    +0.012 A 
ATOM     13  C   UNL     1       1.063  -1.000  11.077  0.00  0.00    +0.004 A 
ATOM     14  C   UNL     1       1.896  -2.097  10.994  0.00  0.00    +0.046 A 
ATOM     15  C   UNL     1       2.240  -2.627   9.755  0.00  0.00    +0.132 A 
ATOM     16  C   UNL     1       1.737  -2.044   8.587  0.00  0.00    +0.075 A 
ATOM     17  C   UNL     1       2.093  -2.595   7.267  0.00  0.00    +0.202 C 
ATOM     18  O   UNL     1       2.826  -3.563   7.189  0.00  0.00    -0.286 OA
ATOM     19  C   UNL     1       1.790  -2.493   2.305  0.00  0.00    +0.151 C 
ATOM     20  C   UNL     1       0.850  -2.040   1.190  0.00  0.00    +0.069 C 
ENDROOT
BRANCH   1  21
ATOM     21  C   UNL     1       0.002  -0.004   0.002  0.00  0.00    -0.042 C 
ATOM     22  C   UNL     1      -0.019   1.526   0.010  0.00  0.00    -0.011 C 
BRANCH  21  23
ATOM     23  N   UNL     1       0.700  -0.480  -1.207  0.00  0.00    +0.383 N 
ATOM     24  H   UNL     1       1.464   0.167  -1.434  0.00  0.00    -0.085 HD
ATOM     25  H   UNL     1       1.085  -1.416  -1.030  0.00  0.00    -0.085 HD
BRANCH  23  26
ATOM     26  C   UNL     1      -0.235  -0.547  -2.346  0.00  0.00    -0.082 C 
BRANCH  26  27
ATOM     27  C   UNL     1       0.515  -1.043  -3.583  0.00  0.00    -0.019 C 
BRANCH  27  29
ATOM     28  C   UNL     1       0.303  -1.611  -6.007  0.00  0.00    +0.004 C 
ATOM     29  C   UNL     1      -0.448  -1.115  -4.769  0.00  0.00    -0.005 C 
ENDBRANCH  27  29
ENDBRANCH  26  27
ENDBRANCH  23  26
ENDBRANCH  21  23
ENDBRANCH   1  21
BRANCH   8  30
ATOM     30  O   UNL     1      -0.607   0.802   5.045  0.00  0.00    -0.506 OA
ATOM     31  H   UNL     1      -1.546   0.581   5.103  0.00  0.00    +0.292 HD
ENDBRANCH   8  30
BRANCH  15  32
ATOM     32  O   UNL     1       3.058  -3.706   9.679  0.00  0.00    -0.494 OA
ATOM     33  C   UNL     1       3.533  -4.248  10.913  0.00  0.00    +0.277 C 
ENDBRANCH  15  32
BRANCH   5  34
ATOM     34  O   UNL     1       2.703  -3.562   4.693  0.00  0.00    -0.506 OA
ATOM     35  H   UNL     1       2.237  -4.410   4.699  0.00  0.00    +0.292 HD
ENDBRANCH   5  34
BRANCH  19  36
ATOM     36  O   UNL     1       3.122  -2.079   1.994  0.00  0.00    -0.387 OA
ATOM     37  H   UNL     1       3.780  -2.348   2.649  0.00  0.00    +0.210 HD
ENDBRANCH  19  36
BRANCH   1  38
ATOM     38  O   UNL     1       2.050   0.064   1.290  0.00  0.00    -0.390 OA
ATOM     39  H   UNL     1       2.574  -0.216   2.053  0.00  0.00    +0.210 HD
ENDBRANCH   1  38
TORSDOF 10
