REMARK  Name = ZINC40046007
REMARK  10 active torsions:
REMARK  status: ('A' for Active; 'I' for Inactive)
REMARK    1  A    between atoms: C_1  and  C_2
REMARK    2  A    between atoms: C_2  and  C_3
REMARK    3  A    between atoms: C_17  and  C_19
REMARK    4  A    between atoms: C_22  and  O_27
REMARK    5  A    between atoms: C_23  and  O_25
REMARK    6  A    between atoms: O_25  and  C_26
REMARK    7  A    between atoms: C_30  and  C_37
REMARK    8  A    between atoms: C_31  and  C_33
REMARK    9  A    between atoms: C_33  and  O_35
REMARK   10  A    between atoms: O_35  and  C_36
REMARK                            x       y       z     vdW  Elec       q    Type
REMARK                         _______ _______ _______ _____ _____    ______ ____
ROOT
ATOM      1  C   UNL     1      -1.412  -0.526   0.013  0.00  0.00    -0.047 A 
ATOM      2  C   UNL     1      -2.051  -0.766   1.221  0.00  0.00    +0.007 A 
ATOM      3  C   UNL     1      -3.341  -1.245   1.253  0.00  0.00    +0.047 A 
ATOM      4  C   UNL     1      -4.024  -1.494   0.062  0.00  0.00    +0.139 A 
ATOM      5  C   UNL     1      -3.369  -1.242  -1.154  0.00  0.00    +0.065 A 
ATOM      6  C   UNL     1      -2.062  -0.755  -1.168  0.00  0.00    +0.019 A 
ATOM      7  C   UNL     1      -4.093  -1.489  -2.426  0.00  0.00    +0.199 A 
ATOM      8  O   UNL     1      -3.553  -1.459  -3.518  0.00  0.00    -0.287 OA
ATOM      9  C   UNL     1      -5.520  -1.773  -2.244  0.00  0.00    +0.072 A 
ATOM     10  C   UNL     1      -6.041  -1.993  -1.000  0.00  0.00    +0.199 A 
ATOM     11  O   UNL     1      -5.288  -1.971   0.117  0.00  0.00    -0.450 OA
ATOM     12  C   UNL     1      -7.486  -2.239  -1.141  0.00  0.00    +0.289 C 
ATOM     13  O   UNL     1      -8.247  -2.465  -0.221  0.00  0.00    -0.266 OA
ATOM     14  N   UNL     1      -7.843  -2.177  -2.441  0.00  0.00    -0.232 N 
ATOM     15  C   UNL     1      -6.636  -1.881  -3.231  0.00  0.00    +0.152 C 
ATOM     16  C   UNL     1      -9.118  -2.358  -2.942  0.00  0.00    +0.169 A 
ATOM     17  N   UNL     1     -10.229  -2.618  -2.277  0.00  0.00    -0.229 NA
ATOM     18  C   UNL     1     -11.375  -2.766  -2.890  0.00  0.00    +0.062 A 
ATOM     19  C   UNL     1     -11.356  -2.634  -4.273  0.00  0.00    +0.120 A 
ATOM     20  S   UNL     1      -9.624  -2.293  -4.546  0.00  0.00    -0.045 S 
ATOM     21  C   UNL     1     -12.646  -3.063  -2.138  0.00  0.00    +0.067 C 
ENDROOT
BRANCH  15  22
ATOM     22  C   UNL     1      -6.364  -3.001  -4.202  0.00  0.00    -0.018 A 
ATOM     23  C   UNL     1      -6.624  -4.309  -3.838  0.00  0.00    +0.009 A 
ATOM     24  C   UNL     1      -6.376  -5.339  -4.725  0.00  0.00    +0.049 A 
ATOM     25  C   UNL     1      -5.867  -5.062  -5.984  0.00  0.00    +0.158 A 
ATOM     26  C   UNL     1      -5.606  -3.745  -6.351  0.00  0.00    +0.162 A 
ATOM     27  C   UNL     1      -5.861  -2.717  -5.458  0.00  0.00    +0.055 A 
BRANCH  26  28
ATOM     28  O   UNL     1      -5.106  -3.468  -7.585  0.00  0.00    -0.491 OA
ATOM     29  C   UNL     1      -4.863  -2.094  -7.893  0.00  0.00    +0.277 C 
ENDBRANCH  26  28
BRANCH  25  30
ATOM     30  O   UNL     1      -5.622  -6.075  -6.858  0.00  0.00    -0.503 OA
ATOM     31  H   UNL     1      -6.373  -6.293  -7.427  0.00  0.00    +0.292 HD
ENDBRANCH  25  30
ENDBRANCH  15  22
BRANCH   1  33
ATOM     32  C   UNL     1      -0.019   1.526   0.010  0.00  0.00    +0.009 C 
ATOM     33  C   UNL     1       0.002  -0.004   0.002  0.00  0.00    +0.032 C 
ENDBRANCH   1  33
BRANCH  19  34
ATOM     34  C   UNL     1     -12.450  -2.740  -5.236  0.00  0.00    +0.347 C 
ATOM     35  O   UNL     1     -13.579  -2.977  -4.850  0.00  0.00    -0.244 OA
BRANCH  34  36
ATOM     36  O   UNL     1     -12.208  -2.574  -6.553  0.00  0.00    -0.464 OA
ATOM     37  C   UNL     1     -13.324  -2.691  -7.438  0.00  0.00    +0.280 C 
ENDBRANCH  34  36
ENDBRANCH  19  34
TORSDOF 6
