REMARK  Name = ZINC44318914
REMARK  12 active torsions:
REMARK  status: ('A' for Active; 'I' for Inactive)
REMARK    1  A    between atoms: C_1  and  C_2
REMARK    2  A    between atoms: C_5  and  C_8
REMARK    3  A    between atoms: C_9  and  C_18
REMARK    4  A    between atoms: C_14  and  C_17
REMARK    5  A    between atoms: C_18  and  CA_19
REMARK    6  A    between atoms: CA_19  and  C_21
REMARK    7  A    between atoms: CA_19  and  N_24
REMARK    8  A    between atoms: C_25  and  O_27
REMARK    9  A    between atoms: O_27  and  C_28
REMARK   10  A    between atoms: C_28  and  C_29
REMARK   11  A    between atoms: C_28  and  C_30
REMARK   12  A    between atoms: C_28  and  C_31
REMARK                            x       y       z     vdW  Elec       q    Type
REMARK                         _______ _______ _______ _____ _____    ______ ____
ROOT
ATOM      1  C   UNL     1      -0.258  -4.433  -0.446  0.00  0.00    +0.068 A 
ATOM      2  C   UNL     1      -0.716  -5.150   0.618  0.00  0.00    +0.051 A 
ATOM      3  N   UNL     1      -0.307  -6.442   0.438  0.00  0.00    -0.304 N 
ATOM      4  C   UNL     1      -0.480  -7.574   1.181  0.00  0.00    +0.093 A 
ATOM      5  C   UNL     1       0.037  -8.751   0.771  0.00  0.00    +0.018 A 
ATOM      6  C   UNL     1       0.762  -8.827  -0.430  0.00  0.00    +0.008 A 
ATOM      7  C   UNL     1       0.942  -7.707  -1.180  0.00  0.00    -0.009 A 
ATOM      8  C   UNL     1       0.396  -6.484  -0.739  0.00  0.00    +0.119 A 
ATOM      9  N   UNL     1       0.410  -5.266  -1.259  0.00  0.00    -0.339 N 
ATOM     10  C   UNL     1       1.718  -7.772  -2.470  0.00  0.00    +0.047 C 
ATOM     11  H   UNL     1       0.837  -5.016  -2.094  0.00  0.00    +0.167 HD
ENDROOT
BRANCH   1  16
ATOM     12  C   UNL     1      -1.069   1.202  -1.314  0.00  0.00    +0.044 C 
ATOM     13  C   UNL     1      -0.857  -0.272  -1.087  0.00  0.00    -0.050 A 
ATOM     14  C   UNL     1      -1.099  -1.169  -2.112  0.00  0.00    +0.004 A 
ATOM     15  C   UNL     1      -0.906  -2.521  -1.909  0.00  0.00    +0.010 A 
ATOM     16  C   UNL     1      -0.466  -2.981  -0.669  0.00  0.00    +0.000 A 
ATOM     17  C   UNL     1      -0.223  -2.073   0.359  0.00  0.00    +0.010 A 
ATOM     18  C   UNL     1      -0.415  -0.723   0.144  0.00  0.00    +0.004 A 
ENDBRANCH   1  16
BRANCH   2  19
ATOM     19  C   UNL     1      -1.522  -4.619   1.776  0.00  0.00    +0.090 C 
BRANCH  19  20
ATOM     20  CA  UNL     1      -3.006  -4.609   1.402  0.00  0.00    +0.195 C 
BRANCH  20  21
ATOM     21  N   UNL     1      -3.462  -5.983   1.179  0.00  0.00    -0.267 N 
ATOM     22  C   UNL     1      -4.509  -6.222   0.365  0.00  0.00    +0.401 C 
ATOM     23  O   UNL     1      -5.074  -5.297  -0.185  0.00  0.00    -0.226 OA
ATOM     24  H   UNL     1      -3.011  -6.722   1.618  0.00  0.00    +0.153 HD
BRANCH  22  25
ATOM     25  O   UNL     1      -4.929  -7.485   0.160  0.00  0.00    -0.445 OA
BRANCH  25  26
ATOM     26  C   UNL     1      -6.044  -7.664  -0.716  0.00  0.00    +0.107 C 
ATOM     27  C   UNL     1      -5.697  -7.116  -2.102  0.00  0.00    +0.055 C 
ATOM     28  C   UNL     1      -6.373  -9.154  -0.824  0.00  0.00    +0.055 C 
ATOM     29  C   UNL     1      -7.255  -6.913  -0.159  0.00  0.00    +0.055 C 
ENDBRANCH  25  26
ENDBRANCH  22  25
ENDBRANCH  20  21
BRANCH  20  30
ATOM     30  C   UNL     1      -3.801  -3.991   2.522  0.00  0.00    +0.376 C 
ATOM     31  O   UNL     1      -4.006  -2.789   2.534  0.00  0.00    -0.244 OA
ATOM     32  OXT UNL     1      -4.241  -4.692   3.417  0.00  0.00    -0.244 OA
ENDBRANCH  20  30
ENDBRANCH  19  20
ENDBRANCH   2  19
TORSDOF 7
