REMARK  Name = ZINC16915855
REMARK  13 active torsions:
REMARK  status: ('A' for Active; 'I' for Inactive)
REMARK    1  A    between atoms: C_1  and  C_2
REMARK    2  A    between atoms: C_2  and  C_3
REMARK    3  A    between atoms: C_8  and  C_27
REMARK    4  A    between atoms: C_14  and  C_16
REMARK    5  A    between atoms: C_22  and  C_23
REMARK    6  A    between atoms: C_22  and  C_25
REMARK    7  A    between atoms: C_23  and  C_24
REMARK    8  A    between atoms: C_25  and  C_26
REMARK    9  A    between atoms: C_28  and  C_30
REMARK   10  A    between atoms: C_36  and  C_37
REMARK   11  A    between atoms: C_36  and  C_39
REMARK   12  A    between atoms: C_37  and  C_38
REMARK   13  A    between atoms: C_39  and  C_40
REMARK                            x       y       z     vdW  Elec       q    Type
REMARK                         _______ _______ _______ _____ _____    ______ ____
ROOT
ATOM      1  C   UNL     1       4.247   4.412   1.131  0.00  0.00    +0.061 C 
ATOM      2  C   UNL     1       3.914   5.643   1.971  0.00  0.00    +0.123 C 
ATOM      3  N   UNL     1       3.344   5.340   3.279  0.00  0.00    -0.300 N 
ATOM      4  C   UNL     1       4.034   4.744   4.407  0.00  0.00    +0.109 C 
ATOM      5  C   UNL     1       5.177   3.803   4.130  0.00  0.00    +0.034 C 
ATOM      6  C   UNL     1       4.846   2.785   3.041  0.00  0.00    +0.044 C 
ATOM      7  C   UNL     1       5.190   3.437   1.718  0.00  0.00    +0.150 C 
ATOM      8  O   UNL     1       6.225   3.152   1.158  0.00  0.00    -0.296 OA
ATOM      9  C   UNL     1       3.419   2.301   3.047  0.00  0.00    +0.122 C 
ATOM     10  N   UNL     1       2.521   2.906   2.077  0.00  0.00    -0.299 N 
ATOM     11  C   UNL     1       2.900   3.675   0.895  0.00  0.00    +0.123 C 
ATOM     12  C   UNL     1       1.180   2.700   2.275  0.00  0.00    +0.223 C 
ATOM     13  O   UNL     1       0.379   3.092   1.453  0.00  0.00    -0.275 OA
ATOM     14  C   UNL     1       5.771   1.575   3.229  0.00  0.00    +0.021 C 
ATOM     15  C   UNL     1       2.048   5.721   3.480  0.00  0.00    +0.223 C 
ATOM     16  O   UNL     1       1.476   5.410   4.503  0.00  0.00    -0.275 OA
ENDROOT
BRANCH  12  17
ATOM     17  C   UNL     1       0.702   1.986   3.513  0.00  0.00    +0.129 C 
ATOM     18  C   UNL     1       0.428   0.495   3.212  0.00  0.00    +0.137 C 
ATOM     19  C   UNL     1      -0.907   0.237   3.886  0.00  0.00    +0.308 C 
ATOM     20  O   UNL     1      -1.279  -0.808   4.365  0.00  0.00    -0.251 OA
ATOM     21  O   UNL     1      -1.601   1.389   3.846  0.00  0.00    -0.457 OA
ATOM     22  C   UNL     1      -0.680   2.515   3.947  0.00  0.00    +0.125 C 
BRANCH  22  23
ATOM     23  C   UNL     1      -0.619   3.021   5.390  0.00  0.00    +0.045 C 
ATOM     24  C   UNL     1      -0.131   1.896   6.305  0.00  0.00    +0.008 C 
ENDBRANCH  22  23
BRANCH  22  25
ATOM     25  C   UNL     1      -1.129   3.641   3.014  0.00  0.00    +0.045 C 
ATOM     26  C   UNL     1      -2.405   4.281   3.563  0.00  0.00    +0.008 C 
ENDBRANCH  22  25
ENDBRANCH  12  17
BRANCH  15  27
ATOM     27  C   UNL     1       1.329   6.530   2.431  0.00  0.00    +0.129 C 
ATOM     28  C   UNL     1       2.223   7.683   1.923  0.00  0.00    +0.137 C 
ATOM     29  C   UNL     1       1.286   8.877   1.905  0.00  0.00    +0.308 C 
ATOM     30  O   UNL     1       1.337   9.819   1.149  0.00  0.00    -0.251 OA
ATOM     31  O   UNL     1       0.387   8.690   2.888  0.00  0.00    -0.457 OA
ATOM     32  C   UNL     1       0.121   7.267   3.044  0.00  0.00    +0.125 C 
BRANCH  32  33
ATOM     33  C   UNL     1      -1.160   6.888   2.299  0.00  0.00    +0.045 C 
ATOM     34  C   UNL     1      -2.337   7.679   2.872  0.00  0.00    +0.008 C 
ENDBRANCH  32  33
BRANCH  32  35
ATOM     35  C   UNL     1      -0.011   6.916   4.527  0.00  0.00    +0.045 C 
ATOM     36  C   UNL     1       1.191   7.473   5.293  0.00  0.00    +0.008 C 
ENDBRANCH  32  35
ENDBRANCH  15  27
BRANCH   1  38
ATOM     37  C   UNL     1       6.128   5.615  -0.024  0.00  0.00    +0.005 C 
ATOM     38  C   UNL     1       4.800   4.886  -0.236  0.00  0.00    +0.014 C 
ENDBRANCH   1  38
TORSDOF 7
