REMARK  Name = ZINC38702114
REMARK  8 active torsions:
REMARK  status: ('A' for Active; 'I' for Inactive)
REMARK    1  A    between atoms: C_1  and  C_2
REMARK    2  A    between atoms: C_2  and  C_3
REMARK    3  A    between atoms: C_6  and  C_9
REMARK    4  A    between atoms: C_12  and  C_28
REMARK    5  A    between atoms: N_19  and  C_20
REMARK    6  A    between atoms: C_30  and  C_36
REMARK    7  A    between atoms: C_32  and  C_35
REMARK    8  A    between atoms: C_33  and  O_34
REMARK                            x       y       z     vdW  Elec       q    Type
REMARK                         _______ _______ _______ _____ _____    ______ ____
ROOT
ATOM      1  C   UNL     1      -5.106  -1.712  -0.232  0.00  0.00    +0.142 C 
ATOM      2  C   UNL     1      -6.257  -0.745  -0.246  0.00  0.00    +0.035 A 
ATOM      3  C   UNL     1      -6.899   0.334   0.373  0.00  0.00    +0.102 A 
ATOM      4  N   UNL     1      -7.966   0.622  -0.346  0.00  0.00    -0.173 NA
ATOM      5  N   UNL     1      -8.062  -0.167  -1.356  0.00  0.00    -0.272 N 
ATOM      6  H   UNL     1      -8.768  -0.138  -2.020  0.00  0.00    +0.189 HD
ATOM      7  C   UNL     1      -7.021  -1.052  -1.355  0.00  0.00    +0.126 A 
ATOM      8  C   UNL     1      -6.398  -2.182  -2.052  0.00  0.00    +0.266 C 
ATOM      9  O   UNL     1      -6.828  -2.693  -3.069  0.00  0.00    -0.268 OA
ATOM     10  N   UNL     1      -5.284  -2.575  -1.407  0.00  0.00    -0.280 N 
ENDROOT
BRANCH   3  11
ATOM     11  C   UNL     1      -6.459   1.026   1.610  0.00  0.00    +0.044 A 
ATOM     12  C   UNL     1      -5.376   0.538   2.337  0.00  0.00    +0.017 A 
ATOM     13  C   UNL     1      -4.971   1.185   3.487  0.00  0.00    -0.049 A 
ATOM     14  C   UNL     1      -5.638   2.317   3.921  0.00  0.00    +0.010 A 
ATOM     15  C   UNL     1      -6.714   2.809   3.207  0.00  0.00    -0.008 A 
ATOM     16  C   UNL     1      -7.127   2.173   2.047  0.00  0.00    +0.129 A 
ATOM     17  C   UNL     1      -7.435   4.043   3.686  0.00  0.00    +0.047 C 
ATOM     18  C   UNL     1      -3.799   0.656   4.273  0.00  0.00    +0.044 C 
BRANCH  16  19
ATOM     19  O   UNL     1      -8.181   2.659   1.341  0.00  0.00    -0.506 OA
ATOM     20  H   UNL     1      -9.036   2.299   1.612  0.00  0.00    +0.292 HD
ENDBRANCH  16  19
ENDBRANCH   3  11
BRANCH  10  21
ATOM     21  C   UNL     1      -4.400  -3.673  -1.807  0.00  0.00    +0.100 C 
ATOM     22  C   UNL     1      -3.859  -3.414  -3.223  0.00  0.00    +0.047 C 
ATOM     23  C   UNL     1      -3.194  -4.697  -3.777  0.00  0.00    +0.168 C 
ATOM     24  S   UNL     1      -4.107  -6.034  -2.904  0.00  0.00    -0.029 S 
ATOM     25  O   UNL     1      -3.198  -6.755  -2.084  0.00  0.00    -0.174 OA
ATOM     26  O   UNL     1      -4.909  -6.735  -3.844  0.00  0.00    -0.174 OA
ATOM     27  C   UNL     1      -5.198  -5.008  -1.831  0.00  0.00    +0.188 C 
ENDBRANCH  10  21
BRANCH   1  31
ATOM     28  C   UNL     1      -1.406   0.405  -0.507  0.00  0.00    -0.048 A 
ATOM     29  C   UNL     1      -2.265   0.371  -1.590  0.00  0.00    +0.004 A 
ATOM     30  C   UNL     1      -3.462  -0.314  -1.501  0.00  0.00    +0.006 A 
ATOM     31  C   UNL     1      -3.800  -0.966  -0.329  0.00  0.00    -0.022 A 
ATOM     32  C   UNL     1      -2.941  -0.933   0.753  0.00  0.00    +0.006 A 
ATOM     33  C   UNL     1      -1.741  -0.251   0.662  0.00  0.00    +0.004 A 
BRANCH  28  35
ATOM     34  C   UNL     1       0.989   0.210  -1.122  0.00  0.00    +0.009 C 
ATOM     35  C   UNL     1      -0.101   1.152  -0.605  0.00  0.00    +0.032 C 
ENDBRANCH  28  35
ENDBRANCH   1  31
TORSDOF 5
