REMARK  Name = ZINC36142625
REMARK  3 active torsions:
REMARK  status: ('A' for Active; 'I' for Inactive)
REMARK    1  A    between atoms: C_1  and  C_2
REMARK    2  A    between atoms: C_6  and  N_8
REMARK    3  A    between atoms: C_10  and  C_15
REMARK                            x       y       z     vdW  Elec       q    Type
REMARK                         _______ _______ _______ _____ _____    ______ ____
ROOT
ATOM      1  C   UNL     1      -0.018   1.503   0.010  0.00  0.00    +0.044 C 
ATOM      2  C   UNL     1       0.002  -0.004   0.002  0.00  0.00    -0.048 A 
ATOM      3  C   UNL     1       0.006  -0.684  -1.197  0.00  0.00    +0.018 A 
ATOM      4  C   UNL     1       0.023  -2.081  -1.201  0.00  0.00    +0.061 A 
ATOM      5  C   UNL     1       0.035  -2.792   0.007  0.00  0.00    +0.152 A 
ATOM      6  C   UNL     1       0.034  -2.086   1.210  0.00  0.00    +0.068 A 
ATOM      7  C   UNL     1       0.023  -0.701   1.200  0.00  0.00    +0.029 A 
ATOM      8  O   UNL     1       0.040  -4.146   0.017  0.00  0.00    -0.481 OA
ATOM      9  C   UNL     1       0.512  -4.838  -1.139  0.00  0.00    +0.214 C 
ATOM     10  C   UNL     1      -0.231  -4.322  -2.380  0.00  0.00    +0.129 C 
ATOM     11  C   UNL     1       0.033  -2.829  -2.471  0.00  0.00    +0.171 C 
ATOM     12  O   UNL     1       0.239  -2.281  -3.533  0.00  0.00    -0.292 OA
ENDROOT
BRANCH   9  13
ATOM     13  C   UNL     1       0.259  -6.315  -0.979  0.00  0.00    +0.028 A 
ATOM     14  C   UNL     1      -0.759  -6.757  -0.155  0.00  0.00    +0.010 A 
ATOM     15  C   UNL     1      -0.991  -8.111  -0.008  0.00  0.00    +0.001 A 
ATOM     16  C   UNL     1      -0.206  -9.026  -0.684  0.00  0.00    +0.003 A 
ATOM     17  C   UNL     1       0.812  -8.587  -1.509  0.00  0.00    +0.039 A 
ATOM     18  C   UNL     1       1.043  -7.230  -1.661  0.00  0.00    +0.130 A 
ATOM     19  F   UNL     1       2.035  -6.800  -2.470  0.00  0.00    -0.205 F 
ENDBRANCH   9  13
BRANCH   6  20
ATOM     20  N   UNL     1       0.049  -2.777   2.428  0.00  0.00    -0.355 N 
ATOM     21  H   UNL     1       0.061  -3.747   2.435  0.00  0.00    +0.142 HD
ATOM     22  H   UNL     1       0.049  -2.286   3.264  0.00  0.00    +0.142 HD
ENDBRANCH   6  20
TORSDOF 2
