REMARK  Name = ZINC13003954
REMARK  9 active torsions:
REMARK  status: ('A' for Active; 'I' for Inactive)
REMARK    1  A    between atoms: C_1  and  C_2
REMARK    2  A    between atoms: C_2  and  C_4
REMARK    3  A    between atoms: C_2  and  N_32
REMARK    4  A    between atoms: N_6  and  C_7
REMARK    5  A    between atoms: C_7  and  C_8
REMARK    6  A    between atoms: C_8  and  C_10
REMARK    7  A    between atoms: C_8  and  C_16
REMARK    8  A    between atoms: C_25  and  C_26
REMARK    9  A    between atoms: C_33  and  C_35
REMARK                            x       y       z     vdW  Elec       q    Type
REMARK                         _______ _______ _______ _____ _____    ______ ____
ROOT
ATOM      1  C   UNL     1       1.922  -3.239  -0.033  0.00  0.00    +0.069 C 
ENDROOT
BRANCH   1   2
ATOM      2  C   UNL     1       0.757  -2.300   0.149  0.00  0.00    -0.006 A 
ATOM      3  C   UNL     1       0.763  -0.854  -0.067  0.00  0.00    +0.004 A 
ATOM      4  C   UNL     1       1.740   0.060  -0.473  0.00  0.00    +0.010 A 
ATOM      5  C   UNL     1       1.425   1.385  -0.582  0.00  0.00    +0.001 A 
ATOM      6  C   UNL     1       0.142   1.831  -0.294  0.00  0.00    +0.002 A 
ATOM      7  C   UNL     1      -0.836   0.948   0.108  0.00  0.00    +0.026 A 
ATOM      8  C   UNL     1      -0.539  -0.406   0.227  0.00  0.00    +0.047 A 
ATOM      9  N   UNL     1      -1.280  -1.506   0.596  0.00  0.00    -0.354 N 
ATOM     10  H   UNL     1      -2.216  -1.488   0.853  0.00  0.00    +0.166 HD
ATOM     11  C   UNL     1      -0.495  -2.635   0.546  0.00  0.00    +0.051 A 
BRANCH  11  12
ATOM     12  C   UNL     1      -0.948  -4.004   0.875  0.00  0.00    -0.001 A 
ATOM     13  C   UNL     1      -0.613  -5.072   0.043  0.00  0.00    +0.010 A 
ATOM     14  C   UNL     1      -1.034  -6.347   0.358  0.00  0.00    +0.001 A 
ATOM     15  C   UNL     1      -1.797  -6.567   1.491  0.00  0.00    +0.000 A 
ATOM     16  C   UNL     1      -2.137  -5.511   2.318  0.00  0.00    +0.001 A 
ATOM     17  C   UNL     1      -1.718  -4.232   2.017  0.00  0.00    +0.010 A 
ENDBRANCH  11  12
ENDBRANCH   1   2
BRANCH   1  18
ATOM     18  C   UNL     1       2.877  -3.085   1.123  0.00  0.00    -0.038 A 
ATOM     19  C   UNL     1       3.591  -1.912   1.278  0.00  0.00    +0.004 A 
ATOM     20  C   UNL     1       4.464  -1.770   2.341  0.00  0.00    +0.000 A 
ATOM     21  C   UNL     1       4.629  -2.804   3.243  0.00  0.00    +0.000 A 
ATOM     22  C   UNL     1       3.917  -3.979   3.085  0.00  0.00    +0.000 A 
ATOM     23  C   UNL     1       3.042  -4.119   2.025  0.00  0.00    +0.004 A 
ENDBRANCH   1  18
BRANCH   1  24
ATOM     24  C   UNL     1       2.645  -2.906  -1.339  0.00  0.00    +0.117 C 
BRANCH  24  27
ATOM     25  C   UNL     1       4.476  -3.799  -2.676  0.00  0.00    +0.233 C 
ATOM     26  O   UNL     1       4.297  -2.899  -3.469  0.00  0.00    -0.274 OA
ATOM     27  N   UNL     1       3.703  -3.892  -1.577  0.00  0.00    -0.313 N 
ATOM     28  H   UNL     1       3.846  -4.612  -0.943  0.00  0.00    +0.149 HD
BRANCH  25  30
ATOM     29  C   UNL     1       6.562  -4.779  -1.762  0.00  0.00    +0.038 C 
ATOM     30  C   UNL     1       5.564  -4.813  -2.920  0.00  0.00    +0.156 C 
BRANCH  30  31
ATOM     31  N   UNL     1       6.257  -4.495  -4.171  0.00  0.00    -0.298 N 
ATOM     32  C   UNL     1       6.889  -5.467  -4.858  0.00  0.00    +0.280 C 
ATOM     33  O   UNL     1       6.885  -6.609  -4.438  0.00  0.00    -0.267 OA
ATOM     34  H   UNL     1       6.260  -3.584  -4.506  0.00  0.00    +0.150 HD
BRANCH  32  35
ATOM     35  C   UNL     1       7.582  -5.148  -6.110  0.00  0.00    +0.189 A 
ATOM     36  C   UNL     1       8.259  -6.033  -6.900  0.00  0.00    +0.054 A 
ATOM     37  C   UNL     1       8.760  -5.301  -7.988  0.00  0.00    +0.042 A 
ATOM     38  C   UNL     1       8.372  -4.018  -7.816  0.00  0.00    +0.196 A 
ATOM     39  O   UNL     1       7.659  -3.931  -6.686  0.00  0.00    -0.458 OA
ENDBRANCH  32  35
ENDBRANCH  30  31
ENDBRANCH  25  30
ENDBRANCH  24  27
ENDBRANCH   1  24
TORSDOF 8
