REMARK  Name = ZINC36014001
REMARK  13 active torsions:
REMARK  status: ('A' for Active; 'I' for Inactive)
REMARK    1  A    between atoms: C_1  and  C_2
REMARK    2  A    between atoms: C_2  and  C_3
REMARK    3  A    between atoms: C_3  and  N_4
REMARK    4  A    between atoms: N_10  and  C_15
REMARK    5  A    between atoms: C_12  and  C_14
REMARK    6  A    between atoms: C_15  and  C_16
REMARK    7  A    between atoms: C_17  and  C_33
REMARK    8  A    between atoms: C_18  and  C_26
REMARK    9  A    between atoms: N_23  and  C_24
REMARK   10  A    between atoms: C_24  and  C_25
REMARK   11  A    between atoms: C_33  and  O_35
REMARK   12  A    between atoms: O_35  and  C_36
REMARK   13  A    between atoms: C_36  and  C_37
REMARK                            x       y       z     vdW  Elec       q    Type
REMARK                         _______ _______ _______ _____ _____    ______ ____
ROOT
ATOM      1  C   UNL     1      -1.457  -8.719   1.002  0.00  0.00    +0.041 C 
ATOM      2  C   UNL     1      -0.435  -8.832   1.879  0.00  0.00    +0.080 C 
ATOM      3  C   UNL     1       0.721  -9.736   1.501  0.00  0.00    +0.144 C 
ATOM      4  N   UNL     1       0.635 -10.421   0.200  0.00  0.00    -0.288 N 
ATOM      5  C   UNL     1      -0.452 -10.207  -0.567  0.00  0.00    +0.307 C 
ATOM      6  O   UNL     1      -0.532 -10.768  -1.643  0.00  0.00    -0.252 OA
ATOM      7  N   UNL     1      -1.449  -9.401  -0.181  0.00  0.00    -0.258 N 
ATOM      8  H   UNL     1       1.345 -11.012  -0.097  0.00  0.00    +0.151 HD
ENDROOT
BRANCH   3   9
ATOM      9  C   UNL     1       1.979  -8.907   1.506  0.00  0.00    -0.022 A 
ATOM     10  C   UNL     1       2.276  -8.093   0.428  0.00  0.00    +0.007 A 
ATOM     11  C   UNL     1       3.430  -7.333   0.433  0.00  0.00    +0.020 A 
ATOM     12  C   UNL     1       4.288  -7.385   1.516  0.00  0.00    +0.041 A 
ATOM     13  C   UNL     1       3.991  -8.199   2.595  0.00  0.00    +0.020 A 
ATOM     14  C   UNL     1       2.834  -8.955   2.592  0.00  0.00    +0.007 A 
ATOM     15 CL   UNL     1       5.738  -6.431   1.522  0.00  0.00    -0.084 Cl
ENDBRANCH   3   9
BRANCH   7  16
ATOM     16  C   UNL     1      -2.593  -9.236  -1.081  0.00  0.00    +0.111 C 
ATOM     17  C   UNL     1      -2.329  -8.066  -2.031  0.00  0.00    +0.025 C 
ENDBRANCH   7  16
BRANCH   2  18
ATOM     18  C   UNL     1      -0.445  -8.131   3.107  0.00  0.00    +0.339 C 
ATOM     19  O   UNL     1       0.132  -7.063   3.202  0.00  0.00    -0.245 OA
BRANCH  18  20
ATOM     20  O   UNL     1      -1.092  -8.646   4.173  0.00  0.00    -0.462 OA
BRANCH  20  21
ATOM     21  C   UNL     1      -1.060  -7.884   5.381  0.00  0.00    +0.229 C 
ATOM     22  C   UNL     1      -1.842  -8.621   6.470  0.00  0.00    +0.048 C 
ENDBRANCH  20  21
ENDBRANCH  18  20
ENDBRANCH   2  18
BRANCH   1  23
ATOM     23  C   UNL     1      -2.627  -7.831   1.338  0.00  0.00    +0.136 C 
BRANCH  23  30
ATOM     24  N   UNL     1      -1.645  -1.953  -0.406  0.00  0.00    -0.299 N 
ATOM     25  C   UNL     1      -2.779  -2.682  -0.365  0.00  0.00    +0.303 C 
ATOM     26  O   UNL     1      -3.856  -2.125  -0.269  0.00  0.00    -0.253 OA
ATOM     27  N   UNL     1      -2.718  -4.026  -0.431  0.00  0.00    -0.280 N 
ATOM     28  C   UNL     1      -1.425  -4.726  -0.417  0.00  0.00    +0.125 C 
ATOM     29  C   UNL     1      -1.471  -5.814   0.660  0.00  0.00    +0.104 C 
ATOM     30  N   UNL     1      -2.640  -6.675   0.433  0.00  0.00    -0.294 NA
ATOM     31  C   UNL     1      -3.892  -5.918   0.563  0.00  0.00    +0.107 C 
ATOM     32  C   UNL     1      -3.945  -4.834  -0.512  0.00  0.00    +0.088 C 
ATOM     33  C   UNL     1      -5.165  -3.940  -0.279  0.00  0.00    +0.029 C 
ATOM     34  H   UNL     1      -0.783  -2.398  -0.411  0.00  0.00    +0.150 HD
BRANCH  24  35
ATOM     35  C   UNL     1      -1.715  -0.490  -0.444  0.00  0.00    +0.105 C 
BRANCH  35  37
ATOM     36  C   UNL     1      -0.372   1.615  -0.526  0.00  0.00    +0.005 C 
ATOM     37  C   UNL     1      -0.299   0.087  -0.487  0.00  0.00    +0.015 C 
ENDBRANCH  35  37
ENDBRANCH  24  35
ENDBRANCH  23  30
ENDBRANCH   1  23
TORSDOF 9
