REMARK  Name = ZINC23329989
REMARK  9 active torsions:
REMARK  status: ('A' for Active; 'I' for Inactive)
REMARK    1  A    between atoms: C_1  and  C_2
REMARK    2  A    between atoms: C_3  and  N_9
REMARK    3  A    between atoms: C_10  and  C_12
REMARK    4  A    between atoms: C_12  and  N_13
REMARK    5  A    between atoms: C_14  and  C_16
REMARK    6  A    between atoms: C_16  and  N_17
REMARK    7  A    between atoms: N_17  and  C_18
REMARK    8  A    between atoms: N_17  and  C_19
REMARK    9  A    between atoms: C_19  and  C_20
REMARK                            x       y       z     vdW  Elec       q    Type
REMARK                         _______ _______ _______ _____ _____    ______ ____
ROOT
ATOM      1  N   UNL     1      -1.199   6.329  -0.468  0.00  0.00    -0.308 N 
ATOM      2  C   UNL     1      -1.523   7.636  -0.424  0.00  0.00    +0.197 C 
ATOM      3  O   UNL     1      -0.659   8.469  -0.248  0.00  0.00    -0.278 OA
ATOM      4  H   UNL     1      -1.983   5.573  -0.628  0.00  0.00    +0.149 HD
ENDROOT
BRANCH   1   5
ATOM      5  C   UNL     1       0.196   5.913  -0.303  0.00  0.00    +0.200 C 
BRANCH   5   7
ATOM      6  N   UNL     1       1.482   3.800  -0.268  0.00  0.00    -0.284 N 
ATOM      7  C   UNL     1       0.287   4.412  -0.392  0.00  0.00    +0.234 C 
ATOM      8  O   UNL     1      -0.715   3.753  -0.576  0.00  0.00    -0.274 OA
ATOM      9  H   UNL     1       2.377   4.388  -0.018  0.00  0.00    +0.155 HD
BRANCH   6  12
ATOM     10  C   UNL     1       3.754   2.461   0.798  0.00  0.00    +0.047 C 
ATOM     11  C   UNL     1       2.676   1.725   0.046  0.00  0.00    -0.011 A 
ATOM     12  C   UNL     1       1.583   2.418  -0.458  0.00  0.00    +0.038 A 
ATOM     13  C   UNL     1       0.591   1.736  -1.151  0.00  0.00    +0.023 A 
ATOM     14  C   UNL     1       0.694   0.371  -1.337  0.00  0.00    +0.003 A 
ATOM     15  C   UNL     1       1.782  -0.317  -0.835  0.00  0.00    +0.020 A 
ATOM     16  C   UNL     1       2.773   0.359  -0.143  0.00  0.00    +0.046 A 
ATOM     17 CL   UNL     1       4.138  -0.509   0.486  0.00  0.00    -0.083 Cl
ENDBRANCH   6  12
ENDBRANCH   5   7
ENDBRANCH   1   5
BRANCH   2  18
ATOM     18  C   UNL     1      -2.958   8.064  -0.594  0.00  0.00    +0.019 C 
BRANCH  18  19
ATOM     19  N   UNL     1      -3.047   9.527  -0.507  0.00  0.00    +0.386 N 
ATOM     20  C   UNL     1      -2.356  10.165  -1.636  0.00  0.00    -0.095 C 
ATOM     21  H   UNL     1      -2.542   9.842   0.419  0.00  0.00    -0.081 HD
BRANCH  19  22
ATOM     22  C   UNL     1      -4.446   9.966  -0.430  0.00  0.00    -0.042 C 
BRANCH  22  23
ATOM     23  C   UNL     1      -4.982   9.697   0.953  0.00  0.00    -0.050 A 
ATOM     24  C   UNL     1      -5.790   8.598   1.179  0.00  0.00    +0.003 A 
ATOM     25  C   UNL     1      -6.278   8.348   2.448  0.00  0.00    +0.000 A 
ATOM     26  C   UNL     1      -5.966   9.203   3.489  0.00  0.00    +0.001 A 
ATOM     27  C   UNL     1      -5.163  10.304   3.263  0.00  0.00    +0.015 A 
ATOM     28  C   UNL     1      -4.670  10.552   1.994  0.00  0.00    +0.019 A 
ATOM     29 BR   UNL     1      -3.571  12.059   1.684  0.00  0.00    -0.050 Br
ENDBRANCH  22  23
ENDBRANCH  19  22
ENDBRANCH  18  19
ENDBRANCH   2  18
TORSDOF 7
