REMARK  Name = ZINC13064424
REMARK  9 active torsions:
REMARK  status: ('A' for Active; 'I' for Inactive)
REMARK    1  A    between atoms: C_1  and  C_2
REMARK    2  A    between atoms: C_2  and  C_3
REMARK    3  A    between atoms: C_3  and  C_5
REMARK    4  A    between atoms: C_3  and  N_73
REMARK    5  A    between atoms: N_9  and  C_10
REMARK    6  A    between atoms: C_10  and  C_11
REMARK    7  A    between atoms: C_17  and  C_18
REMARK    8  A    between atoms: C_17  and  N_73
REMARK    9  A    between atoms: C_34  and  N_73
REMARK                            x       y       z     vdW  Elec       q    Type
REMARK                         _______ _______ _______ _____ _____    ______ ____
ROOT
ATOM      1  N   UNL     1       3.938  -0.382   0.730  0.00  0.00    +0.391 N 
ATOM      2  H   UNL     1       3.430  -0.470   1.618  0.00  0.00    -0.080 HD
ENDROOT
BRANCH   1   3
ATOM      3  C   UNL     1       3.499  -1.460  -0.182  0.00  0.00    -0.067 C 
ATOM      4  C   UNL     1       3.285  -2.735   0.636  0.00  0.00    -0.015 C 
ATOM      5  C   UNL     1       2.813  -3.860  -0.288  0.00  0.00    -0.002 C 
ATOM      6  C   UNL     1       3.873  -4.115  -1.362  0.00  0.00    -0.000 C 
ATOM      7  C   UNL     1       4.088  -2.840  -2.180  0.00  0.00    -0.002 C 
ATOM      8  C   UNL     1       4.559  -1.715  -1.256  0.00  0.00    -0.015 C 
ENDBRANCH   1   3
BRANCH   1   9
ATOM      9  C   UNL     1       3.637   0.937   0.134  0.00  0.00    +0.003 C 
BRANCH   9  10
ATOM     10  C   UNL     1       4.575   1.226  -1.009  0.00  0.00    +0.138 A 
ATOM     11  N   UNL     1       5.849   0.923  -1.072  0.00  0.00    -0.115 NA
ATOM     12  N   UNL     1       6.300   1.335  -2.207  0.00  0.00    -0.023 NA
ATOM     13  N   UNL     1       5.347   1.892  -2.869  0.00  0.00    -0.044 NA
ATOM     14  N   UNL     1       4.268   1.844  -2.164  0.00  0.00    -0.228 N 
BRANCH  14  15
ATOM     15  C   UNL     1       2.954   2.366  -2.549  0.00  0.00    +0.178 C 
BRANCH  15  16
ATOM     16  C   UNL     1       2.164   1.276  -3.276  0.00  0.00    +0.140 C 
ATOM     17  C   UNL     1       0.825   1.850  -3.786  0.00  0.00    +0.035 C 
ATOM     18  C   UNL     1      -0.158   0.677  -3.524  0.00  0.00    +0.031 C 
ATOM     19  C   UNL     1       0.438   0.079  -2.225  0.00  0.00    +0.160 C 
ATOM     20  O   UNL     1       1.861   0.209  -2.369  0.00  0.00    -0.375 OA
ENDBRANCH  15  16
ENDBRANCH  14  15
ENDBRANCH   9  10
BRANCH   9  22
ATOM     21  C   UNL     1       2.755   1.797   2.308  0.00  0.00    +0.002 C 
ATOM     22  C   UNL     1       3.800   2.012   1.211  0.00  0.00    -0.011 C 
ENDBRANCH   9  22
ENDBRANCH   1   9
BRANCH   1  23
ATOM     23  C   UNL     1       5.387  -0.500   0.991  0.00  0.00    -0.036 C 
BRANCH  23  24
ATOM     24  C   UNL     1       5.616  -1.646   1.943  0.00  0.00    +0.001 A 
ATOM     25  C   UNL     1       6.210  -2.784   1.501  0.00  0.00    +0.017 A 
ATOM     26  C   UNL     1       6.422  -3.876   2.449  0.00  0.00    +0.002 A 
ATOM     27  C   UNL     1       7.034  -5.071   2.051  0.00  0.00    +0.059 A 
ATOM     28  C   UNL     1       7.216  -6.085   2.967  0.00  0.00    +0.163 A 
ATOM     29  C   UNL     1       6.793  -5.924   4.290  0.00  0.00    +0.164 A 
ATOM     30  C   UNL     1       6.188  -4.747   4.692  0.00  0.00    +0.075 A 
ATOM     31  C   UNL     1       5.995  -3.716   3.782  0.00  0.00    +0.053 A 
ATOM     32  N   UNL     1       5.392  -2.535   4.166  0.00  0.00    -0.322 N 
ATOM     33  H   UNL     1       5.098  -2.425   5.084  0.00  0.00    +0.169 HD
ATOM     34  C   UNL     1       5.206  -1.535   3.287  0.00  0.00    +0.251 A 
ATOM     35  O   UNL     1       4.670  -0.506   3.662  0.00  0.00    -0.268 OA
ATOM     36  O   UNL     1       6.974  -6.919   5.200  0.00  0.00    -0.485 OA
ATOM     37  C   UNL     1       7.243  -8.226   4.682  0.00  0.00    +0.270 C 
ATOM     38  C   UNL     1       8.316  -8.100   3.592  0.00  0.00    +0.270 C 
ATOM     39  O   UNL     1       7.810  -7.243   2.563  0.00  0.00    -0.485 OA
ENDBRANCH  23  24
ENDBRANCH   1  23
TORSDOF 8
