REMARK  Name = ZINC64227785
REMARK  5 active torsions:
REMARK  status: ('A' for Active; 'I' for Inactive)
REMARK    1  A    between atoms: C_4  and  C_7
REMARK    2  A    between atoms: C_7  and  N_8
REMARK    3  A    between atoms: C_9  and  O_34
REMARK    4  A    between atoms: C_12  and  O_33
REMARK    5  A    between atoms: C_14  and  C_18
REMARK                            x       y       z     vdW  Elec       q    Type
REMARK                         _______ _______ _______ _____ _____    ______ ____
ROOT
ATOM      1  N   UNL     1       4.191  -0.940   1.347  0.00  0.00    -0.259 N 
ATOM      2  C   UNL     1       5.006   0.064   2.022  0.00  0.00    +0.283 C 
ATOM      3  N   UNL     1       4.951  -0.119   3.477  0.00  0.00    -0.250 NA
ATOM      4  C   UNL     1       5.279  -1.509   3.834  0.00  0.00    +0.199 C 
ATOM      5  C   UNL     1       4.140  -2.413   3.355  0.00  0.00    +0.138 C 
ATOM      6  C   UNL     1       3.797  -2.078   1.930  0.00  0.00    +0.227 C 
ATOM      7  O   UNL     1       3.143  -2.869   1.284  0.00  0.00    -0.275 OA
ATOM      8  H   UNL     1       5.565   0.530   3.946  0.00  0.00    +0.128 HD
ENDROOT
BRANCH   5   9
ATOM      9  C   UNL     1       4.578  -3.877   3.447  0.00  0.00    +0.096 C 
ATOM     10  C   UNL     1       4.979  -4.205   4.887  0.00  0.00    +0.124 C 
ATOM     11  C   UNL     1       5.559  -5.615   4.856  0.00  0.00    -0.036 C 
ATOM     12  C   UNL     1       4.886  -6.317   5.758  0.00  0.00    -0.001 A 
ATOM     13  C   UNL     1       5.041  -7.698   6.242  0.00  0.00    +0.010 A 
ATOM     14  C   UNL     1       4.149  -8.108   7.182  0.00  0.00    +0.001 A 
ATOM     15  C   UNL     1       3.131  -7.291   7.684  0.00  0.00    +0.002 A 
ATOM     16  C   UNL     1       2.918  -6.007   7.300  0.00  0.00    +0.026 A 
ATOM     17  C   UNL     1       3.796  -5.461   6.319  0.00  0.00    +0.043 A 
ATOM     18  N   UNL     1       3.834  -4.252   5.794  0.00  0.00    -0.376 N 
ATOM     19  C   UNL     1       6.623  -6.012   3.862  0.00  0.00    +0.048 C 
ATOM     20  C   UNL     1       6.138  -5.510   2.490  0.00  0.00    +0.085 C 
ATOM     21  N   UNL     1       5.744  -4.101   2.578  0.00  0.00    -0.310 NA
ATOM     22  H   UNL     1       5.592  -3.709   1.661  0.00  0.00    +0.122 HD
ATOM     23  H   UNL     1       3.217  -3.523   5.968  0.00  0.00    +0.160 HD
ENDBRANCH   5   9
BRANCH   4  24
ATOM     24  O   UNL     1       6.501  -1.892   3.200  0.00  0.00    -0.376 OA
ATOM     25  H   UNL     1       7.261  -1.348   3.449  0.00  0.00    +0.211 HD
ENDBRANCH   4  24
BRANCH   2  26
ATOM     26  O   UNL     1       4.519   1.366   1.692  0.00  0.00    -0.361 OA
ATOM     27  H   UNL     1       5.013   2.087   2.106  0.00  0.00    +0.213 HD
ENDBRANCH   2  26
BRANCH   1  28
ATOM     28  C   UNL     1       3.778  -0.687  -0.035  0.00  0.00    +0.146 C 
BRANCH  28  32
ATOM     29  C   UNL     1       0.048   1.393  -0.051  0.00  0.00    +0.000 A 
ATOM     30  C   UNL     1       1.234   2.102  -0.030  0.00  0.00    +0.000 A 
ATOM     31  C   UNL     1       2.441   1.429  -0.025  0.00  0.00    +0.005 A 
ATOM     32  C   UNL     1       2.462   0.047  -0.040  0.00  0.00    -0.030 A 
ATOM     33  C   UNL     1       1.276  -0.662  -0.060  0.00  0.00    +0.005 A 
ATOM     34  C   UNL     1       0.068   0.011  -0.067  0.00  0.00    +0.000 A 
ENDBRANCH  28  32
ENDBRANCH   1  28
TORSDOF 5
