REMARK  Name = ZINC65256778
REMARK  4 active torsions:
REMARK  status: ('A' for Active; 'I' for Inactive)
REMARK    1  A    between atoms: C_1  and  C_2
REMARK    2  A    between atoms: C_6  and  C_7
REMARK    3  A    between atoms: C_7  and  N_8
REMARK    4  A    between atoms: C_11  and  N_14
REMARK                            x       y       z     vdW  Elec       q    Type
REMARK                         _______ _______ _______ _____ _____    ______ ____
ROOT
ATOM      1  N   UNL     1      -1.601  -0.230   2.998  0.00  0.00    -0.296 NA
ATOM      2  C   UNL     1      -2.428   0.683   2.181  0.00  0.00    +0.087 C 
ATOM      3  C   UNL     1      -3.516   1.206   3.151  0.00  0.00    +0.042 C 
ATOM      4  C   UNL     1      -2.717   1.346   4.473  0.00  0.00    +0.109 C 
ATOM      5  C   UNL     1      -1.739   0.153   4.415  0.00  0.00    +0.110 C 
ENDROOT
BRANCH   4   6
ATOM      6  N   UNL     1      -3.608   1.234   5.631  0.00  0.00    -0.272 N 
ATOM      7  C   UNL     1      -3.784   2.196   6.608  0.00  0.00    +0.164 A 
ATOM      8  C   UNL     1      -4.718   1.681   7.518  0.00  0.00    +0.105 A 
ATOM      9  C   UNL     1      -5.077   2.454   8.608  0.00  0.00    +0.142 A 
ATOM     10  N   UNL     1      -4.524   3.651   8.750  0.00  0.00    -0.242 NA
ATOM     11  C   UNL     1      -3.648   4.105   7.875  0.00  0.00    +0.223 A 
ATOM     12  N   UNL     1      -3.278   3.402   6.822  0.00  0.00    -0.216 NA
ATOM     13  N   UNL     1      -5.076   0.419   7.056  0.00  0.00    -0.303 N 
ATOM     14  H   UNL     1      -5.708  -0.184   7.479  0.00  0.00    +0.171 HD
ATOM     15  C   UNL     1      -4.396   0.181   5.918  0.00  0.00    +0.329 A 
ATOM     16  O   UNL     1      -4.479  -0.834   5.251  0.00  0.00    -0.246 OA
ENDBRANCH   4   6
BRANCH   1  17
ATOM     17  C   UNL     1      -0.195  -0.188   2.576  0.00  0.00    +0.127 C 
BRANCH  17  23
ATOM     18  C   UNL     1       0.182  -3.218   2.237  0.00  0.00    +0.044 C 
ATOM     19  C   UNL     1       0.130  -2.264   1.071  0.00  0.00    -0.039 A 
ATOM     20  C   UNL     1       0.247  -2.733  -0.224  0.00  0.00    +0.011 A 
ATOM     21  C   UNL     1       0.195  -1.849  -1.250  0.00  0.00    +0.046 A 
ATOM     22  S   UNL     1      -0.024  -0.299  -0.392  0.00  0.00    -0.100 S 
ATOM     23  C   UNL     1      -0.038  -0.935   1.276  0.00  0.00    +0.007 A 
ENDBRANCH  17  23
ENDBRANCH   1  17
TORSDOF 3
