REMARK  Name = ZINC43936848
REMARK  10 active torsions:
REMARK  status: ('A' for Active; 'I' for Inactive)
REMARK    1  A    between atoms: C_1  and  C_2
REMARK    2  A    between atoms: C_3  and  C_21
REMARK    3  A    between atoms: C_8  and  C_10
REMARK    4  A    between atoms: C_10  and  C_12
REMARK    5  A    between atoms: C_10  and  N_13
REMARK    6  A    between atoms: C_14  and  O_16
REMARK    7  A    between atoms: O_16  and  C_17
REMARK    8  A    between atoms: C_17  and  C_18
REMARK    9  A    between atoms: C_17  and  C_19
REMARK   10  A    between atoms: C_17  and  C_20
REMARK                            x       y       z     vdW  Elec       q    Type
REMARK                         _______ _______ _______ _____ _____    ______ ____
ROOT
ATOM      1  C   UNL     1      -0.018   1.503   0.010  0.00  0.00    +0.066 C 
ATOM      2  C   UNL     1       0.002  -0.004   0.002  0.00  0.00    +0.050 A 
ATOM      3  C   UNL     1       0.006  -0.706  -1.158  0.00  0.00    +0.011 A 
ATOM      4  S   UNL     1       0.032  -2.379  -0.535  0.00  0.00    -0.057 S 
ATOM      5  C   UNL     1       0.036  -2.015   1.108  0.00  0.00    +0.165 A 
ATOM      6  N   UNL     1       0.023  -0.700   1.124  0.00  0.00    -0.230 NA
ATOM      7  N   UNL     1       0.053  -2.891   2.187  0.00  0.00    -0.263 N 
ATOM      8  C   UNL     1       0.053  -2.410   3.446  0.00  0.00    +0.239 C 
ATOM      9  O   UNL     1       0.038  -1.213   3.638  0.00  0.00    -0.273 OA
ATOM     10  C   UNL     1      -0.009  -0.210  -2.581  0.00  0.00    +0.053 C 
ATOM     11  H   UNL     1       0.065  -3.849   2.034  0.00  0.00    +0.157 HD
ENDROOT
BRANCH   8  12
ATOM     12  C   UNL     1       0.072  -3.361   4.616  0.00  0.00    +0.159 C 
ATOM     13  C   UNL     1      -1.166  -4.259   4.563  0.00  0.00    +0.038 C 
BRANCH  12  14
ATOM     14  N   UNL     1       0.068  -2.597   5.866  0.00  0.00    -0.270 N 
ATOM     15  C   UNL     1       0.574  -3.141   6.990  0.00  0.00    +0.401 C 
ATOM     16  O   UNL     1       1.034  -4.265   6.967  0.00  0.00    -0.226 OA
ATOM     17  H   UNL     1      -0.299  -1.699   5.884  0.00  0.00    +0.153 HD
BRANCH  15  18
ATOM     18  O   UNL     1       0.571  -2.439   8.139  0.00  0.00    -0.445 OA
BRANCH  18  19
ATOM     19  C   UNL     1       1.123  -3.078   9.291  0.00  0.00    +0.107 C 
ATOM     20  C   UNL     1       2.589  -3.426   9.027  0.00  0.00    +0.055 C 
ATOM     21  C   UNL     1       1.032  -2.133  10.491  0.00  0.00    +0.055 C 
ATOM     22  C   UNL     1       0.340  -4.358   9.589  0.00  0.00    +0.055 C 
ENDBRANCH  18  19
ENDBRANCH  15  18
ENDBRANCH  12  14
ENDBRANCH   8  12
TORSDOF 4
