REMARK  Name = ZINC63830753
REMARK  9 active torsions:
REMARK  status: ('A' for Active; 'I' for Inactive)
REMARK    1  A    between atoms: C_1  and  C_2
REMARK    2  A    between atoms: N_11  and  C_15
REMARK    3  A    between atoms: C_15  and  C_16
REMARK    4  A    between atoms: N_18  and  C_19
REMARK    5  A    between atoms: C_19  and  C_20
REMARK    6  A    between atoms: C_20  and  C_22
REMARK    7  A    between atoms: C_20  and  C_30
REMARK    8  A    between atoms: C_25  and  O_28
REMARK    9  A    between atoms: O_28  and  C_29
REMARK                            x       y       z     vdW  Elec       q    Type
REMARK                         _______ _______ _______ _____ _____    ______ ____
ROOT
ATOM      1  C   UNL     1       4.202   5.194   2.148  0.00  0.00    +0.116 C 
ENDROOT
BRANCH   1   4
ATOM      2  C   UNL     1       3.277   2.951   2.373  0.00  0.00    +0.231 C 
ATOM      3  O   UNL     1       2.353   3.293   1.666  0.00  0.00    -0.274 OA
ATOM      4  N   UNL     1       4.255   3.827   2.674  0.00  0.00    -0.313 N 
ATOM      5  H   UNL     1       4.995   3.554   3.240  0.00  0.00    +0.149 HD
BRANCH   2   6
ATOM      6  C   UNL     1       3.332   1.546   2.915  0.00  0.00    +0.213 C 
BRANCH   6  16
ATOM      7  C   UNL     1      -0.019   1.526   0.010  0.00  0.00    +0.010 C 
ATOM      8  C   UNL     1       0.002  -0.004   0.002  0.00  0.00    +0.018 C 
ATOM      9  C   UNL     1       0.718  -0.497  -1.258  0.00  0.00    +0.006 C 
ATOM     10  C   UNL     1       0.756  -2.027  -1.256  0.00  0.00    +0.000 C 
ATOM     11  C   UNL     1       1.519  -2.517  -0.023  0.00  0.00    +0.003 C 
ATOM     12  C   UNL     1       0.807  -2.032   1.242  0.00  0.00    +0.035 C 
ATOM     13  C   UNL     1       0.739  -0.509   1.238  0.00  0.00    +0.115 C 
ATOM     14  C   UNL     1       2.128   0.083   1.303  0.00  0.00    +0.247 C 
ATOM     15  O   UNL     1       3.022  -0.055   0.496  0.00  0.00    -0.273 OA
ATOM     16  N   UNL     1       2.163   0.796   2.447  0.00  0.00    -0.215 N 
ATOM     17  C   UNL     1       0.998   0.734   3.103  0.00  0.00    +0.310 C 
ATOM     18  O   UNL     1       0.786   1.296   4.159  0.00  0.00    -0.252 OA
ATOM     19  N   UNL     1       0.086  -0.021   2.460  0.00  0.00    -0.285 N 
ATOM     20  H   UNL     1      -0.822  -0.205   2.747  0.00  0.00    +0.151 HD
ENDBRANCH   6  16
ENDBRANCH   2   6
ENDBRANCH   1   4
BRANCH   1  21
ATOM     21  C   UNL     1       5.423   5.976   2.636  0.00  0.00    +0.064 C 
BRANCH  21  22
ATOM     22  C   UNL     1       5.359   6.124   4.134  0.00  0.00    -0.033 C 
ATOM     23  C   UNL     1       6.266   5.681   5.035  0.00  0.00    -0.000 A 
ATOM     24  C   UNL     1       7.535   4.957   4.894  0.00  0.00    +0.010 A 
ATOM     25  C   UNL     1       8.239   4.645   6.006  0.00  0.00    +0.001 A 
ATOM     26  C   UNL     1       7.787   4.993   7.286  0.00  0.00    +0.002 A 
ATOM     27  C   UNL     1       6.631   5.659   7.496  0.00  0.00    +0.026 A 
ATOM     28  C   UNL     1       5.811   6.038   6.398  0.00  0.00    +0.043 A 
ATOM     29  N   UNL     1       4.668   6.677   6.342  0.00  0.00    -0.380 N 
ATOM     30  C   UNL     1       4.270   6.802   4.935  0.00  0.00    +0.145 C 
ATOM     31  H   UNL     1       4.170   7.013   7.103  0.00  0.00    +0.160 HD
ENDBRANCH  21  22
BRANCH  21  32
ATOM     32  C   UNL     1       5.434   7.341   1.997  0.00  0.00    -0.038 A 
ATOM     33  C   UNL     1       4.379   8.210   2.207  0.00  0.00    +0.008 A 
ATOM     34  C   UNL     1       4.386   9.461   1.622  0.00  0.00    +0.046 A 
ATOM     35  C   UNL     1       5.453   9.846   0.823  0.00  0.00    +0.120 A 
ATOM     36  C   UNL     1       6.510   8.972   0.614  0.00  0.00    +0.046 A 
ATOM     37  C   UNL     1       6.501   7.724   1.206  0.00  0.00    +0.008 A 
BRANCH  35  38
ATOM     38  O   UNL     1       5.462  11.076   0.246  0.00  0.00    -0.495 OA
ATOM     39  C   UNL     1       6.592  11.405  -0.564  0.00  0.00    +0.277 C 
ENDBRANCH  35  38
ENDBRANCH  21  32
ENDBRANCH   1  21
TORSDOF 7
