REMARK  Name = ZINC22068416
REMARK  13 active torsions:
REMARK  status: ('A' for Active; 'I' for Inactive)
REMARK    1  A    between atoms: C_1  and  C_2
REMARK    2  A    between atoms: C_2  and  N_3
REMARK    3  A    between atoms: N_3  and  C_4
REMARK    4  A    between atoms: C_9  and  C_10
REMARK    5  A    between atoms: C_11  and  C_13
REMARK    6  A    between atoms: C_13  and  S_14
REMARK    7  A    between atoms: S_14  and  C_15
REMARK    8  A    between atoms: N_28  and  C_29
REMARK    9  A    between atoms: C_29  and  C_30
REMARK   10  A    between atoms: C_30  and  C_31
REMARK   11  A    between atoms: C_31  and  N_32
REMARK   12  A    between atoms: N_32  and  C_33
REMARK   13  A    between atoms: N_32  and  C_34
REMARK                            x       y       z     vdW  Elec       q    Type
REMARK                         _______ _______ _______ _____ _____    ______ ____
ROOT
ATOM      1  C   UNL     1      -0.904   3.050   3.744  0.00  0.00    +0.173 A 
ATOM      2  N   UNL     1      -1.808   3.836   4.292  0.00  0.00    -0.216 NA
ATOM      3  C   UNL     1      -2.917   3.333   4.821  0.00  0.00    +0.117 A 
ATOM      4  C   UNL     1      -3.185   1.954   4.821  0.00  0.00    +0.076 A 
ATOM      5  C   UNL     1      -4.448   1.548   5.442  0.00  0.00    -0.023 A 
ATOM      6  C   UNL     1      -5.224   2.528   5.948  0.00  0.00    -0.004 A 
ATOM      7  S   UNL     1      -4.334   4.028   5.634  0.00  0.00    -0.073 S 
ATOM      8  C   UNL     1      -6.550   2.375   6.628  0.00  0.00    +0.043 C 
ATOM      9  C   UNL     1      -7.084   0.965   6.339  0.00  0.00    +0.005 C 
ATOM     10  C   UNL     1      -5.963  -0.046   6.598  0.00  0.00    +0.005 C 
ATOM     11  C   UNL     1      -4.884   0.087   5.522  0.00  0.00    +0.037 C 
ATOM     12  C   UNL     1      -2.189   1.124   4.216  0.00  0.00    +0.263 A 
ATOM     13  O   UNL     1      -2.336  -0.085   4.170  0.00  0.00    -0.267 OA
ATOM     14  N   UNL     1      -1.087   1.698   3.697  0.00  0.00    -0.287 N 
ENDROOT
BRANCH   1  15
ATOM     15  S   UNL     1       0.558   3.753   3.058  0.00  0.00    -0.078 S 
BRANCH  15  16
ATOM     16  C   UNL     1       0.255   5.504   3.400  0.00  0.00    +0.173 C 
BRANCH  16  18
ATOM     17  N   UNL     1       1.404   7.664   3.030  0.00  0.00    -0.271 N 
ATOM     18  C   UNL     1       1.411   6.324   2.885  0.00  0.00    +0.230 C 
ATOM     19  O   UNL     1       2.347   5.777   2.341  0.00  0.00    -0.274 OA
BRANCH  17  20
ATOM     20  C   UNL     1       2.477   8.424   2.552  0.00  0.00    +0.039 A 
ATOM     21  C   UNL     1       3.597   8.624   3.349  0.00  0.00    +0.024 A 
ATOM     22  C   UNL     1       4.656   9.372   2.873  0.00  0.00    +0.002 A 
ATOM     23  C   UNL     1       4.598   9.929   1.608  0.00  0.00    +0.000 A 
ATOM     24  C   UNL     1       3.482   9.736   0.815  0.00  0.00    +0.005 A 
ATOM     25  C   UNL     1       2.421   8.986   1.284  0.00  0.00    -0.029 A 
ATOM     26  C   UNL     1       1.205   8.777   0.419  0.00  0.00    +0.045 C 
ENDBRANCH  17  20
BRANCH  17  28
ATOM     27  C   UNL     1       0.523   8.383   5.195  0.00  0.00    +0.025 C 
ATOM     28  C   UNL     1       0.273   8.324   3.687  0.00  0.00    +0.110 C 
ENDBRANCH  17  28
ENDBRANCH  16  18
ENDBRANCH  15  16
ENDBRANCH   1  15
BRANCH  14  29
ATOM     29  C   UNL     1      -0.063   0.855   3.076  0.00  0.00    +0.125 C 
BRANCH  29  30
ATOM     30  C   UNL     1      -0.372   0.690   1.587  0.00  0.00    +0.003 C 
BRANCH  30  31
ATOM     31  C   UNL     1       0.699  -0.190   0.939  0.00  0.00    -0.078 C 
BRANCH  31  32
ATOM     32  N   UNL     1       0.402  -0.349  -0.491  0.00  0.00    +0.376 N 
ATOM     33  C   UNL     1       1.524  -0.985  -1.194  0.00  0.00    -0.097 C 
ATOM     34  C   UNL     1      -0.841  -1.106  -0.690  0.00  0.00    -0.097 C 
ATOM     35  H   UNL     1       0.259   0.654  -0.920  0.00  0.00    -0.083 HD
ENDBRANCH  31  32
ENDBRANCH  30  31
ENDBRANCH  29  30
ENDBRANCH  14  29
TORSDOF 9
