REMARK  Name = ZINC63492683
REMARK  6 active torsions:
REMARK  status: ('A' for Active; 'I' for Inactive)
REMARK    1  A    between atoms: C_1  and  C_2
REMARK    2  A    between atoms: C_10  and  C_12
REMARK    3  A    between atoms: C_12  and  C_13
REMARK    4  A    between atoms: N_15  and  C_16
REMARK    5  A    between atoms: C_16  and  C_17
REMARK    6  A    between atoms: C_17  and  C_18
REMARK                            x       y       z     vdW  Elec       q    Type
REMARK                         _______ _______ _______ _____ _____    ______ ____
ROOT
ATOM      1  C   UNL     1       2.870  -5.756   1.376  0.00  0.00    +0.220 C 
ATOM      2  O   UNL     1       2.434  -5.109   2.304  0.00  0.00    -0.275 OA
ATOM      3  N   UNL     1       3.614  -6.856   1.613  0.00  0.00    -0.315 N 
ATOM      4  H   UNL     1       3.963  -7.374   0.871  0.00  0.00    +0.149 HD
ENDROOT
BRANCH   1   5
ATOM      5  C   UNL     1       2.583  -5.332  -0.041  0.00  0.00    +0.173 C 
BRANCH   5  15
ATOM      6  C   UNL     1      -0.018   1.503   0.010  0.00  0.00    +0.066 C 
ATOM      7  C   UNL     1       0.002  -0.004   0.002  0.00  0.00    +0.047 A 
ATOM      8  C   UNL     1      -1.198  -0.713   0.004  0.00  0.00    +0.095 A 
ATOM      9  C   UNL     1      -1.165  -2.081  -0.004  0.00  0.00    +0.276 A 
ATOM     10  O   UNL     1      -2.312  -2.797  -0.003  0.00  0.00    -0.266 OA
ATOM     11  N   UNL     1       0.044  -2.710  -0.014  0.00  0.00    -0.159 N 
ATOM     12  C   UNL     1       1.199  -1.980  -0.015  0.00  0.00    +0.256 A 
ATOM     13  N   UNL     1       1.153  -0.642  -0.012  0.00  0.00    -0.216 NA
ATOM     14  N   UNL     1       2.209  -2.842  -0.025  0.00  0.00    -0.193 NA
ATOM     15  C   UNL     1       1.739  -4.083  -0.029  0.00  0.00    +0.162 A 
ATOM     16  N   UNL     1       0.428  -4.057  -0.023  0.00  0.00    -0.145 NA
ENDBRANCH   5  15
ENDBRANCH   1   5
BRANCH   3  17
ATOM     17  C   UNL     1       3.893  -7.269   2.990  0.00  0.00    +0.108 C 
BRANCH  17  18
ATOM     18  C   UNL     1       4.750  -8.536   2.979  0.00  0.00    +0.052 C 
BRANCH  18  19
ATOM     19  C   UNL     1       5.038  -8.961   4.396  0.00  0.00    -0.040 C 
ATOM     20  C   UNL     1       4.354  -9.870   5.127  0.00  0.00    +0.000 A 
ATOM     21  C   UNL     1       3.182 -10.703   4.833  0.00  0.00    +0.030 A 
ATOM     22  C   UNL     1       2.714 -11.538   5.790  0.00  0.00    +0.042 A 
ATOM     23  C   UNL     1       3.320 -11.626   7.053  0.00  0.00    +0.022 A 
ATOM     24  C   UNL     1       4.399 -10.892   7.395  0.00  0.00    +0.027 A 
ATOM     25  C   UNL     1       4.975  -9.982   6.466  0.00  0.00    +0.043 A 
ATOM     26  N   UNL     1       6.003  -9.174   6.559  0.00  0.00    -0.380 N 
ATOM     27  C   UNL     1       6.154  -8.461   5.285  0.00  0.00    +0.144 C 
ATOM     28 CL   UNL     1       1.328 -12.525   5.447  0.00  0.00    -0.084 Cl
ATOM     29  H   UNL     1       6.571  -9.067   7.338  0.00  0.00    +0.160 HD
ENDBRANCH  18  19
ENDBRANCH  17  18
ENDBRANCH   3  17
TORSDOF 5
