REMARK  Name = ZINC13496631
REMARK  6 active torsions:
REMARK  status: ('A' for Active; 'I' for Inactive)
REMARK    1  A    between atoms: C_1  and  C_2
REMARK    2  A    between atoms: C_2  and  O_3
REMARK    3  A    between atoms: O_3  and  C_4
REMARK    4  A    between atoms: C_7  and  N_10
REMARK    5  A    between atoms: C_15  and  C_29
REMARK    6  A    between atoms: C_30  and  C_31
REMARK                            x       y       z     vdW  Elec       q    Type
REMARK                         _______ _______ _______ _____ _____    ______ ____
ROOT
ATOM      1  N   UNL     1       1.101  -5.940  -1.835  0.00  0.00    -0.209 N 
ATOM      2  C   UNL     1       1.718  -6.510  -2.897  0.00  0.00    +0.232 C 
ATOM      3  O   UNL     1       2.106  -5.953  -3.901  0.00  0.00    -0.274 OA
ATOM      4  C   UNL     1       1.824  -7.968  -2.577  0.00  0.00    +0.110 C 
ATOM      5  C   UNL     1       2.041  -8.938  -3.676  0.00  0.00    +0.064 C 
ATOM      6  C   UNL     1       0.814  -9.425  -4.356  0.00  0.00    +0.032 A 
ATOM      7  C   UNL     1      -0.471  -9.269  -3.989  0.00  0.00    +0.088 A 
ATOM      8  N   UNL     1      -1.389  -9.871  -4.820  0.00  0.00    -0.311 N 
ATOM      9  H   UNL     1      -2.335  -9.821  -4.614  0.00  0.00    +0.170 HD
ATOM     10  C   UNL     1      -0.974 -10.528  -5.918  0.00  0.00    +0.289 A 
ATOM     11  O   UNL     1      -1.647 -11.104  -6.754  0.00  0.00    -0.260 OA
ATOM     12  S   UNL     1       0.699 -10.361  -5.860  0.00  0.00    -0.030 S 
ATOM     13  S   UNL     1      -0.909  -8.331  -2.549  0.00  0.00    -0.093 S 
ATOM     14  C   UNL     1       0.643  -8.212  -1.628  0.00  0.00    +0.152 C 
ATOM     15  C   UNL     1       0.606  -6.829  -0.951  0.00  0.00    +0.240 C 
ATOM     16  O   UNL     1       0.204  -6.585   0.166  0.00  0.00    -0.274 OA
ENDROOT
BRANCH   1  20
ATOM     17  C   UNL     1       0.777  -1.810  -1.336  0.00  0.00    +0.121 A 
ATOM     18  C   UNL     1       0.242  -2.668  -0.386  0.00  0.00    +0.047 A 
ATOM     19  C   UNL     1       0.349  -4.035  -0.550  0.00  0.00    +0.027 A 
ATOM     20  C   UNL     1       0.992  -4.551  -1.668  0.00  0.00    +0.044 A 
ATOM     21  C   UNL     1       1.526  -3.692  -2.619  0.00  0.00    +0.027 A 
ATOM     22  C   UNL     1       1.414  -2.326  -2.455  0.00  0.00    +0.047 A 
BRANCH  17  23
ATOM     23  O   UNL     1       0.671  -0.465  -1.174  0.00  0.00    -0.492 OA
BRANCH  23  25
ATOM     24  C   UNL     1      -0.019   1.526   0.010  0.00  0.00    +0.048 C 
ATOM     25  C   UNL     1       0.002  -0.004   0.002  0.00  0.00    +0.225 C 
ENDBRANCH  23  25
ENDBRANCH  17  23
ENDBRANCH   1  20
BRANCH   5  26
ATOM     26  C   UNL     1       2.770 -10.131  -3.114  0.00  0.00    -0.017 C 
ATOM     27  C   UNL     1       3.958 -10.469  -3.595  0.00  0.00    +0.004 C 
BRANCH  27  28
ATOM     28  C   UNL     1       4.673 -11.640  -3.044  0.00  0.00    -0.025 A 
ATOM     29  C   UNL     1       4.097 -12.395  -2.021  0.00  0.00    +0.008 A 
ATOM     30  C   UNL     1       4.769 -13.486  -1.511  0.00  0.00    +0.001 A 
ATOM     31  C   UNL     1       6.011 -13.833  -2.011  0.00  0.00    +0.000 A 
ATOM     32  C   UNL     1       6.588 -13.089  -3.025  0.00  0.00    +0.001 A 
ATOM     33  C   UNL     1       5.923 -11.999  -3.548  0.00  0.00    +0.008 A 
ENDBRANCH  27  28
ENDBRANCH   5  26
TORSDOF 5
