REMARK  Name = ZINC34698926
REMARK  12 active torsions:
REMARK  status: ('A' for Active; 'I' for Inactive)
REMARK    1  A    between atoms: C_1  and  C_2
REMARK    2  A    between atoms: C_2  and  C_3
REMARK    3  A    between atoms: C_2  and  C_4
REMARK    4  A    between atoms: C_4  and  N_5
REMARK    5  A    between atoms: N_5  and  C_6
REMARK    6  A    between atoms: C_6  and  C_7
REMARK    7  A    between atoms: N_10  and  C_22
REMARK    8  A    between atoms: C_12  and  C_14
REMARK    9  A    between atoms: C_18  and  O_20
REMARK   10  A    between atoms: O_20  and  C_21
REMARK   11  A    between atoms: C_22  and  C_23
REMARK   12  A    between atoms: C_29  and  C_31
REMARK                            x       y       z     vdW  Elec       q    Type
REMARK                         _______ _______ _______ _____ _____    ______ ____
ROOT
ATOM      1  C   UNL     1      -2.284  -3.296   2.544  0.00  0.00    -0.005 C 
ATOM      2  C   UNL     1      -3.203  -2.557   3.539  0.00  0.00    -0.073 C 
ATOM      3  N   UNL     1      -3.665  -3.612   4.477  0.00  0.00    +0.384 N 
ATOM      4  C   UNL     1      -2.465  -4.461   4.691  0.00  0.00    -0.070 C 
ATOM      5  C   UNL     1      -1.798  -4.551   3.299  0.00  0.00    +0.005 C 
ATOM      6  H   UNL     1      -4.410  -4.152   4.062  0.00  0.00    -0.081 HD
ENDROOT
BRANCH   5   7
ATOM      7  C   UNL     1      -0.297  -4.531   3.435  0.00  0.00    -0.042 A 
ATOM      8  C   UNL     1       0.478  -5.370   2.655  0.00  0.00    +0.004 A 
ATOM      9  C   UNL     1       1.855  -5.354   2.777  0.00  0.00    +0.004 A 
ATOM     10  C   UNL     1       2.460  -4.501   3.680  0.00  0.00    +0.045 A 
ATOM     11  C   UNL     1       1.685  -3.659   4.463  0.00  0.00    +0.120 A 
ATOM     12  C   UNL     1       0.303  -3.672   4.335  0.00  0.00    +0.049 A 
BRANCH  11  13
ATOM     13  O   UNL     1       2.278  -2.819   5.352  0.00  0.00    -0.495 OA
ATOM     14  C   UNL     1       3.704  -2.856   5.427  0.00  0.00    +0.277 C 
ENDBRANCH  11  13
ENDBRANCH   5   7
BRANCH   1  15
ATOM     15  C   UNL     1      -1.095  -2.412   2.162  0.00  0.00    +0.110 C 
BRANCH  15  16
ATOM     16  N   UNL     1      -1.548  -1.344   1.267  0.00  0.00    -0.297 N 
ATOM     17  C   UNL     1      -1.323  -1.435  -0.059  0.00  0.00    +0.247 C 
ATOM     18  O   UNL     1      -1.649  -0.523  -0.794  0.00  0.00    -0.270 OA
BRANCH  17  19
ATOM     19  C   UNL     1      -0.681  -2.642  -0.618  0.00  0.00    +0.037 A 
ATOM     20  C   UNL     1      -1.107  -3.910  -0.220  0.00  0.00    +0.016 A 
ATOM     21  C   UNL     1      -0.505  -5.033  -0.745  0.00  0.00    +0.039 A 
ATOM     22  C   UNL     1       0.522  -4.905  -1.667  0.00  0.00    +0.123 A 
ATOM     23  C   UNL     1       0.949  -3.647  -2.067  0.00  0.00    +0.039 A 
ATOM     24  C   UNL     1       0.349  -2.518  -1.552  0.00  0.00    +0.016 A 
ATOM     25  F   UNL     1       1.110  -6.009  -2.179  0.00  0.00    -0.205 F 
ENDBRANCH  17  19
BRANCH  16  26
ATOM     26  C   UNL     1      -2.245  -0.177   1.814  0.00  0.00    +0.111 C 
BRANCH  26  28
ATOM     27  C   UNL     1      -1.986   2.211   2.502  0.00  0.00    +0.009 C 
ATOM     28  C   UNL     1      -1.241   0.953   2.049  0.00  0.00    +0.000 C 
ATOM     29  C   UNL     1      -0.244   0.533   3.131  0.00  0.00    +0.009 C 
ENDBRANCH  26  28
ENDBRANCH  16  26
ENDBRANCH  15  16
ENDBRANCH   1  15
BRANCH   3  30
ATOM     30  C   UNL     1      -4.105  -3.016   5.746  0.00  0.00    -0.025 C 
BRANCH  30  31
ATOM     31  C   UNL     1      -4.682  -4.089   6.632  0.00  0.00    -0.001 A 
ATOM     32  C   UNL     1      -5.987  -4.413   6.734  0.00  0.00    +0.020 A 
ATOM     33  C   UNL     1      -6.089  -5.463   7.668  0.00  0.00    +0.019 A 
ATOM     34  C   UNL     1      -4.843  -5.741   8.101  0.00  0.00    +0.082 A 
ATOM     35  N   UNL     1      -3.974  -4.905   7.464  0.00  0.00    -0.366 N 
ATOM     36  H   UNL     1      -3.012  -4.891   7.585  0.00  0.00    +0.165 HD
ENDBRANCH  30  31
ENDBRANCH   3  30
TORSDOF 9
