REMARK  Name = ZINC09013193
REMARK  3 active torsions:
REMARK  status: ('A' for Active; 'I' for Inactive)
REMARK    1  A    between atoms: C_1  and  C_2
REMARK    2  A    between atoms: C_2  and  C_27
REMARK    3  A    between atoms: C_6  and  C_17
REMARK                            x       y       z     vdW  Elec       q    Type
REMARK                         _______ _______ _______ _____ _____    ______ ____
ROOT
ATOM      1  C   UNL     1      -0.019   1.526   0.010  0.00  0.00    +0.011 C 
ATOM      2  C   UNL     1       0.002  -0.004   0.002  0.00  0.00    -0.023 C 
ATOM      3  C   UNL     1      -1.431  -0.538   0.039  0.00  0.00    +0.058 C 
ATOM      4  C   UNL     1      -1.410  -2.046   0.082  0.00  0.00    +0.017 C 
ATOM      5  C   UNL     1      -0.398  -2.710   0.680  0.00  0.00    +0.024 C 
ATOM      6  C   UNL     1      -0.385  -4.217   0.735  0.00  0.00    +0.092 C 
ATOM      7  C   UNL     1      -1.324  -4.807  -0.275  0.00  0.00    +0.069 A 
ATOM      8  C   UNL     1      -1.204  -6.162  -0.650  0.00  0.00    +0.280 A 
ATOM      9  O   UNL     1      -0.330  -6.862  -0.158  0.00  0.00    -0.265 OA
ATOM     10  N   UNL     1      -2.055  -6.679  -1.550  0.00  0.00    -0.177 NA
ATOM     11  C   UNL     1      -3.000  -5.940  -2.091  0.00  0.00    +0.195 A 
ATOM     12  N   UNL     1      -3.147  -4.628  -1.757  0.00  0.00    -0.316 N 
ATOM     13  C   UNL     1      -2.304  -4.054  -0.843  0.00  0.00    +0.112 A 
ATOM     14  N   UNL     1      -2.442  -2.728  -0.503  0.00  0.00    -0.304 N 
ATOM     15  N   UNL     1      -3.852  -6.500  -3.006  0.00  0.00    -0.329 N 
ATOM     16  C   UNL     1       0.675  -2.018   1.267  0.00  0.00    +0.162 C 
ATOM     17  O   UNL     1       1.566  -2.646   1.806  0.00  0.00    -0.292 OA
ATOM     18  C   UNL     1       0.742  -0.516   1.242  0.00  0.00    +0.086 C 
ATOM     19  C   UNL     1       0.709  -0.502  -1.261  0.00  0.00    +0.011 C 
ATOM     20  H   UNL     1      -3.280  -2.272  -0.680  0.00  0.00    +0.153 HD
ATOM     21  H   UNL     1      -3.755  -7.434  -3.250  0.00  0.00    +0.145 HD
ATOM     22  H   UNL     1      -4.551  -5.963  -3.410  0.00  0.00    +0.145 HD
ATOM     23  H   UNL     1      -3.849  -4.099  -2.167  0.00  0.00    +0.170 HD
ENDROOT
BRANCH   6  24
ATOM     24  C   UNL     1      -0.798  -4.664   2.113  0.00  0.00    -0.035 A 
ATOM     25  C   UNL     1      -2.044  -4.322   2.605  0.00  0.00    +0.007 A 
ATOM     26  C   UNL     1      -2.425  -4.732   3.869  0.00  0.00    +0.038 A 
ATOM     27  C   UNL     1      -1.558  -5.486   4.642  0.00  0.00    +0.123 A 
ATOM     28  C   UNL     1      -0.310  -5.828   4.148  0.00  0.00    +0.038 A 
ATOM     29  C   UNL     1       0.066  -5.421   2.882  0.00  0.00    +0.007 A 
ATOM     30  F   UNL     1      -1.928  -5.887   5.878  0.00  0.00    -0.205 F 
ENDBRANCH   6  24
TORSDOF 1
