REMARK  Name = ZINC43609989
REMARK  5 active torsions:
REMARK  status: ('A' for Active; 'I' for Inactive)
REMARK    1  A    between atoms: C_4  and  C_7
REMARK    2  A    between atoms: C_7  and  O_34
REMARK    3  A    between atoms: N_10  and  C_19
REMARK    4  A    between atoms: C_19  and  C_20
REMARK    5  A    between atoms: C_22  and  C_25
REMARK                            x       y       z     vdW  Elec       q    Type
REMARK                         _______ _______ _______ _____ _____    ______ ____
ROOT
ATOM      1  C   UNL     1       3.711  -0.707  -0.038  0.00  0.00    +0.091 C 
ATOM      2  C   UNL     1       4.230  -0.863   1.395  0.00  0.00    +0.021 C 
ATOM      3  C   UNL     1       5.524  -1.679   1.376  0.00  0.00    -0.075 C 
ATOM      4  N   UNL     1       5.263  -3.005   0.802  0.00  0.00    +0.388 N 
ATOM      5  C   UNL     1       4.834  -2.867  -0.595  0.00  0.00    -0.062 C 
ATOM      6  C   UNL     1       3.513  -2.095  -0.652  0.00  0.00    +0.012 C 
ATOM      7  C   UNL     1       2.446  -2.854   0.139  0.00  0.00    +0.005 C 
ATOM      8  C   UNL     1       2.251  -4.244  -0.471  0.00  0.00    +0.000 C 
ATOM      9  C   UNL     1       3.571  -5.015  -0.418  0.00  0.00    -0.002 C 
ATOM     10  C   UNL     1       4.639  -4.255  -1.208  0.00  0.00    -0.015 C 
ATOM     11  H   UNL     1       4.537  -3.463   1.332  0.00  0.00    -0.081 HD
ENDROOT
BRANCH   1  15
ATOM     12  C   UNL     1      -0.016   1.380   0.013  0.00  0.00    +0.000 A 
ATOM     13  C   UNL     1       0.297   0.498   1.031  0.00  0.00    +0.000 A 
ATOM     14  C   UNL     1       1.503  -0.177   1.014  0.00  0.00    +0.006 A 
ATOM     15  C   UNL     1       2.396   0.029  -0.020  0.00  0.00    -0.016 A 
ATOM     16  C   UNL     1       2.083   0.909  -1.038  0.00  0.00    +0.006 A 
ATOM     17  C   UNL     1       0.878   1.586  -1.021  0.00  0.00    +0.000 A 
ENDBRANCH   1  15
BRANCH   1  18
ATOM     18  O   UNL     1       4.660   0.028  -0.813  0.00  0.00    -0.384 OA
ATOM     19  H   UNL     1       4.836   0.918  -0.479  0.00  0.00    +0.211 HD
ENDBRANCH   1  18
BRANCH   4  20
ATOM     20  C   UNL     1       6.490  -3.811   0.858  0.00  0.00    +0.022 C 
BRANCH  20  21
ATOM     21  C   UNL     1       6.858  -4.065   2.297  0.00  0.00    +0.211 A 
ATOM     22  N   UNL     1       6.468  -5.079   3.015  0.00  0.00    -0.193 NA
ATOM     23  C   UNL     1       6.984  -4.992   4.255  0.00  0.00    +0.202 A 
ATOM     24  N   UNL     1       7.713  -3.906   4.329  0.00  0.00    -0.056 NA
ATOM     25  O   UNL     1       7.647  -3.289   3.052  0.00  0.00    -0.340 OA
BRANCH  23  26
ATOM     26  C   UNL     1       6.762  -5.962   5.354  0.00  0.00    +0.026 A 
ATOM     27  C   UNL     1       5.965  -7.086   5.144  0.00  0.00    +0.015 A 
ATOM     28  C   UNL     1       5.759  -7.988   6.167  0.00  0.00    +0.050 A 
ATOM     29  C   UNL     1       6.345  -7.781   7.407  0.00  0.00    +0.166 A 
ATOM     30  C   UNL     1       7.144  -6.659   7.623  0.00  0.00    +0.167 A 
ATOM     31  C   UNL     1       7.357  -5.756   6.598  0.00  0.00    +0.061 A 
ATOM     32  O   UNL     1       7.596  -6.687   8.911  0.00  0.00    -0.453 OA
ATOM     33  C   UNL     1       6.737  -7.616   9.600  0.00  0.00    +0.466 C 
ATOM     34  O   UNL     1       6.298  -8.510   8.560  0.00  0.00    -0.453 OA
ENDBRANCH  23  26
ENDBRANCH  20  21
ENDBRANCH   4  20
TORSDOF 5
