REMARK  Name = ZINC39711111
REMARK  14 active torsions:
REMARK  status: ('A' for Active; 'I' for Inactive)
REMARK    1  A    between atoms: C_1  and  C_2
REMARK    2  A    between atoms: C_2  and  C_3
REMARK    3  A    between atoms: C_3  and  C_4
REMARK    4  A    between atoms: C_3  and  C_5
REMARK    5  A    between atoms: C_3  and  N_6
REMARK    6  A    between atoms: C_7  and  C_12
REMARK    7  A    between atoms: C_12  and  C_14
REMARK    8  A    between atoms: C_12  and  N_28
REMARK    9  A    between atoms: C_18  and  C_27
REMARK   10  A    between atoms: C_21  and  C_26
REMARK   11  A    between atoms: N_28  and  C_29
REMARK   12  A    between atoms: N_28  and  C_36
REMARK   13  A    between atoms: C_29  and  C_30
REMARK   14  A    between atoms: C_36  and  C_37
REMARK                            x       y       z     vdW  Elec       q    Type
REMARK                         _______ _______ _______ _____ _____    ______ ____
ROOT
ATOM      1  C   UNL     1       3.397  -4.571   3.405  0.00  0.00    -0.010 C 
ENDROOT
BRANCH   1   2
ATOM      2  C   UNL     1       3.615  -3.541   4.515  0.00  0.00    +0.088 C 
ATOM      3  C   UNL     1       4.196  -4.266   5.713  0.00  0.00    -0.006 C 
ATOM      4  C   UNL     1       3.504  -4.190   6.886  0.00  0.00    -0.004 A 
ATOM      5  C   UNL     1       3.993  -4.860   8.091  0.00  0.00    -0.042 A 
ATOM      6  C   UNL     1       3.270  -4.758   9.236  0.00  0.00    +0.004 A 
ATOM      7  C   UNL     1       2.079  -4.033   9.281  0.00  0.00    +0.005 A 
ATOM      8  C   UNL     1       1.572  -3.389   8.198  0.00  0.00    -0.029 A 
ATOM      9  C   UNL     1       2.244  -3.430   6.963  0.00  0.00    +0.043 A 
ATOM     10  N   UNL     1       1.737  -2.794   5.907  0.00  0.00    -0.284 N 
ATOM     11  C   UNL     1       2.315  -2.795   4.718  0.00  0.00    +0.223 C 
ATOM     12  O   UNL     1       1.804  -2.196   3.791  0.00  0.00    -0.275 OA
ATOM     13  C   UNL     1       0.279  -2.624   8.320  0.00  0.00    +0.045 C 
ATOM     14  C   UNL     1       5.276  -5.650   8.062  0.00  0.00    +0.044 C 
ATOM     15  H   UNL     1       0.904  -2.309   6.015  0.00  0.00    +0.155 HD
ENDBRANCH   1   2
BRANCH   1  17
ATOM     16  N   UNL     1       1.802  -6.352   2.773  0.00  0.00    -0.211 N 
ATOM     17  C   UNL     1       2.457  -5.670   3.905  0.00  0.00    +0.183 C 
ATOM     18  N   UNL     1       3.217  -6.757   4.550  0.00  0.00    -0.229 N 
ATOM     19  N   UNL     1       2.959  -7.906   3.792  0.00  0.00    -0.064 NA
ATOM     20  N   UNL     1       2.202  -7.691   2.850  0.00  0.00    -0.061 NA
ATOM     21  H   UNL     1       3.780  -6.690   5.337  0.00  0.00    +0.172 HD
BRANCH  16  22
ATOM     22  C   UNL     1       0.910  -5.752   1.777  0.00  0.00    +0.050 C 
ATOM     23  C   UNL     1       1.713  -4.814   0.873  0.00  0.00    +0.033 C 
ATOM     24  C   UNL     1      -0.188  -4.959   2.488  0.00  0.00    +0.033 C 
BRANCH  22  26
ATOM     25  C   UNL     1      -0.572  -6.227  -0.177  0.00  0.00    +0.006 C 
ATOM     26  C   UNL     1       0.275  -6.857   0.931  0.00  0.00    +0.023 C 
ENDBRANCH  22  26
ENDBRANCH  16  22
ENDBRANCH   1  17
BRANCH   1  27
ATOM     27  N   UNL     1       4.686  -5.164   3.027  0.00  0.00    +0.390 N 
ATOM     28  H   UNL     1       5.141  -5.532   3.849  0.00  0.00    -0.080 HD
BRANCH  27  29
ATOM     29  C   UNL     1       4.463  -6.250   2.063  0.00  0.00    -0.042 C 
BRANCH  29  30
ATOM     30  C   UNL     1       5.776  -6.916   1.743  0.00  0.00    -0.064 A 
ATOM     31  C   UNL     1       6.549  -6.451   0.696  0.00  0.00    +0.002 A 
ATOM     32  C   UNL     1       7.754  -7.062   0.402  0.00  0.00    +0.000 A 
ATOM     33  C   UNL     1       8.185  -8.137   1.155  0.00  0.00    +0.000 A 
ATOM     34  C   UNL     1       7.413  -8.602   2.203  0.00  0.00    +0.000 A 
ATOM     35  C   UNL     1       6.210  -7.988   2.500  0.00  0.00    +0.002 A 
ENDBRANCH  29  30
ENDBRANCH  27  29
BRANCH  27  36
ATOM     36  C   UNL     1       5.538  -4.135   2.415  0.00  0.00    -0.040 C 
BRANCH  36  37
ATOM     37  C   UNL     1       6.041  -3.199   3.483  0.00  0.00    -0.046 A 
ATOM     38  C   UNL     1       5.984  -1.826   3.298  0.00  0.00    +0.005 A 
ATOM     39  C   UNL     1       6.459  -1.003   4.308  0.00  0.00    +0.020 A 
ATOM     40  C   UNL     1       6.969  -1.575   5.458  0.00  0.00    +0.111 A 
ATOM     41  N   UNL     1       7.008  -2.885   5.600  0.00  0.00    -0.263 NA
ATOM     42  C   UNL     1       6.560  -3.698   4.663  0.00  0.00    +0.112 A 
ENDBRANCH  36  37
ENDBRANCH  27  36
ENDBRANCH   1  27
TORSDOF 9
