REMARK  Name = ZINC35888241
REMARK  11 active torsions:
REMARK  status: ('A' for Active; 'I' for Inactive)
REMARK    1  A    between atoms: C_1  and  C_2
REMARK    2  A    between atoms: C_5  and  C_7
REMARK    3  A    between atoms: C_7  and  N_8
REMARK    4  A    between atoms: C_10  and  C_22
REMARK    5  A    between atoms: C_12  and  C_15
REMARK    6  A    between atoms: C_22  and  N_23
REMARK    7  A    between atoms: N_23  and  C_24
REMARK    8  A    between atoms: C_24  and  C_25
REMARK    9  A    between atoms: C_25  and  C_26
REMARK   10  A    between atoms: C_25  and  C_27
REMARK   11  A    between atoms: C_28  and  C_30
REMARK                            x       y       z     vdW  Elec       q    Type
REMARK                         _______ _______ _______ _____ _____    ______ ____
ROOT
ATOM      1  N   UNL     1       2.207  -2.022  -1.287  0.00  0.00    +0.385 N 
ATOM      2  C   UNL     1       2.914  -3.308  -1.056  0.00  0.00    -0.073 C 
ATOM      3  C   UNL     1       3.747  -3.530  -2.337  0.00  0.00    -0.005 C 
ATOM      4  C   UNL     1       3.946  -2.122  -2.934  0.00  0.00    +0.005 C 
ATOM      5  C   UNL     1       3.216  -1.168  -1.964  0.00  0.00    -0.070 C 
ATOM      6  H   UNL     1       1.405  -2.160  -1.883  0.00  0.00    -0.081 HD
ENDROOT
BRANCH   4   7
ATOM      7  C   UNL     1       5.413  -1.784  -3.000  0.00  0.00    -0.043 A 
ATOM      8  C   UNL     1       6.064  -1.769  -4.220  0.00  0.00    +0.004 A 
ATOM      9  C   UNL     1       7.410  -1.459  -4.282  0.00  0.00    +0.003 A 
ATOM     10  C   UNL     1       8.106  -1.163  -3.125  0.00  0.00    +0.038 A 
ATOM     11  C   UNL     1       7.455  -1.178  -1.903  0.00  0.00    +0.124 A 
ATOM     12  C   UNL     1       6.105  -1.483  -1.843  0.00  0.00    +0.042 A 
ATOM     13  F   UNL     1       8.134  -0.890  -0.771  0.00  0.00    -0.205 F 
ENDBRANCH   4   7
BRANCH   1  14
ATOM     14  C   UNL     1       1.801  -1.422  -0.009  0.00  0.00    -0.003 C 
BRANCH  14  19
ATOM     15  C   UNL     1       0.872   3.476  -0.774  0.00  0.00    +0.086 C 
ATOM     16  C   UNL     1       0.657   1.994  -0.603  0.00  0.00    +0.102 A 
ATOM     17  C   UNL     1      -0.527   1.359  -0.663  0.00  0.00    +0.044 A 
ATOM     18  C   UNL     1      -0.267  -0.014  -0.449  0.00  0.00    +0.043 A 
ATOM     19  C   UNL     1       1.061  -0.136  -0.271  0.00  0.00    +0.089 A 
ATOM     20  O   UNL     1       1.616   1.083  -0.371  0.00  0.00    -0.467 OA
ENDBRANCH  14  19
ENDBRANCH   1  14
BRANCH   3  21
ATOM     21  C   UNL     1       5.098  -4.158  -1.990  0.00  0.00    +0.110 C 
BRANCH  21  22
ATOM     22  N   UNL     1       4.890  -5.520  -1.491  0.00  0.00    -0.297 N 
ATOM     23  C   UNL     1       4.707  -5.734  -0.173  0.00  0.00    +0.247 C 
ATOM     24  O   UNL     1       4.795  -4.809   0.611  0.00  0.00    -0.270 OA
BRANCH  23  25
ATOM     25  C   UNL     1       4.397  -7.093   0.319  0.00  0.00    +0.037 A 
ATOM     26  C   UNL     1       5.116  -8.191  -0.157  0.00  0.00    +0.013 A 
ATOM     27  C   UNL     1       4.822  -9.457   0.307  0.00  0.00    +0.001 A 
ATOM     28  C   UNL     1       3.818  -9.639   1.241  0.00  0.00    +0.000 A 
ATOM     29  C   UNL     1       3.102  -8.555   1.717  0.00  0.00    +0.001 A 
ATOM     30  C   UNL     1       3.390  -7.284   1.266  0.00  0.00    +0.013 A 
ENDBRANCH  23  25
BRANCH  22  31
ATOM     31  C   UNL     1       4.882  -6.649  -2.424  0.00  0.00    +0.111 C 
BRANCH  31  32
ATOM     32  C   UNL     1       6.321  -7.062  -2.738  0.00  0.00    +0.000 C 
ATOM     33  C   UNL     1       6.313  -8.346  -3.569  0.00  0.00    +0.009 C 
ATOM     34  C   UNL     1       7.011  -5.948  -3.527  0.00  0.00    +0.009 C 
ENDBRANCH  31  32
ENDBRANCH  22  31
ENDBRANCH  21  22
ENDBRANCH   3  21
TORSDOF 8
