REMARK  Name = ZINC27549781
REMARK  12 active torsions:
REMARK  status: ('A' for Active; 'I' for Inactive)
REMARK    1  A    between atoms: C_1  and  C_2
REMARK    2  A    between atoms: C_2  and  C_3
REMARK    3  A    between atoms: C_9  and  C_10
REMARK    4  A    between atoms: C_12  and  O_29
REMARK    5  A    between atoms: C_13  and  O_17
REMARK    6  A    between atoms: O_17  and  C_18
REMARK    7  A    between atoms: C_18  and  C_19
REMARK    8  A    between atoms: C_19  and  O_20
REMARK    9  A    between atoms: O_20  and  C_21
REMARK   10  A    between atoms: C_24  and  C_28
REMARK   11  A    between atoms: C_26  and  C_27
REMARK   12  A    between atoms: O_29  and  C_30
REMARK                            x       y       z     vdW  Elec       q    Type
REMARK                         _______ _______ _______ _____ _____    ______ ____
ROOT
ATOM      1  C   UNL     1       2.660  -0.869  -7.966  0.00  0.00    -0.019 A 
ATOM      2  C   UNL     1       2.671  -0.331  -9.261  0.00  0.00    +0.057 A 
ATOM      3  C   UNL     1       2.680  -1.172 -10.354  0.00  0.00    +0.164 A 
ATOM      4  C   UNL     1       2.676  -2.555 -10.171  0.00  0.00    +0.180 A 
ATOM      5  C   UNL     1       2.664  -3.092  -8.889  0.00  0.00    +0.087 A 
ATOM      6  C   UNL     1       2.662  -2.260  -7.791  0.00  0.00    +0.032 A 
ATOM      7 CL   UNL     1       2.659  -4.814  -8.671  0.00  0.00    -0.080 Cl
ENDROOT
BRANCH   1  14
ATOM      8  C   UNL     1       2.120   5.861  -6.049  0.00  0.00    +0.100 C 
ATOM      9  N   UNL     1       2.375   4.671  -5.585  0.00  0.00    -0.169 NA
ATOM     10  N   UNL     1       1.908   3.540  -6.220  0.00  0.00    -0.152 N 
ATOM     11  C   UNL     1       2.050   2.215  -5.756  0.00  0.00    +0.152 C 
ATOM     12  N   UNL     1       2.258   1.912  -4.502  0.00  0.00    -0.283 NA
ATOM     13  C   UNL     1       1.938   1.195  -6.837  0.00  0.00    +0.081 C 
ATOM     14  C   UNL     1       2.651   0.018  -6.801  0.00  0.00    +0.024 C 
ATOM     15  C   UNL     1       1.015   1.516  -7.955  0.00  0.00    +0.273 C 
ATOM     16  O   UNL     1       0.505   0.630  -8.622  0.00  0.00    -0.268 OA
ATOM     17  N   UNL     1       0.757   2.813  -8.211  0.00  0.00    -0.152 NA
ATOM     18  C   UNL     1       1.218   3.731  -7.398  0.00  0.00    +0.181 C 
ATOM     19  S   UNL     1       1.147   5.500  -7.504  0.00  0.00    -0.038 S 
ATOM     20  H   UNL     1       2.322   2.615  -3.838  0.00  0.00    +0.188 HD
BRANCH   8  22
ATOM     21  C   UNL     1       3.363   6.994  -4.227  0.00  0.00    +0.011 C 
ATOM     22  C   UNL     1       2.534   7.200  -5.496  0.00  0.00    +0.061 C 
ENDBRANCH   8  22
ENDBRANCH   1  14
BRANCH   3  23
ATOM     23  O   UNL     1       2.691  -0.653 -11.611  0.00  0.00    -0.491 OA
ATOM     24  C   UNL     1       2.693   0.771 -11.725  0.00  0.00    +0.277 C 
ENDBRANCH   3  23
BRANCH   4  25
ATOM     25  O   UNL     1       2.685  -3.381 -11.250  0.00  0.00    -0.483 OA
BRANCH  25  26
ATOM     26  C   UNL     1       3.962  -3.776 -11.754  0.00  0.00    +0.270 C 
BRANCH  26  27
ATOM     27  C   UNL     1       3.770  -4.698 -12.961  0.00  0.00    +0.270 C 
BRANCH  27  28
ATOM     28  O   UNL     1       3.154  -3.969 -14.024  0.00  0.00    -0.488 OA
BRANCH  28  29
ATOM     29  C   UNL     1       2.911  -4.646 -15.177  0.00  0.00    +0.124 A 
ATOM     30  C   UNL     1       3.255  -5.986 -15.281  0.00  0.00    +0.046 A 
ATOM     31  C   UNL     1       3.008  -6.672 -16.454  0.00  0.00    +0.007 A 
ATOM     32  C   UNL     1       2.418  -6.024 -17.524  0.00  0.00    -0.050 A 
ATOM     33  C   UNL     1       2.075  -4.689 -17.423  0.00  0.00    +0.010 A 
ATOM     34  C   UNL     1       2.315  -3.999 -16.250  0.00  0.00    -0.009 A 
ATOM     35  C   UNL     1       1.935  -2.545 -16.138  0.00  0.00    +0.047 C 
ATOM     36  C   UNL     1       2.149  -6.775 -18.803  0.00  0.00    +0.044 C 
ENDBRANCH  28  29
ENDBRANCH  27  28
ENDBRANCH  26  27
ENDBRANCH  25  26
ENDBRANCH   4  25
TORSDOF 8
