REMARK  Name = ZINC43553645
REMARK  12 active torsions:
REMARK  status: ('A' for Active; 'I' for Inactive)
REMARK    1  A    between atoms: C_1  and  C_2
REMARK    2  A    between atoms: N_4  and  C_5
REMARK    3  A    between atoms: C_5  and  C_6
REMARK    4  A    between atoms: C_6  and  N_7
REMARK    5  A    between atoms: C_8  and  C_10
REMARK    6  A    between atoms: C_10  and  C_11
REMARK    7  A    between atoms: C_16  and  C_18
REMARK    8  A    between atoms: C_27  and  C_37
REMARK    9  A    between atoms: C_30  and  O_36
REMARK   10  A    between atoms: C_32  and  C_33
REMARK   11  A    between atoms: C_32  and  C_34
REMARK   12  A    between atoms: C_34  and  O_35
REMARK                            x       y       z     vdW  Elec       q    Type
REMARK                         _______ _______ _______ _____ _____    ______ ____
ROOT
ATOM      1  C   UNL     1      -4.974  -6.865   0.124  0.00  0.00    +0.053 C 
ATOM      2  C   UNL     1      -5.607  -6.616   1.483  0.00  0.00    +0.056 A 
ATOM      3  C   UNL     1      -6.692  -7.366   1.823  0.00  0.00    +0.014 A 
ATOM      4  S   UNL     1      -7.091  -6.747   3.439  0.00  0.00    -0.072 S 
ATOM      5  C   UNL     1      -5.777  -5.537   3.526  0.00  0.00    +0.109 A 
ATOM      6  N   UNL     1      -5.182  -5.719   2.357  0.00  0.00    -0.243 NA
ATOM      7  C   UNL     1      -7.357  -8.431   1.030  0.00  0.00    +0.049 C 
ATOM      8  C   UNL     1      -6.700  -8.642  -0.346  0.00  0.00    +0.011 C 
ATOM      9  C   UNL     1      -5.212  -8.320  -0.291  0.00  0.00    -0.020 C 
ATOM     10  C   UNL     1      -4.521  -9.298   0.652  0.00  0.00    +0.010 C 
ATOM     11  C   UNL     1      -4.674 -10.718   0.108  0.00  0.00    +0.032 C 
ATOM     12  C   UNL     1      -6.130 -11.111  -0.058  0.00  0.00    +0.123 C 
ATOM     13  C   UNL     1      -6.992 -10.081  -0.769  0.00  0.00    +0.021 C 
ATOM     14  C   UNL     1      -6.892 -10.266  -2.289  0.00  0.00    +0.016 C 
ATOM     15  C   UNL     1      -4.562  -8.433  -1.678  0.00  0.00    +0.012 C 
ENDROOT
BRANCH   5  16
ATOM     16  C   UNL     1      -5.444  -4.588   4.611  0.00  0.00    +0.007 A 
ATOM     17  C   UNL     1      -4.365  -3.714   4.470  0.00  0.00    +0.010 A 
ATOM     18  C   UNL     1      -4.059  -2.832   5.486  0.00  0.00    +0.001 A 
ATOM     19  C   UNL     1      -4.820  -2.812   6.641  0.00  0.00    +0.000 A 
ATOM     20  C   UNL     1      -5.890  -3.676   6.787  0.00  0.00    +0.001 A 
ATOM     21  C   UNL     1      -6.210  -4.559   5.776  0.00  0.00    +0.010 A 
ENDBRANCH   5  16
BRANCH  12  22
ATOM     22  O   UNL     1      -6.693 -11.432   1.219  0.00  0.00    -0.391 OA
ATOM     23  H   UNL     1      -6.253 -12.165   1.670  0.00  0.00    +0.210 HD
ENDBRANCH  12  22
BRANCH   1  24
ATOM     24  C   UNL     1      -3.481  -6.555   0.164  0.00  0.00    +0.106 C 
BRANCH  24  26
ATOM     25  N   UNL     1      -2.033  -4.572   0.466  0.00  0.00    -0.314 N 
ATOM     26  C   UNL     1      -3.280  -5.080   0.394  0.00  0.00    +0.214 C 
ATOM     27  O   UNL     1      -4.240  -4.348   0.513  0.00  0.00    -0.276 OA
ATOM     28  H   UNL     1      -1.265  -5.158   0.370  0.00  0.00    +0.149 HD
BRANCH  25  29
ATOM     29  C   UNL     1      -1.837  -3.138   0.689  0.00  0.00    +0.123 C 
BRANCH  29  30
ATOM     30  C   UNL     1      -0.340  -2.827   0.729  0.00  0.00    +0.123 C 
BRANCH  30  34
ATOM     31  C   UNL     1       1.304   0.590   1.253  0.00  0.00    +0.109 C 
ATOM     32  C   UNL     1       1.103  -0.886   1.024  0.00  0.00    +0.210 C 
ATOM     33  O   UNL     1       2.062  -1.617   0.904  0.00  0.00    -0.276 OA
ATOM     34  N   UNL     1      -0.144  -1.393   0.952  0.00  0.00    -0.314 N 
ATOM     35  H   UNL     1      -0.912  -0.808   1.048  0.00  0.00    +0.149 HD
ENDBRANCH  30  34
ENDBRANCH  29  30
ENDBRANCH  25  29
ENDBRANCH  24  26
ENDBRANCH   1  24
BRANCH  13  36
ATOM     36  C   UNL     1      -8.470 -10.399  -0.417  0.00  0.00    +0.165 C 
BRANCH  36  37
ATOM     37  O   UNL     1      -8.772 -11.742  -0.802  0.00  0.00    -0.394 OA
ATOM     38  H   UNL     1      -9.681 -12.010  -0.612  0.00  0.00    +0.209 HD
ENDBRANCH  36  37
ENDBRANCH  13  36
TORSDOF 9
