REMARK  Name = ZINC00642953
REMARK  7 active torsions:
REMARK  status: ('A' for Active; 'I' for Inactive)
REMARK    1  A    between atoms: C_3  and  O_12
REMARK    2  A    between atoms: O_12  and  C_13
REMARK    3  A    between atoms: C_15  and  O_28
REMARK    4  A    between atoms: C_17  and  O_27
REMARK    5  A    between atoms: C_19  and  O_26
REMARK    6  A    between atoms: C_21  and  C_24
REMARK    7  A    between atoms: C_24  and  O_25
REMARK                            x       y       z     vdW  Elec       q    Type
REMARK                         _______ _______ _______ _____ _____    ______ ____
ROOT
ATOM      1  C   UNL     1      -3.426  -0.597   1.346  0.00  0.00    +0.339 C 
ATOM      2  C   UNL     1      -3.489  -2.124   1.267  0.00  0.00    +0.214 C 
ATOM      3  C   UNL     1      -2.852  -2.586  -0.048  0.00  0.00    +0.180 C 
ATOM      4  C   UNL     1      -1.416  -2.059  -0.120  0.00  0.00    +0.177 C 
ATOM      5  C   UNL     1      -1.433  -0.534   0.013  0.00  0.00    +0.179 C 
ATOM      6  O   UNL     1      -2.066  -0.171   1.242  0.00  0.00    -0.331 OA
ENDROOT
BRANCH   4   7
ATOM      7  O   UNL     1      -0.646  -2.622   0.944  0.00  0.00    -0.386 OA
ATOM      8  H   UNL     1      -0.592  -3.587   0.923  0.00  0.00    +0.210 HD
ENDBRANCH   4   7
BRANCH   3   9
ATOM      9  O   UNL     1      -3.605  -2.075  -1.149  0.00  0.00    -0.386 OA
ATOM     10  H   UNL     1      -4.528  -2.363  -1.163  0.00  0.00    +0.210 HD
ENDBRANCH   3   9
BRANCH   2  11
ATOM     11  O   UNL     1      -4.852  -2.550   1.314  0.00  0.00    -0.383 OA
ATOM     12  H   UNL     1      -5.318  -2.287   2.119  0.00  0.00    +0.210 HD
ENDBRANCH   2  11
BRANCH   1  13
ATOM     13  O   UNL     1      -4.185  -0.032   0.275  0.00  0.00    -0.461 OA
BRANCH  13  16
ATOM     14  C   UNL     1      -3.840   3.439   1.279  0.00  0.00    +0.012 A 
ATOM     15  C   UNL     1      -3.728   2.083   1.270  0.00  0.00    +0.046 A 
ATOM     16  C   UNL     1      -4.319   1.320   0.259  0.00  0.00    +0.125 A 
ATOM     17  C   UNL     1      -5.034   1.915  -0.741  0.00  0.00    +0.054 A 
ATOM     18  C   UNL     1      -5.174   3.312  -0.758  0.00  0.00    -0.014 A 
ATOM     19  C   UNL     1      -4.568   4.085   0.265  0.00  0.00    -0.017 A 
ATOM     20  C   UNL     1      -4.709   5.483   0.247  0.00  0.00    +0.023 A 
ATOM     21  C   UNL     1      -5.423   6.075  -0.750  0.00  0.00    +0.018 A 
ATOM     22  C   UNL     1      -6.018   5.315  -1.756  0.00  0.00    +0.016 A 
ATOM     23  C   UNL     1      -5.903   3.959  -1.771  0.00  0.00    +0.010 A 
ATOM     24 BR   UNL     1      -5.610   7.957  -0.769  0.00  0.00    -0.050 Br
ENDBRANCH  13  16
ENDBRANCH   1  13
BRANCH   5  25
ATOM     25  C   UNL     1       0.002  -0.004   0.002  0.00  0.00    +0.190 C 
BRANCH  25  26
ATOM     26  O   UNL     1      -0.017   1.425   0.010  0.00  0.00    -0.392 OA
ATOM     27  H   UNL     1       0.861   1.830   0.004  0.00  0.00    +0.210 HD
ENDBRANCH  25  26
ENDBRANCH   5  25
TORSDOF 7
