REMARK  Name = ZINC13405632
REMARK  9 active torsions:
REMARK  status: ('A' for Active; 'I' for Inactive)
REMARK    1  A    between atoms: C_1  and  C_2
REMARK    2  A    between atoms: C_2  and  C_3
REMARK    3  A    between atoms: C_2  and  C_4
REMARK    4  A    between atoms: C_4  and  C_6
REMARK    5  A    between atoms: C_4  and  N_8
REMARK    6  A    between atoms: C_18  and  S_19
REMARK    7  A    between atoms: S_19  and  C_20
REMARK    8  A    between atoms: C_20  and  C_21
REMARK    9  A    between atoms: C_23  and  C_26
REMARK                            x       y       z     vdW  Elec       q    Type
REMARK                         _______ _______ _______ _____ _____    ______ ____
ROOT
ATOM      1  N   UNL     1      -1.113  -2.145   0.002  0.00  0.00    -0.273 N 
ATOM      2  C   UNL     1      -1.235  -0.797   0.010  0.00  0.00    +0.263 A 
ATOM      3  O   UNL     1      -2.328  -0.262   0.023  0.00  0.00    -0.267 OA
ATOM      4  C   UNL     1       0.002  -0.004   0.002  0.00  0.00    +0.065 A 
ATOM      5  C   UNL     1      -0.017   1.390   0.010  0.00  0.00    +0.015 A 
ATOM      6  C   UNL     1       1.164   2.080   0.002  0.00  0.00    +0.001 A 
ATOM      7  C   UNL     1       2.379   1.407  -0.013  0.00  0.00    +0.002 A 
ATOM      8  C   UNL     1       2.427   0.042  -0.021  0.00  0.00    +0.028 A 
ATOM      9  C   UNL     1       1.237  -0.692  -0.013  0.00  0.00    +0.079 A 
ATOM     10  N   UNL     1       1.238  -2.041  -0.020  0.00  0.00    -0.223 NA
ATOM     11  C   UNL     1       0.122  -2.728  -0.013  0.00  0.00    +0.173 A 
ENDROOT
BRANCH   1  12
ATOM     12  C   UNL     1      -2.313  -2.984   0.009  0.00  0.00    +0.208 C 
BRANCH  12  14
ATOM     13  C   UNL     1      -4.387  -3.568   1.274  0.00  0.00    +0.010 C 
ATOM     14  C   UNL     1      -3.133  -2.692   1.267  0.00  0.00    +0.017 C 
ATOM     15  C   UNL     1      -2.290  -2.997   2.507  0.00  0.00    +0.010 C 
ENDBRANCH  12  14
BRANCH  12  16
ATOM     16  C   UNL     1      -3.143  -2.684  -1.213  0.00  0.00    +0.379 C 
ATOM     17  O   UNL     1      -2.770  -1.853  -2.007  0.00  0.00    -0.244 OA
ATOM     18  O   UNL     1      -4.297  -3.338  -1.417  0.00  0.00    -0.244 OA
ENDBRANCH  12  16
ENDBRANCH   1  12
BRANCH  11  19
ATOM     19  S   UNL     1       0.220  -4.487  -0.023  0.00  0.00    -0.078 S 
BRANCH  19  20
ATOM     20  C   UNL     1       2.018  -4.702  -0.041  0.00  0.00    +0.176 C 
BRANCH  20  21
ATOM     21  C   UNL     1       2.348  -6.172  -0.052  0.00  0.00    +0.238 A 
ATOM     22  N   UNL     1       2.508  -6.926  -1.111  0.00  0.00    -0.191 NA
ATOM     23  C   UNL     1       2.791  -8.161  -0.638  0.00  0.00    +0.204 A 
ATOM     24  N   UNL     1       2.785  -8.085   0.667  0.00  0.00    -0.056 NA
ATOM     25  O   UNL     1       2.538  -6.951   1.018  0.00  0.00    -0.337 OA
BRANCH  23  26
ATOM     26  C   UNL     1       3.057  -9.375  -1.450  0.00  0.00    +0.041 A 
ATOM     27  C   UNL     1       3.343 -10.595  -0.830  0.00  0.00    +0.014 A 
ATOM     28  C   UNL     1       3.580 -11.698  -1.630  0.00  0.00    +0.020 A 
ATOM     29  C   UNL     1       3.536 -11.559  -3.006  0.00  0.00    +0.111 A 
ATOM     30  N   UNL     1       3.268 -10.393  -3.562  0.00  0.00    -0.263 NA
ATOM     31  C   UNL     1       3.032  -9.316  -2.841  0.00  0.00    +0.122 A 
ENDBRANCH  23  26
ENDBRANCH  20  21
ENDBRANCH  19  20
ENDBRANCH  11  19
TORSDOF 7
