REMARK  Name = ZINC09757883
REMARK  10 active torsions:
REMARK  status: ('A' for Active; 'I' for Inactive)
REMARK    1  A    between atoms: C_1  and  C_2
REMARK    2  A    between atoms: C_4  and  C_30
REMARK    3  A    between atoms: C_5  and  N_9
REMARK    4  A    between atoms: C_6  and  C_8
REMARK    5  A    between atoms: C_10  and  C_12
REMARK    6  A    between atoms: C_12  and  N_13
REMARK    7  A    between atoms: N_13  and  C_14
REMARK    8  A    between atoms: N_17  and  C_18
REMARK    9  A    between atoms: C_18  and  C_20
REMARK   10  A    between atoms: C_18  and  C_27
REMARK                            x       y       z     vdW  Elec       q    Type
REMARK                         _______ _______ _______ _____ _____    ______ ____
ROOT
ATOM      1  N   UNL     1       2.380   2.938   0.177  0.00  0.00    -0.280 N 
ATOM      2  C   UNL     1       3.259   4.041   0.573  0.00  0.00    +0.134 C 
ATOM      3  C   UNL     1       1.078   3.172  -0.080  0.00  0.00    +0.303 C 
ATOM      4  O   UNL     1       0.348   2.256  -0.408  0.00  0.00    -0.253 OA
ATOM      5  N   UNL     1       0.586   4.423   0.022  0.00  0.00    -0.292 N 
ATOM      6  H   UNL     1       1.167   5.153   0.284  0.00  0.00    +0.151 HD
ENDROOT
BRANCH   1   7
ATOM      7  C   UNL     1       2.917   1.579   0.061  0.00  0.00    +0.205 C 
BRANCH   7   9
ATOM      8  N   UNL     1       3.953   0.167  -1.686  0.00  0.00    -0.284 N 
ATOM      9  C   UNL     1       3.413   1.354  -1.344  0.00  0.00    +0.235 C 
ATOM     10  O   UNL     1       3.327   2.241  -2.167  0.00  0.00    -0.274 OA
ATOM     11  H   UNL     1       4.086  -0.517  -1.012  0.00  0.00    +0.155 HD
BRANCH   8  16
ATOM     12  C   UNL     1       5.444  -0.826  -7.069  0.00  0.00    +0.044 C 
ATOM     13  C   UNL     1       5.048  -0.562  -5.639  0.00  0.00    -0.050 A 
ATOM     14  C   UNL     1       3.776  -0.104  -5.349  0.00  0.00    +0.008 A 
ATOM     15  C   UNL     1       3.410   0.139  -4.039  0.00  0.00    -0.029 A 
ATOM     16  C   UNL     1       4.321  -0.078  -3.014  0.00  0.00    +0.039 A 
ATOM     17  C   UNL     1       5.599  -0.533  -3.309  0.00  0.00    -0.029 A 
ATOM     18  C   UNL     1       5.957  -0.780  -4.620  0.00  0.00    +0.008 A 
ATOM     19  C   UNL     1       6.592  -0.764  -2.199  0.00  0.00    +0.045 C 
ATOM     20  C   UNL     1       2.023   0.638  -3.724  0.00  0.00    +0.045 C 
ENDBRANCH   8  16
ENDBRANCH   7   9
ENDBRANCH   1   7
BRANCH   5  21
ATOM     21  C   UNL     1      -0.828   4.678  -0.263  0.00  0.00    +0.108 C 
BRANCH  21  22
ATOM     22  C   UNL     1      -1.273   5.916   0.472  0.00  0.00    -0.027 A 
ATOM     23  C   UNL     1      -0.431   7.010   0.557  0.00  0.00    +0.007 A 
ATOM     24  C   UNL     1      -0.841   8.147   1.227  0.00  0.00    +0.020 A 
ATOM     25  C   UNL     1      -2.089   8.187   1.822  0.00  0.00    +0.041 A 
ATOM     26  C   UNL     1      -2.929   7.091   1.742  0.00  0.00    +0.020 A 
ATOM     27  C   UNL     1      -2.521   5.956   1.067  0.00  0.00    +0.007 A 
ATOM     28 CL   UNL     1      -2.601   9.613   2.670  0.00  0.00    -0.084 Cl
ENDBRANCH  21  22
BRANCH  21  29
ATOM     29  C   UNL     1      -1.016   4.884  -1.768  0.00  0.00    +0.014 C 
ATOM     30  C   UNL     1      -2.097   4.056  -2.465  0.00  0.00    +0.006 C 
ATOM     31  C   UNL     1      -0.619   3.733  -2.693  0.00  0.00    +0.006 C 
ENDBRANCH  21  29
ENDBRANCH   5  21
TORSDOF 6
