REMARK  Name = ZINC22473142
REMARK  10 active torsions:
REMARK  status: ('A' for Active; 'I' for Inactive)
REMARK    1  A    between atoms: C_1  and  O_2
REMARK    2  A    between atoms: O_2  and  C_3
REMARK    3  A    between atoms: C_6  and  C_9
REMARK    4  A    between atoms: N_11  and  C_12
REMARK    5  A    between atoms: N_11  and  C_27
REMARK    6  A    between atoms: C_12  and  C_13
REMARK    7  A    between atoms: C_13  and  C_14
REMARK    8  A    between atoms: C_14  and  N_15
REMARK    9  A    between atoms: C_18  and  O_19
REMARK   10  A    between atoms: C_27  and  C_28
REMARK                            x       y       z     vdW  Elec       q    Type
REMARK                         _______ _______ _______ _____ _____    ______ ____
ROOT
ATOM      1  C   UNL     1      -6.833   2.829   1.123  0.00  0.00    +0.247 C 
ATOM      2  O   UNL     1      -7.578   3.781   0.992  0.00  0.00    -0.270 OA
ATOM      3  N   UNL     1      -6.382   2.172   0.036  0.00  0.00    -0.293 N 
ENDROOT
BRANCH   1   7
ATOM      4  C   UNL     1      -5.652   1.575   5.005  0.00  0.00    +0.120 A 
ATOM      5  C   UNL     1      -6.830   2.293   4.837  0.00  0.00    +0.046 A 
ATOM      6  C   UNL     1      -7.217   2.701   3.580  0.00  0.00    +0.016 A 
ATOM      7  C   UNL     1      -6.423   2.393   2.472  0.00  0.00    +0.037 A 
ATOM      8  C   UNL     1      -5.242   1.667   2.645  0.00  0.00    +0.016 A 
ATOM      9  C   UNL     1      -4.859   1.267   3.906  0.00  0.00    +0.046 A 
BRANCH   4  11
ATOM     10  C   UNL     1      -4.053   0.440   6.346  0.00  0.00    +0.277 C 
ATOM     11  O   UNL     1      -5.275   1.174   6.245  0.00  0.00    -0.495 OA
ENDBRANCH   4  11
ENDBRANCH   1   7
BRANCH   3  12
ATOM     12  C   UNL     1      -5.548   0.978   0.196  0.00  0.00    +0.110 C 
BRANCH  12  13
ATOM     13  C   UNL     1      -4.097   1.320  -0.149  0.00  0.00    +0.040 C 
BRANCH  13  14
ATOM     14  C   UNL     1      -3.226   0.073   0.018  0.00  0.00    +0.114 C 
BRANCH  14  15
ATOM     15  N   UNL     1      -1.837   0.400  -0.312  0.00  0.00    -0.384 N 
ATOM     16  C   UNL     1      -0.863  -0.571  -0.234  0.00  0.00    +0.053 A 
ATOM     17  C   UNL     1      -1.171  -1.851   0.150  0.00  0.00    +0.113 A 
ATOM     18  C   UNL     1      -0.160  -2.818   0.214  0.00  0.00    +0.286 A 
ATOM     19  O   UNL     1       1.116  -2.532  -0.091  0.00  0.00    -0.425 OA
ATOM     20  C   UNL     1       1.494  -1.294  -0.477  0.00  0.00    +0.141 A 
ATOM     21  C   UNL     1       0.539  -0.269  -0.567  0.00  0.00    +0.041 A 
ATOM     22  C   UNL     1       0.924   1.012  -0.966  0.00  0.00    +0.013 A 
ATOM     23  C   UNL     1       2.245   1.262  -1.270  0.00  0.00    +0.001 A 
ATOM     24  C   UNL     1       3.187   0.248  -1.182  0.00  0.00    +0.004 A 
ATOM     25  C   UNL     1       2.819  -1.022  -0.788  0.00  0.00    +0.047 A 
ATOM     26  H   UNL     1      -1.571   1.421  -0.622  0.00  0.00    +0.160 HD
BRANCH  18  27
ATOM     27  O   UNL     1      -0.447  -3.953   0.557  0.00  0.00    -0.480 OA
ATOM     28  H   UNL     1       0.335  -4.724   0.612  0.00  0.00    +0.295 HD
ENDBRANCH  18  27
ENDBRANCH  14  15
ENDBRANCH  13  14
ENDBRANCH  12  13
ENDBRANCH   3  12
BRANCH   3  29
ATOM     29  C   UNL     1      -6.726   2.651  -1.305  0.00  0.00    +0.143 C 
BRANCH  29  30
ATOM     30  C   UNL     1      -8.053   2.071  -1.720  0.00  0.00    -0.030 A 
ATOM     31  C   UNL     1      -8.096   0.909  -2.469  0.00  0.00    +0.005 A 
ATOM     32  C   UNL     1      -9.313   0.374  -2.846  0.00  0.00    +0.000 A 
ATOM     33  C   UNL     1     -10.488   1.006  -2.484  0.00  0.00    +0.000 A 
ATOM     34  C   UNL     1     -10.445   2.171  -1.740  0.00  0.00    +0.000 A 
ATOM     35  C   UNL     1      -9.228   2.703  -1.358  0.00  0.00    +0.005 A 
ENDBRANCH  29  30
ENDBRANCH   3  29
TORSDOF 9
