REMARK  Name = ZINC13037334
REMARK  8 active torsions:
REMARK  status: ('A' for Active; 'I' for Inactive)
REMARK    1  A    between atoms: C_1  and  C_2
REMARK    2  A    between atoms: C_2  and  C_3
REMARK    3  A    between atoms: C_2  and  N_4
REMARK    4  A    between atoms: C_5  and  C_7
REMARK    5  A    between atoms: C_7  and  N_52
REMARK    6  A    between atoms: N_10  and  C_13
REMARK    7  A    between atoms: N_16  and  C_21
REMARK    8  A    between atoms: C_26  and  C_27
REMARK                            x       y       z     vdW  Elec       q    Type
REMARK                         _______ _______ _______ _____ _____    ______ ____
ROOT
ATOM      1  C   UNL     1       4.671   5.402   0.130  0.00  0.00    +0.074 A 
ATOM      2  C   UNL     1       3.775   5.412  -0.961  0.00  0.00    +0.158 A 
ATOM      3  N   UNL     1       2.676   4.711  -0.918  0.00  0.00    -0.170 NA
ATOM      4  N   UNL     1       2.359   3.935   0.202  0.00  0.00    -0.195 N 
ATOM      5  C   UNL     1       3.183   3.900   1.267  0.00  0.00    +0.292 A 
ATOM      6  O   UNL     1       2.897   3.224   2.243  0.00  0.00    -0.264 OA
ATOM      7  C   UNL     1       4.374   4.641   1.246  0.00  0.00    +0.129 A 
ATOM      8 CL   UNL     1       5.455   4.608   2.603  0.00  0.00    -0.076 Cl
ENDROOT
BRANCH   1  11
ATOM      9  C   UNL     1       7.995   6.519  -1.011  0.00  0.00    -0.059 C 
ATOM     10  C   UNL     1       6.686   5.728  -1.041  0.00  0.00    +0.086 C 
ATOM     11  N   UNL     1       5.837   6.148   0.083  0.00  0.00    -0.331 N 
ATOM     12  C   UNL     1       5.540   7.585   0.007  0.00  0.00    +0.086 C 
ATOM     13  C   UNL     1       6.850   8.376   0.037  0.00  0.00    -0.059 C 
ATOM     14  N   UNL     1       7.684   7.961  -1.110  0.00  0.00    +0.387 N 
ATOM     15  H   UNL     1       7.165   8.131  -1.979  0.00  0.00    -0.081 HD
BRANCH  14  16
ATOM     16  C   UNL     1       8.936   8.747  -1.137  0.00  0.00    +0.019 C 
BRANCH  16  18
ATOM     17  N   UNL     1      10.884   8.987  -2.641  0.00  0.00    -0.315 N 
ATOM     18  C   UNL     1       9.658   8.469  -2.429  0.00  0.00    +0.197 C 
ATOM     19  O   UNL     1       9.137   7.778  -3.279  0.00  0.00    -0.278 OA
ATOM     20  H   UNL     1      11.301   9.539  -1.962  0.00  0.00    +0.149 HD
BRANCH  17  22
ATOM     21  C   UNL     1      11.138   9.723  -4.960  0.00  0.00    +0.027 C 
ATOM     22  C   UNL     1      11.587   8.716  -3.898  0.00  0.00    +0.067 C 
ATOM     23  C   UNL     1      13.095   8.846  -3.677  0.00  0.00    +0.027 C 
ENDBRANCH  17  22
ENDBRANCH  16  18
ENDBRANCH  14  16
ENDBRANCH   1  11
BRANCH   4  24
ATOM     24  C   UNL     1       1.176   3.196   0.218  0.00  0.00    +0.083 A 
ATOM     25  C   UNL     1       1.211   1.830   0.460  0.00  0.00    +0.029 A 
ATOM     26  C   UNL     1       0.039   1.100   0.476  0.00  0.00    +0.002 A 
ATOM     27  C   UNL     1      -1.178   1.722   0.246  0.00  0.00    +0.001 A 
ATOM     28  C   UNL     1      -1.232   3.079   0.010  0.00  0.00    +0.017 A 
ATOM     29  C   UNL     1      -0.055   3.831  -0.010  0.00  0.00    +0.089 A 
BRANCH  29  30
ATOM     30  C   UNL     1      -0.105   5.282  -0.267  0.00  0.00    +0.389 C 
ATOM     31  O   UNL     1       0.921   5.932  -0.283  0.00  0.00    -0.241 OA
ATOM     32  O   UNL     1      -1.289   5.887  -0.485  0.00  0.00    -0.241 OA
ENDBRANCH  29  30
ENDBRANCH   4  24
TORSDOF 6
