REMARK  Name = ZINC12671282
REMARK  8 active torsions:
REMARK  status: ('A' for Active; 'I' for Inactive)
REMARK    1  A    between atoms: C_1  and  C_2
REMARK    2  A    between atoms: C_3  and  C_24
REMARK    3  A    between atoms: C_16  and  C_23
REMARK    4  A    between atoms: C_19  and  O_22
REMARK    5  A    between atoms: C_24  and  C_26
REMARK    6  A    between atoms: C_24  and  C_27
REMARK    7  A    between atoms: C_29  and  O_36
REMARK    8  A    between atoms: C_32  and  C_35
REMARK                            x       y       z     vdW  Elec       q    Type
REMARK                         _______ _______ _______ _____ _____    ______ ____
ROOT
ATOM      1  C   UNL     1       4.273  -0.132   1.599  0.00  0.00    +0.044 C 
ATOM      2  C   UNL     1       3.482   1.012   1.020  0.00  0.00    -0.044 A 
ATOM      3  C   UNL     1       4.086   2.220   0.693  0.00  0.00    -0.043 A 
ATOM      4  C   UNL     1       3.367   3.270   0.162  0.00  0.00    +0.004 A 
ATOM      5  C   UNL     1       1.999   3.173  -0.064  0.00  0.00    +0.004 A 
ATOM      6  C   UNL     1       1.393   1.976   0.268  0.00  0.00    -0.040 A 
ATOM      7  C   UNL     1       2.121   0.908   0.790  0.00  0.00    -0.040 A 
ATOM      8  C   UNL     1       1.203  -0.266   1.022  0.00  0.00    +0.040 C 
ATOM      9  C   UNL     1       0.006   0.049   0.117  0.00  0.00    +0.011 C 
ATOM     10  C   UNL     1      -0.070   1.584   0.156  0.00  0.00    +0.027 C 
ATOM     11  C   UNL     1      -0.721   2.050   1.463  0.00  0.00    +0.035 C 
ATOM     12  C   UNL     1      -1.898   1.227   1.847  0.00  0.00    -0.026 C 
ATOM     13  C   UNL     1      -2.136   0.028   1.426  0.00  0.00    -0.065 C 
ATOM     14  C   UNL     1      -1.261  -0.673   0.426  0.00  0.00    -0.007 C 
ATOM     15  C   UNL     1      -2.073  -0.958  -0.838  0.00  0.00    +0.014 C 
ATOM     16  C   UNL     1      -3.558  -1.078  -0.508  0.00  0.00    +0.032 C 
ATOM     17  C   UNL     1      -3.769  -1.720   0.861  0.00  0.00    +0.119 C 
ATOM     18  C   UNL     1      -3.337  -0.738   1.957  0.00  0.00    +0.062 C 
ATOM     19  C   UNL     1      -0.877  -2.026   1.030  0.00  0.00    +0.016 C 
ENDROOT
BRANCH  17  20
ATOM     20  O   UNL     1      -5.152  -2.042   1.028  0.00  0.00    -0.391 OA
ATOM     21  H   UNL     1      -5.359  -2.454   1.877  0.00  0.00    +0.210 HD
ENDBRANCH  17  20
BRANCH   3  22
ATOM     22  C   UNL     1       5.566   2.387   0.926  0.00  0.00    +0.005 C 
ATOM     23  C   UNL     1       5.802   3.543   1.900  0.00  0.00    +0.011 C 
BRANCH  22  24
ATOM     24  C   UNL     1       6.260   2.691  -0.404  0.00  0.00    -0.036 C 
ATOM     25  C   UNL     1       7.762   2.861  -0.167  0.00  0.00    +0.101 C 
ATOM     26  C   UNL     1       8.455   3.145  -1.503  0.00  0.00    +0.031 C 
ATOM     27  C   UNL     1       8.162   1.999  -2.475  0.00  0.00    -0.029 C 
ATOM     28  C   UNL     1       6.648   1.854  -2.644  0.00  0.00    -0.079 C 
ATOM     29  C   UNL     1       8.802   2.303  -3.831  0.00  0.00    +0.005 C 
ATOM     30  N   UNL     1       6.026   1.572  -1.336  0.00  0.00    +0.383 N 
ATOM     31  H   UNL     1       5.016   1.443  -1.463  0.00  0.00    -0.085 HD
ATOM     32  H   UNL     1       6.434   0.715  -0.945  0.00  0.00    -0.085 HD
BRANCH  25  33
ATOM     33  O   UNL     1       8.294   1.663   0.401  0.00  0.00    -0.393 OA
ATOM     34  H   UNL     1       9.244   1.699   0.577  0.00  0.00    +0.210 HD
ENDBRANCH  25  33
ENDBRANCH  22  24
ENDBRANCH   3  22
TORSDOF 4
