REMARK  Name = ZINC05598906
REMARK  3 active torsions:
REMARK  status: ('A' for Active; 'I' for Inactive)
REMARK    1  A    between atoms: C_13  and  N_17
REMARK    2  A    between atoms: N_17  and  S_18
REMARK    3  A    between atoms: S_18  and  C_21
REMARK                            x       y       z     vdW  Elec       q    Type
REMARK                         _______ _______ _______ _____ _____    ______ ____
ROOT
ATOM      1  C   UNL     1       1.362   2.742  -0.552  0.00  0.00    +0.001 A 
ATOM      2  C   UNL     1       1.288   1.367  -0.421  0.00  0.00    +0.001 A 
ATOM      3  C   UNL     1       0.060   0.741  -0.303  0.00  0.00    +0.012 A 
ATOM      4  C   UNL     1      -1.109   1.496  -0.321  0.00  0.00    +0.033 A 
ATOM      5  C   UNL     1      -1.033   2.894  -0.449  0.00  0.00    +0.033 A 
ATOM      6  C   UNL     1       0.211   3.509  -0.567  0.00  0.00    +0.012 A 
ATOM      7  C   UNL     1      -2.269   3.704  -0.462  0.00  0.00    +0.195 C 
ATOM      8  O   UNL     1      -2.205   4.912  -0.577  0.00  0.00    -0.287 OA
ATOM      9  C   UNL     1      -3.584   3.041  -0.336  0.00  0.00    +0.035 A 
ATOM     10  C   UNL     1      -4.753   3.794  -0.348  0.00  0.00    +0.012 A 
ATOM     11  C   UNL     1      -5.985   3.168  -0.229  0.00  0.00    +0.003 A 
ATOM     12  C   UNL     1      -6.066   1.799  -0.099  0.00  0.00    +0.025 A 
ATOM     13  C   UNL     1      -4.908   1.022  -0.084  0.00  0.00    +0.059 A 
ATOM     14  C   UNL     1      -3.657   1.641  -0.203  0.00  0.00    +0.055 A 
ATOM     15  C   UNL     1      -2.425   0.835  -0.189  0.00  0.00    +0.196 C 
ATOM     16  O   UNL     1      -2.490  -0.374  -0.074  0.00  0.00    -0.287 OA
ENDROOT
BRANCH  13  17
ATOM     17  N   UNL     1      -4.994  -0.355   0.048  0.00  0.00    -0.220 N 
ATOM     18  H   UNL     1      -4.322  -0.837   0.555  0.00  0.00    +0.173 HD
BRANCH  17  19
ATOM     19  S   UNL     1      -6.243  -1.178  -0.662  0.00  0.00    +0.048 S 
ATOM     20  O   UNL     1      -5.994  -2.545  -0.362  0.00  0.00    -0.155 OA
ATOM     21  O   UNL     1      -7.417  -0.535  -0.187  0.00  0.00    -0.155 OA
BRANCH  19  22
ATOM     22  C   UNL     1      -6.045  -0.883  -2.441  0.00  0.00    +0.174 C 
ATOM     23  C   UNL     1      -6.034   0.629  -2.719  0.00  0.00    +0.052 C 
ATOM     24  C   UNL     1      -6.188   0.888  -4.237  0.00  0.00    +0.168 C 
ATOM     25  S   UNL     1      -7.138  -0.581  -4.802  0.00  0.00    -0.029 S 
ATOM     26  O   UNL     1      -6.343  -1.321  -5.719  0.00  0.00    -0.174 OA
ATOM     27  O   UNL     1      -8.444  -0.170  -5.184  0.00  0.00    -0.174 OA
ATOM     28  C   UNL     1      -7.241  -1.508  -3.214  0.00  0.00    +0.194 C 
ENDBRANCH  19  22
ENDBRANCH  17  19
ENDBRANCH  13  17
TORSDOF 3
