REMARK  Name = ZINC12783648
REMARK  7 active torsions:
REMARK  status: ('A' for Active; 'I' for Inactive)
REMARK    1  A    between atoms: C_4  and  O_7
REMARK    2  A    between atoms: O_7  and  C_8
REMARK    3  A    between atoms: C_8  and  C_9
REMARK    4  A    between atoms: C_9  and  N_10
REMARK    5  A    between atoms: N_13  and  C_14
REMARK    6  A    between atoms: C_14  and  C_15
REMARK    7  A    between atoms: N_17  and  C_18
REMARK                            x       y       z     vdW  Elec       q    Type
REMARK                         _______ _______ _______ _____ _____    ______ ____
ROOT
ATOM      1  N   UNL     1       4.707   0.645  -0.002  0.00  0.00    -0.296 N 
ATOM      2  C   UNL     1       3.671   1.508   0.008  0.00  0.00    +0.300 C 
ATOM      3  O   UNL     1       3.877   2.706   0.018  0.00  0.00    -0.253 OA
ATOM      4  N   UNL     1       2.406   1.042   0.007  0.00  0.00    -0.291 N 
ATOM      5  H   UNL     1       4.542  -0.310  -0.010  0.00  0.00    +0.150 HD
ATOM      6  H   UNL     1       2.242   0.086  -0.001  0.00  0.00    +0.151 HD
ENDROOT
BRANCH   1   7
ATOM      7  C   UNL     1       6.082   1.152  -0.002  0.00  0.00    +0.146 C 
BRANCH   7   8
ATOM      8  C   UNL     1       7.059  -0.025  -0.014  0.00  0.00    +0.247 C 
BRANCH   8   9
ATOM      9  O   UNL     1       6.922  -0.745  -1.241  0.00  0.00    -0.490 OA
BRANCH   9  13
ATOM     10  C   UNL     1       9.357  -4.033  -1.766  0.00  0.00    +0.000 A 
ATOM     11  C   UNL     1       8.460  -3.674  -2.755  0.00  0.00    +0.004 A 
ATOM     12  C   UNL     1       7.644  -2.573  -2.582  0.00  0.00    +0.045 A 
ATOM     13  C   UNL     1       7.724  -1.828  -1.414  0.00  0.00    +0.121 A 
ATOM     14  C   UNL     1       8.629  -2.188  -0.425  0.00  0.00    +0.045 A 
ATOM     15  C   UNL     1       9.439  -3.292  -0.601  0.00  0.00    +0.004 A 
ENDBRANCH   9  13
ENDBRANCH   8   9
ENDBRANCH   7   8
ENDBRANCH   1   7
BRANCH   4  16
ATOM     16  C   UNL     1       1.280   1.979   0.018  0.00  0.00    +0.202 C 
BRANCH  16  17
ATOM     17  C   UNL     1      -0.015   1.208   0.015  0.00  0.00    +0.234 C 
ATOM     18  O   UNL     1       0.001  -0.004   0.004  0.00  0.00    -0.274 OA
ATOM     19  N   UNL     1      -1.191   1.867   0.018  0.00  0.00    -0.283 N 
ATOM     20  H   UNL     1      -1.205   2.834   0.092  0.00  0.00    +0.155 HD
BRANCH  19  21
ATOM     21  C   UNL     1      -2.391   1.155  -0.086  0.00  0.00    +0.047 A 
ATOM     22  C   UNL     1      -2.510  -0.099   0.499  0.00  0.00    +0.024 A 
ATOM     23  C   UNL     1      -3.698  -0.796   0.399  0.00  0.00    +0.002 A 
ATOM     24  C   UNL     1      -4.765  -0.252  -0.291  0.00  0.00    +0.001 A 
ATOM     25  C   UNL     1      -4.649   0.994  -0.880  0.00  0.00    +0.017 A 
ATOM     26  C   UNL     1      -3.465   1.699  -0.779  0.00  0.00    +0.039 A 
ATOM     27 BR   UNL     1      -3.307   3.402  -1.585  0.00  0.00    -0.048 Br
ENDBRANCH  19  21
ENDBRANCH  16  17
ENDBRANCH   4  16
TORSDOF 7
