REMARK  Name = ZINC34929432
REMARK  7 active torsions:
REMARK  status: ('A' for Active; 'I' for Inactive)
REMARK    1  A    between atoms: C_4  and  C_7
REMARK    2  A    between atoms: C_7  and  C_8
REMARK    3  A    between atoms: C_7  and  N_14
REMARK    4  A    between atoms: C_20  and  C_22
REMARK    5  A    between atoms: C_22  and  C_24
REMARK    6  A    between atoms: C_22  and  N_35
REMARK    7  A    between atoms: C_24  and  C_25
REMARK                            x       y       z     vdW  Elec       q    Type
REMARK                         _______ _______ _______ _____ _____    ______ ____
ROOT
ATOM      1  N   UNL     1       3.536  -1.963  -0.779  0.00  0.00    -0.289 NA
ATOM      2  C   UNL     1       2.503  -2.802  -0.157  0.00  0.00    +0.104 C 
ATOM      3  C   UNL     1       2.223  -4.012  -1.055  0.00  0.00    +0.123 C 
ATOM      4  N   UNL     1       3.497  -4.695  -1.329  0.00  0.00    -0.300 N 
ATOM      5  C   UNL     1       4.624  -3.892  -1.825  0.00  0.00    +0.123 C 
ATOM      6  C   UNL     1       4.809  -2.686  -0.897  0.00  0.00    +0.104 C 
ATOM      7  C   UNL     1       3.627  -6.021  -1.130  0.00  0.00    +0.201 C 
ATOM      8  O   UNL     1       2.686  -6.668  -0.721  0.00  0.00    -0.277 OA
ENDROOT
BRANCH   1   9
ATOM      9  C   UNL     1       3.711  -0.707  -0.038  0.00  0.00    +0.117 C 
BRANCH   9  13
ATOM     10  C   UNL     1       6.600   1.729  -2.029  0.00  0.00    +0.000 A 
ATOM     11  C   UNL     1       6.652   1.579  -0.656  0.00  0.00    +0.000 A 
ATOM     12  C   UNL     1       5.716   0.791  -0.011  0.00  0.00    +0.005 A 
ATOM     13  C   UNL     1       4.730   0.153  -0.740  0.00  0.00    -0.026 A 
ATOM     14  C   UNL     1       4.678   0.304  -2.113  0.00  0.00    +0.005 A 
ATOM     15  C   UNL     1       5.614   1.091  -2.758  0.00  0.00    +0.000 A 
ENDBRANCH   9  13
BRANCH   9  16
ATOM     16  C   UNL     1       2.396   0.025   0.028  0.00  0.00    -0.026 A 
ATOM     17  C   UNL     1       1.605   0.129  -1.101  0.00  0.00    +0.005 A 
ATOM     18  C   UNL     1       0.398   0.800  -1.041  0.00  0.00    +0.000 A 
ATOM     19  C   UNL     1      -0.018   1.367   0.148  0.00  0.00    +0.000 A 
ATOM     20  C   UNL     1       0.771   1.262   1.278  0.00  0.00    +0.000 A 
ATOM     21  C   UNL     1       1.976   0.587   1.219  0.00  0.00    +0.005 A 
ENDBRANCH   9  16
ENDBRANCH   1   9
BRANCH   7  22
ATOM     22  C   UNL     1       4.941  -6.701  -1.417  0.00  0.00    +0.017 C 
BRANCH  22  23
ATOM     23  N   UNL     1       4.719  -8.143  -1.592  0.00  0.00    +0.386 N 
ATOM     24  H   UNL     1       4.086  -8.294  -2.363  0.00  0.00    -0.089 HD
ATOM     25  H   UNL     1       5.599  -8.598  -1.784  0.00  0.00    -0.089 HD
ATOM     26  H   UNL     1       4.319  -8.526  -0.749  0.00  0.00    -0.089 HD
ENDBRANCH  22  23
BRANCH  22  27
ATOM     27  C   UNL     1       5.900  -6.471  -0.248  0.00  0.00    +0.030 C 
BRANCH  27  28
ATOM     28  C   UNL     1       7.252  -7.044  -0.587  0.00  0.00    -0.023 A 
ATOM     29  C   UNL     1       7.706  -8.265  -0.262  0.00  0.00    +0.087 A 
ATOM     30  N   UNL     1       8.977  -8.433  -0.739  0.00  0.00    -0.360 N 
ATOM     31  H   UNL     1       9.513  -9.234  -0.628  0.00  0.00    +0.165 HD
ATOM     32  C   UNL     1       9.383  -7.295  -1.400  0.00  0.00    +0.047 A 
ATOM     33  C   UNL     1       8.318  -6.378  -1.339  0.00  0.00    +0.003 A 
ATOM     34  C   UNL     1       8.444  -5.123  -1.937  0.00  0.00    +0.010 A 
ATOM     35  C   UNL     1       9.602  -4.793  -2.583  0.00  0.00    +0.001 A 
ATOM     36  C   UNL     1      10.654  -5.696  -2.649  0.00  0.00    +0.002 A 
ATOM     37  C   UNL     1      10.554  -6.936  -2.058  0.00  0.00    +0.026 A 
ENDBRANCH  27  28
ENDBRANCH  22  27
ENDBRANCH   7  22
TORSDOF 7
