REMARK  Name = ZINC20908301
REMARK  7 active torsions:
REMARK  status: ('A' for Active; 'I' for Inactive)
REMARK    1  A    between atoms: C_1  and  C_2
REMARK    2  A    between atoms: C_5  and  C_8
REMARK    3  A    between atoms: N_9  and  N_10
REMARK    4  A    between atoms: C_13  and  S_16
REMARK    5  A    between atoms: S_16  and  C_17
REMARK    6  A    between atoms: C_17  and  C_18
REMARK    7  A    between atoms: C_18  and  C_19
REMARK                            x       y       z     vdW  Elec       q    Type
REMARK                         _______ _______ _______ _____ _____    ______ ____
ROOT
ATOM      1  N   UNL     1       0.812   0.514  -6.242  0.00  0.00    -0.205 N 
ATOM      2  C   UNL     1       0.731   0.570  -4.858  0.00  0.00    +0.232 A 
ATOM      3  N   UNL     1      -0.226   1.228  -4.135  0.00  0.00    -0.186 NA
ATOM      4  C   UNL     1       0.045   1.043  -2.809  0.00  0.00    +0.210 A 
ATOM      5  N   UNL     1       1.127   0.307  -2.715  0.00  0.00    -0.144 NA
ATOM      6  N   UNL     1       1.558   0.004  -4.013  0.00  0.00    -0.245 N 
ATOM      7  H   UNL     1       0.061   1.029  -6.858  0.00  0.00    +0.177 HD
ATOM      8  H   UNL     1       2.409  -0.585  -4.388  0.00  0.00    +0.192 HD
ENDROOT
BRANCH   1  10
ATOM      9  C   UNL     1       1.927  -0.253  -8.149  0.00  0.00    +0.138 C 
ATOM     10  N   UNL     1       1.851  -0.200  -6.853  0.00  0.00    -0.188 NA
BRANCH   9  15
ATOM     11  C   UNL     1       6.193  -3.181 -10.661  0.00  0.00    +0.044 C 
ATOM     12  C   UNL     1       5.075  -2.414 -10.002  0.00  0.00    -0.050 A 
ATOM     13  C   UNL     1       4.131  -1.767 -10.781  0.00  0.00    +0.004 A 
ATOM     14  C   UNL     1       3.106  -1.063 -10.186  0.00  0.00    +0.010 A 
ATOM     15  C   UNL     1       3.021  -1.004  -8.793  0.00  0.00    -0.005 A 
ATOM     16  C   UNL     1       3.980  -1.654  -8.012  0.00  0.00    +0.010 A 
ATOM     17  C   UNL     1       4.997  -2.359  -8.622  0.00  0.00    +0.004 A 
ENDBRANCH   9  15
ENDBRANCH   1  10
BRANCH   4  18
ATOM     18  S   UNL     1      -0.890   1.687  -1.462  0.00  0.00    -0.084 S 
BRANCH  18  19
ATOM     19  C   UNL     1      -0.013   1.086   0.008  0.00  0.00    +0.086 C 
BRANCH  19  20
ATOM     20  C   UNL     1      -0.729   1.579   1.267  0.00  0.00    +0.107 C 
BRANCH  20  21
ATOM     21  C   UNL     1       0.000   1.080   2.488  0.00  0.00    +0.219 C 
ATOM     22  O   UNL     1       0.994   0.397   2.363  0.00  0.00    -0.275 OA
ATOM     23  N   UNL     1      -0.453   1.393   3.718  0.00  0.00    -0.265 N 
ATOM     24  C   UNL     1       0.217   0.934   4.840  0.00  0.00    +0.165 A 
ATOM     25  N   UNL     1      -0.067   1.131   6.106  0.00  0.00    -0.225 NA
ATOM     26  C   UNL     1       0.681   0.617   7.107  0.00  0.00    +0.080 A 
ATOM     27  C   UNL     1       0.486   0.752   8.501  0.00  0.00    +0.030 A 
ATOM     28  C   UNL     1       1.346   0.162   9.389  0.00  0.00    +0.017 A 
ATOM     29  C   UNL     1       2.433  -0.587   8.958  0.00  0.00    +0.019 A 
ATOM     30  C   UNL     1       2.654  -0.740   7.601  0.00  0.00    +0.032 A 
ATOM     31  C   UNL     1       1.797  -0.151   6.704  0.00  0.00    +0.042 A 
ATOM     32  S   UNL     1       1.684  -0.083   4.933  0.00  0.00    -0.052 S 
ATOM     33 BR   UNL     1       3.600  -1.388  10.212  0.00  0.00    -0.050 Br
ATOM     34  H   UNL     1      -1.355   2.012   3.831  0.00  0.00    +0.157 HD
ENDBRANCH  20  21
ENDBRANCH  19  20
ENDBRANCH  18  19
ENDBRANCH   4  18
TORSDOF 6
