REMARK  Name = ZINC09389950
REMARK  8 active torsions:
REMARK  status: ('A' for Active; 'I' for Inactive)
REMARK    1  A    between atoms: C_1  and  C_2
REMARK    2  A    between atoms: C_3  and  C_32
REMARK    3  A    between atoms: C_11  and  C_13
REMARK    4  A    between atoms: C_13  and  C_15
REMARK    5  A    between atoms: C_13  and  O_16
REMARK    6  A    between atoms: O_16  and  C_17
REMARK    7  A    between atoms: C_17  and  C_19
REMARK    8  A    between atoms: C_19  and  C_20
REMARK                            x       y       z     vdW  Elec       q    Type
REMARK                         _______ _______ _______ _____ _____    ______ ____
ROOT
ATOM      1  O   UNL     1       3.715   4.615   4.169  0.00  0.00    -0.454 OA
ENDROOT
BRANCH   1   2
ATOM      2  C   UNL     1       4.058   5.950   4.625  0.00  0.00    +0.239 C 
ATOM      3  C   UNL     1       2.826   6.852   4.535  0.00  0.00    +0.060 C 
BRANCH   2  14
ATOM      4  C   UNL     1       6.973   5.302  10.628  0.00  0.00    +0.045 C 
ATOM      5  C   UNL     1       5.655   5.795  10.088  0.00  0.00    -0.026 A 
ATOM      6  C   UNL     1       4.711   6.259  10.922  0.00  0.00    -0.008 A 
ATOM      7  S   UNL     1       3.377   6.706   9.826  0.00  0.00    -0.073 S 
ATOM      8  C   UNL     1       4.127   6.257   8.282  0.00  0.00    +0.116 A 
ATOM      9  C   UNL     1       5.392   5.772   8.662  0.00  0.00    +0.075 A 
ATOM     10  C   UNL     1       6.232   5.329   7.588  0.00  0.00    +0.260 A 
ATOM     11  O   UNL     1       7.347   4.892   7.815  0.00  0.00    -0.267 OA
ATOM     12  N   UNL     1       5.771   5.402   6.326  0.00  0.00    -0.307 N 
ATOM     13  H   UNL     1       6.334   5.103   5.596  0.00  0.00    +0.170 HD
ATOM     14  C   UNL     1       4.531   5.886   6.055  0.00  0.00    +0.152 A 
ATOM     15  N   UNL     1       3.744   6.303   7.010  0.00  0.00    -0.223 NA
ATOM     16  C   UNL     1       4.765   6.374  12.423  0.00  0.00    +0.052 C 
ENDBRANCH   2  14
ENDBRANCH   1   2
BRANCH   1  17
ATOM     17  C   UNL     1       3.874   4.357   2.862  0.00  0.00    +0.309 C 
ATOM     18  O   UNL     1       4.287   5.219   2.122  0.00  0.00    -0.251 OA
BRANCH  17  19
ATOM     19  C   UNL     1       3.538   2.994   2.316  0.00  0.00    +0.144 C 
BRANCH  19  20
ATOM     20  C   UNL     1       3.808   2.966   0.810  0.00  0.00    +0.148 C 
ATOM     21  C   UNL     1       3.590   1.572   0.281  0.00  0.00    +0.231 C 
ATOM     22  O   UNL     1       4.558   0.859   0.117  0.00  0.00    -0.274 OA
ATOM     23  N   UNL     1       2.389   1.087  -0.016  0.00  0.00    -0.284 N 
ATOM     24  C   UNL     1       1.184   1.784   0.000  0.00  0.00    +0.047 A 
ATOM     25  C   UNL     1      -0.013   1.076   0.008  0.00  0.00    +0.024 A 
ATOM     26  C   UNL     1      -1.220   1.746   0.017  0.00  0.00    +0.002 A 
ATOM     27  C   UNL     1      -1.253   3.129   0.024  0.00  0.00    +0.001 A 
ATOM     28  C   UNL     1      -0.071   3.846   0.008  0.00  0.00    +0.016 A 
ATOM     29  C   UNL     1       1.142   3.179  -0.008  0.00  0.00    +0.030 A 
ATOM     30  S   UNL     1       2.655   4.089  -0.039  0.00  0.00    -0.110 S 
ATOM     31  H   UNL     1       2.348   0.152  -0.269  0.00  0.00    +0.155 HD
ENDBRANCH  19  20
ENDBRANCH  17  19
ENDBRANCH   1  17
TORSDOF 5
