REMARK  Name = ZINC39326016
REMARK  9 active torsions:
REMARK  status: ('A' for Active; 'I' for Inactive)
REMARK    1  A    between atoms: C_1  and  C_2
REMARK    2  A    between atoms: C_2  and  C_3
REMARK    3  A    between atoms: C_5  and  C_17
REMARK    4  A    between atoms: C_7  and  C_15
REMARK    5  A    between atoms: C_8  and  N_14
REMARK    6  A    between atoms: C_19  and  O_25
REMARK    7  A    between atoms: C_21  and  O_23
REMARK    8  A    between atoms: O_23  and  C_24
REMARK    9  A    between atoms: O_25  and  C_26
REMARK                            x       y       z     vdW  Elec       q    Type
REMARK                         _______ _______ _______ _____ _____    ______ ____
ROOT
ATOM      1  C   UNL     1       0.707  -0.490  -1.238  0.00  0.00    +0.069 C 
ATOM      2  C   UNL     1       1.976  -0.816  -1.299  0.00  0.00    +0.030 C 
ATOM      3  C   UNL     1       3.122  -0.709  -0.330  0.00  0.00    +0.098 C 
ATOM      4  C   UNL     1       4.304  -0.225  -1.150  0.00  0.00    +0.097 C 
ATOM      5  C   UNL     1       4.251  -0.151  -2.496  0.00  0.00    +0.195 C 
ATOM      6  O   UNL     1       3.196  -0.449  -3.276  0.00  0.00    -0.448 OA
ATOM      7  C   UNL     1       2.192  -1.309  -2.730  0.00  0.00    +0.343 C 
ATOM      8  N   UNL     1       0.876  -1.077  -3.334  0.00  0.00    -0.138 NA
ATOM      9  N   UNL     1       0.119  -0.659  -2.450  0.00  0.00    -0.155 NA
ENDROOT
BRANCH   3  10
ATOM     10  C   UNL     1       3.420  -2.057   0.275  0.00  0.00    -0.028 A 
ATOM     11  C   UNL     1       3.788  -3.111  -0.539  0.00  0.00    +0.050 A 
ATOM     12  C   UNL     1       4.063  -4.353   0.016  0.00  0.00    +0.124 A 
ATOM     13  C   UNL     1       3.968  -4.535   1.387  0.00  0.00    +0.091 A 
ATOM     14  C   UNL     1       3.599  -3.475   2.201  0.00  0.00    +0.124 A 
ATOM     15  C   UNL     1       3.331  -2.234   1.642  0.00  0.00    +0.050 A 
BRANCH  14  16
ATOM     16  O   UNL     1       3.505  -3.651   3.545  0.00  0.00    -0.495 OA
ATOM     17  C   UNL     1       3.801  -4.954   4.052  0.00  0.00    +0.277 C 
ENDBRANCH  14  16
BRANCH  12  18
ATOM     18  O   UNL     1       4.424  -5.391  -0.784  0.00  0.00    -0.495 OA
ATOM     19  C   UNL     1       4.692  -6.640  -0.145  0.00  0.00    +0.277 C 
ENDBRANCH  12  18
ENDBRANCH   3  10
BRANCH   5  20
ATOM     20  N   UNL     1       5.389   0.272  -3.135  0.00  0.00    -0.329 N 
ATOM     21  H   UNL     1       6.179   0.499  -2.619  0.00  0.00    +0.145 HD
ATOM     22  H   UNL     1       5.405   0.343  -4.102  0.00  0.00    +0.145 HD
ENDBRANCH   5  20
BRANCH   1  24
ATOM     23  C   UNL     1      -0.019   1.526   0.010  0.00  0.00    +0.010 C 
ATOM     24  C   UNL     1       0.002  -0.004   0.002  0.00  0.00    +0.054 C 
ENDBRANCH   1  24
BRANCH   4  25
ATOM     25  C   UNL     1       5.507   0.163  -0.477  0.00  0.00    +0.101 C 
ATOM     26  N   UNL     1       6.461   0.471   0.057  0.00  0.00    -0.191 NA
ENDBRANCH   4  25
TORSDOF 6
