REMARK  Name = ZINC65414751
REMARK  9 active torsions:
REMARK  status: ('A' for Active; 'I' for Inactive)
REMARK    1  A    between atoms: C_1  and  C_2
REMARK    2  A    between atoms: C_2  and  C_3
REMARK    3  A    between atoms: C_3  and  O_4
REMARK    4  A    between atoms: O_4  and  C_5
REMARK    5  A    between atoms: N_13  and  C_14
REMARK    6  A    between atoms: C_16  and  C_21
REMARK    7  A    between atoms: N_23  and  C_24
REMARK    8  A    between atoms: C_24  and  C_25
REMARK    9  A    between atoms: C_24  and  C_26
REMARK                            x       y       z     vdW  Elec       q    Type
REMARK                         _______ _______ _______ _____ _____    ______ ____
ROOT
ATOM      1  C   UNL     1      -2.421  -2.662   0.650  0.00  0.00    +0.136 C 
ATOM      2  C   UNL     1      -2.421  -3.829  -0.339  0.00  0.00    +0.035 C 
ATOM      3  C   UNL     1      -3.862  -4.264  -0.617  0.00  0.00    +0.022 C 
ATOM      4  C   UNL     1      -4.510  -4.736   0.688  0.00  0.00    +0.109 C 
ATOM      5  N   UNL     1      -4.384  -3.670   1.691  0.00  0.00    -0.283 N 
ATOM      6  C   UNL     1      -3.052  -3.116   1.970  0.00  0.00    +0.140 C 
ATOM      7  C   UNL     1      -5.470  -3.208   2.343  0.00  0.00    +0.307 C 
ATOM      8  O   UNL     1      -5.344  -2.379   3.224  0.00  0.00    -0.252 OA
ATOM      9  N   UNL     1      -6.696  -3.665   2.018  0.00  0.00    -0.268 N 
ATOM     10  H   UNL     1      -6.791  -4.378   1.367  0.00  0.00    +0.156 HD
ENDROOT
BRANCH   9  11
ATOM     11  C   UNL     1      -7.832  -3.111   2.621  0.00  0.00    +0.054 A 
ATOM     12  C   UNL     1      -7.759  -1.866   3.224  0.00  0.00    +0.038 A 
ATOM     13  C   UNL     1      -8.893  -1.318   3.823  0.00  0.00    +0.039 A 
ATOM     14  C   UNL     1     -10.096  -2.028   3.810  0.00  0.00    +0.014 A 
ATOM     15  C   UNL     1     -10.159  -3.267   3.208  0.00  0.00    +0.022 A 
ATOM     16  C   UNL     1      -9.035  -3.808   2.609  0.00  0.00    +0.062 A 
ATOM     17 CL   UNL     1      -9.126  -5.365   1.846  0.00  0.00    -0.082 Cl
BRANCH  13  18
ATOM     18  C   UNL     1      -8.823   0.009   4.468  0.00  0.00    +0.244 C 
ATOM     19  O   UNL     1      -7.775   0.626   4.478  0.00  0.00    -0.270 OA
ATOM     20  N   UNL     1      -9.920   0.537   5.046  0.00  0.00    -0.309 N 
ATOM     21  H   UNL     1     -10.757   0.045   5.038  0.00  0.00    +0.149 HD
BRANCH  20  22
ATOM     22  C   UNL     1      -9.851   1.853   5.686  0.00  0.00    +0.067 C 
ATOM     23  C   UNL     1     -11.242   2.488   5.699  0.00  0.00    +0.027 C 
ATOM     24  C   UNL     1      -9.349   1.695   7.123  0.00  0.00    +0.027 C 
ENDBRANCH  20  22
ENDBRANCH  13  18
ENDBRANCH   9  11
BRANCH   1  25
ATOM     25  O   UNL     1      -1.077  -2.237   0.886  0.00  0.00    -0.375 OA
BRANCH  25  26
ATOM     26  C   UNL     1      -0.953  -0.848   1.198  0.00  0.00    +0.160 C 
BRANCH  26  28
ATOM     27  C   UNL     1       0.654   0.980   1.763  0.00  0.00    +0.006 C 
ATOM     28  C   UNL     1       0.521  -0.507   1.429  0.00  0.00    +0.025 C 
ENDBRANCH  26  28
ENDBRANCH  25  26
ENDBRANCH   1  25
TORSDOF 6
