REMARK  Name = ZINC39466474
REMARK  6 active torsions:
REMARK  status: ('A' for Active; 'I' for Inactive)
REMARK    1  A    between atoms: C_4  and  C_7
REMARK    2  A    between atoms: C_7  and  C_8
REMARK    3  A    between atoms: P_17  and  C_33
REMARK    4  A    between atoms: C_25  and  C_26
REMARK    5  A    between atoms: C_31  and  O_32
REMARK    6  A    between atoms: C_33  and  C_34
REMARK                            x       y       z     vdW  Elec       q    Type
REMARK                         _______ _______ _______ _____ _____    ______ ____
ROOT
ATOM      1  C   UNL     1       4.164  -0.959   1.377  0.00  0.00    -0.039 C 
ATOM      2  C   UNL     1       3.893  -2.120   1.970  0.00  0.00    -0.019 C 
ATOM      3  C   UNL     1       4.368  -2.347   3.378  0.00  0.00    +0.016 C 
ATOM      4  C   UNL     1       4.480  -3.834   3.699  0.00  0.00    -0.003 C 
ATOM      5  C   UNL     1       5.001  -4.010   5.133  0.00  0.00    -0.020 C 
ATOM      6  C   UNL     1       5.115  -5.517   5.394  0.00  0.00    +0.156 C 
ATOM      7  O   UNL     1       5.518  -5.734   6.759  0.00  0.00    -0.319 OA
ATOM      8  P   UNL     1       6.810  -4.911   7.308  0.00  0.00    +0.262 P 
ATOM      9  O   UNL     1       8.061  -5.571   6.874  0.00  0.00    -0.274 OA
ATOM     10  N   UNL     1       6.689  -3.411   6.629  0.00  0.00    -0.291 NA
ATOM     11  N   UNL     1       6.296  -3.354   5.307  0.00  0.00    +0.397 N 
ATOM     12  C   UNL     1       6.222  -1.919   4.978  0.00  0.00    -0.046 C 
ATOM     13  C   UNL     1       5.761  -1.725   3.540  0.00  0.00    +0.005 C 
ATOM     14  C   UNL     1       5.692  -0.272   3.155  0.00  0.00    -0.016 C 
ATOM     15  C   UNL     1       4.919   0.080   2.112  0.00  0.00    -0.015 C 
ATOM     16  H   UNL     1       6.894  -2.611   7.138  0.00  0.00    +0.111 HD
ATOM     17  H   UNL     1       6.982  -3.801   4.718  0.00  0.00    -0.055 HD
ENDROOT
BRANCH  15  18
ATOM     18  C   UNL     1       4.820   1.503   1.707  0.00  0.00    +0.024 A 
ATOM     19  C   UNL     1       5.473   1.951   0.561  0.00  0.00    +0.012 A 
ATOM     20  C   UNL     1       5.377   3.276   0.187  0.00  0.00    +0.001 A 
ATOM     21  C   UNL     1       4.635   4.162   0.948  0.00  0.00    +0.004 A 
ATOM     22  C   UNL     1       3.983   3.729   2.086  0.00  0.00    +0.046 A 
ATOM     23  C   UNL     1       4.065   2.400   2.470  0.00  0.00    +0.125 A 
BRANCH  23  24
ATOM     24  O   UNL     1       3.421   1.971   3.586  0.00  0.00    -0.506 OA
ATOM     25  H   UNL     1       3.948   2.035   4.394  0.00  0.00    +0.292 HD
ENDBRANCH  23  24
ENDBRANCH  15  18
BRANCH   1  26
ATOM     26  C   UNL     1       3.711  -0.707  -0.038  0.00  0.00    +0.070 C 
BRANCH  26  30
ATOM     27  C   UNL     1      -0.017   1.378   0.010  0.00  0.00    +0.000 A 
ATOM     28  C   UNL     1       1.171   2.086   0.002  0.00  0.00    +0.000 A 
ATOM     29  C   UNL     1       2.377   1.411  -0.013  0.00  0.00    +0.004 A 
ATOM     30  C   UNL     1       2.396   0.029  -0.020  0.00  0.00    -0.043 A 
ATOM     31  C   UNL     1       1.208  -0.679  -0.012  0.00  0.00    +0.004 A 
ATOM     32  C   UNL     1       0.002  -0.004   0.002  0.00  0.00    +0.000 A 
ENDBRANCH  26  30
ENDBRANCH   1  26
BRANCH   8  33
ATOM     33  C   UNL     1       6.757  -4.792   9.126  0.00  0.00    +0.147 C 
BRANCH  33  34
ATOM     34  C   UNL     1       6.767  -6.177   9.721  0.00  0.00    -0.037 A 
ATOM     35  C   UNL     1       5.576  -6.837   9.955  0.00  0.00    +0.004 A 
ATOM     36  C   UNL     1       5.585  -8.107  10.501  0.00  0.00    +0.000 A 
ATOM     37  C   UNL     1       6.786  -8.717  10.811  0.00  0.00    +0.000 A 
ATOM     38  C   UNL     1       7.978  -8.057  10.576  0.00  0.00    +0.000 A 
ATOM     39  C   UNL     1       7.968  -6.789  10.027  0.00  0.00    +0.004 A 
ENDBRANCH  33  34
ENDBRANCH   8  33
TORSDOF 6
