REMARK  Name = ZINC64093440
REMARK  6 active torsions:
REMARK  status: ('A' for Active; 'I' for Inactive)
REMARK    1  A    between atoms: C_5  and  C_12
REMARK    2  A    between atoms: C_12  and  C_13
REMARK    3  A    between atoms: C_13  and  C_14
REMARK    4  A    between atoms: N_28  and  C_29
REMARK    5  A    between atoms: C_29  and  C_30
REMARK    6  A    between atoms: C_30  and  C_31
REMARK                            x       y       z     vdW  Elec       q    Type
REMARK                         _______ _______ _______ _____ _____    ______ ____
ROOT
ATOM      1  C   UNL     1       7.181  -0.413  -2.544  0.00  0.00    +0.216 C 
ATOM      2  O   UNL     1       7.058   0.486  -3.349  0.00  0.00    -0.276 OA
ATOM      3  N   UNL     1       8.080  -1.393  -2.761  0.00  0.00    -0.301 N 
ATOM      4  C   UNL     1       8.241  -2.495  -1.801  0.00  0.00    +0.109 C 
ATOM      5  C   UNL     1       9.712  -2.563  -1.383  0.00  0.00    +0.042 C 
ATOM      6  C   UNL     1      10.598  -2.710  -2.625  0.00  0.00    +0.082 C 
ATOM      7  C   UNL     1      10.378  -1.524  -3.563  0.00  0.00    +0.027 C 
ATOM      8  C   UNL     1       8.920  -1.393  -3.966  0.00  0.00    +0.113 C 
ATOM      9  C   UNL     1      10.847  -0.246  -2.864  0.00  0.00    +0.016 C 
ATOM     10  C   UNL     1      12.371  -0.312  -2.724  0.00  0.00    +0.096 C 
ATOM     11  C   UNL     1      12.785  -1.657  -2.203  0.00  0.00    +0.216 C 
ATOM     12  O   UNL     1      13.909  -1.774  -1.763  0.00  0.00    -0.276 OA
ATOM     13  N   UNL     1      11.996  -2.745  -2.193  0.00  0.00    -0.298 N 
ENDROOT
BRANCH   1  14
ATOM     14  C   UNL     1       6.329  -0.433  -1.301  0.00  0.00    +0.100 C 
BRANCH  14  15
ATOM     15  C   UNL     1       5.401   0.783  -1.300  0.00  0.00    +0.056 C 
BRANCH  15  20
ATOM     16  C   UNL     1      -0.017   1.405   0.010  0.00  0.00    +0.040 A 
ATOM     17  C   UNL     1       1.108   2.146   0.003  0.00  0.00    +0.030 A 
ATOM     18  C   UNL     1       2.417   1.477  -0.013  0.00  0.00    +0.060 A 
ATOM     19  N   UNL     1       3.639   1.925  -0.023  0.00  0.00    -0.363 N 
ATOM     20  C   UNL     1       4.536   0.763  -0.038  0.00  0.00    +0.174 C 
ATOM     21  N   UNL     1       3.673  -0.425  -0.036  0.00  0.00    -0.363 N 
ATOM     22  C   UNL     1       2.438  -0.011  -0.021  0.00  0.00    +0.063 A 
ATOM     23  C   UNL     1       1.151  -0.715  -0.012  0.00  0.00    +0.065 A 
ATOM     24  C   UNL     1       0.002  -0.004   0.002  0.00  0.00    +0.125 A 
ATOM     25  F   UNL     1      -1.174  -0.669   0.010  0.00  0.00    -0.205 F 
ATOM     26  H   UNL     1       3.908   2.857  -0.020  0.00  0.00    +0.162 HD
ATOM     27  H   UNL     1       3.969  -1.349  -0.043  0.00  0.00    +0.162 HD
ENDBRANCH  15  20
ENDBRANCH  14  15
ENDBRANCH   1  14
BRANCH  13  28
ATOM     28  C   UNL     1      12.548  -4.022  -1.733  0.00  0.00    +0.108 C 
BRANCH  28  29
ATOM     29  C   UNL     1      13.149  -4.775  -2.921  0.00  0.00    +0.022 C 
BRANCH  29  30
ATOM     30  C   UNL     1      13.726  -6.108  -2.442  0.00  0.00    -0.009 C 
ATOM     31  C   UNL     1      14.898  -5.845  -1.494  0.00  0.00    +0.003 C 
ATOM     32  C   UNL     1      15.475  -7.179  -1.014  0.00  0.00    +0.000 C 
ATOM     33  C   UNL     1      15.963  -7.986  -2.218  0.00  0.00    +0.000 C 
ATOM     34  C   UNL     1      14.791  -8.249  -3.166  0.00  0.00    +0.000 C 
ATOM     35  C   UNL     1      14.215  -6.915  -3.646  0.00  0.00    +0.003 C 
ENDBRANCH  29  30
ENDBRANCH  28  29
ENDBRANCH  13  28
TORSDOF 6
