REMARK  Name = ZINC51676082
REMARK  8 active torsions:
REMARK  status: ('A' for Active; 'I' for Inactive)
REMARK    1  A    between atoms: C_1  and  C_2
REMARK    2  A    between atoms: C_2  and  C_3
REMARK    3  A    between atoms: C_3  and  N_4
REMARK    4  A    between atoms: C_5  and  C_7
REMARK    5  A    between atoms: N_16  and  C_17
REMARK    6  A    between atoms: C_17  and  C_18
REMARK    7  A    between atoms: C_18  and  C_20
REMARK    8  A    between atoms: C_18  and  N_25
REMARK                            x       y       z     vdW  Elec       q    Type
REMARK                         _______ _______ _______ _____ _____    ______ ____
ROOT
ATOM      1  C   UNL     1       1.637  -4.218   2.057  0.00  0.00    +0.092 C 
ATOM      2  C   UNL     1       2.469  -4.752   3.224  0.00  0.00    +0.016 C 
ATOM      3  C   UNL     1       2.483  -6.282   3.186  0.00  0.00    +0.020 C 
ATOM      4  C   UNL     1       1.051  -6.805   3.334  0.00  0.00    +0.109 C 
ATOM      5  N   UNL     1       0.211  -6.183   2.301  0.00  0.00    -0.285 N 
ATOM      6  C   UNL     1       0.195  -4.718   2.191  0.00  0.00    +0.122 C 
ATOM      7  C   UNL     1      -0.531  -6.941   1.470  0.00  0.00    +0.302 C 
ATOM      8  O   UNL     1      -1.290  -6.414   0.681  0.00  0.00    -0.253 OA
ATOM      9  N   UNL     1      -0.431  -8.285   1.515  0.00  0.00    -0.300 N 
ATOM     10  H   UNL     1       0.120  -8.708   2.191  0.00  0.00    +0.150 HD
ENDROOT
BRANCH   1  12
ATOM     11  N   UNL     1       0.978  -2.018   1.137  0.00  0.00    -0.315 N 
ATOM     12  C   UNL     1       1.651  -2.711   2.077  0.00  0.00    +0.218 C 
ATOM     13  O   UNL     1       2.267  -2.122   2.939  0.00  0.00    -0.275 OA
ATOM     14  H   UNL     1       0.485  -2.490   0.447  0.00  0.00    +0.149 HD
BRANCH  11  15
ATOM     15  C   UNL     1       0.992  -0.553   1.156  0.00  0.00    +0.104 C 
BRANCH  15  17
ATOM     16  C   UNL     1       0.172   1.510   0.010  0.00  0.00    +0.005 C 
ATOM     17  C   UNL     1       0.158  -0.020  -0.011  0.00  0.00    +0.015 C 
ENDBRANCH  15  17
ENDBRANCH  11  15
ENDBRANCH   1  12
BRANCH   9  18
ATOM     18  C   UNL     1      -1.156  -9.106   0.542  0.00  0.00    +0.098 C 
BRANCH  18  19
ATOM     19  C   UNL     1      -0.973 -10.585   0.886  0.00  0.00    +0.016 C 
BRANCH  19  20
ATOM     20  N   UNL     1       0.461 -10.893   0.976  0.00  0.00    +0.387 N 
ATOM     21  C   UNL     1       1.122 -10.511  -0.278  0.00  0.00    -0.078 C 
ATOM     22  C   UNL     1       2.628 -10.754  -0.159  0.00  0.00    -0.019 C 
ATOM     23  C   UNL     1       2.879 -12.239   0.121  0.00  0.00    -0.004 C 
ATOM     24  C   UNL     1       2.125 -12.644   1.390  0.00  0.00    -0.019 C 
ATOM     25  C   UNL     1       0.637 -12.331   1.214  0.00  0.00    -0.078 C 
ATOM     26  H   UNL     1       0.868 -10.374   1.740  0.00  0.00    -0.081 HD
ENDBRANCH  19  20
BRANCH  19  27
ATOM     27  C   UNL     1      -1.634 -10.880   2.208  0.00  0.00    +0.093 A 
ATOM     28  C   UNL     1      -2.840 -11.452   2.374  0.00  0.00    +0.043 A 
ATOM     29  C   UNL     1      -3.065 -11.537   3.767  0.00  0.00    +0.041 A 
ATOM     30  C   UNL     1      -1.982 -11.012   4.369  0.00  0.00    +0.195 A 
ATOM     31  O   UNL     1      -1.117 -10.621   3.420  0.00  0.00    -0.469 OA
ENDBRANCH  19  27
ENDBRANCH  18  19
ENDBRANCH   9  18
TORSDOF 7
