REMARK  Name = ZINC20512046
REMARK  5 active torsions:
REMARK  status: ('A' for Active; 'I' for Inactive)
REMARK    1  A    between atoms: C_1  and  C_2
REMARK    2  A    between atoms: C_2  and  C_4
REMARK    3  A    between atoms: C_2  and  N_14
REMARK    4  A    between atoms: C_15  and  C_17
REMARK    5  A    between atoms: C_17  and  N_18
REMARK                            x       y       z     vdW  Elec       q    Type
REMARK                         _______ _______ _______ _____ _____    ______ ____
ROOT
ATOM      1  C   UNL     1       0.313  -2.660  -0.973  0.00  0.00    +0.209 C 
ENDROOT
BRANCH   1   2
ATOM      2  N   UNL     1       1.251  -2.045  -0.030  0.00  0.00    -0.256 N 
ATOM      3  C   UNL     1       1.232  -0.659  -0.013  0.00  0.00    +0.069 A 
ATOM      4  C   UNL     1       0.002  -0.004   0.002  0.00  0.00    +0.028 A 
ATOM      5  C   UNL     1      -0.017   1.383   0.010  0.00  0.00    +0.022 A 
ATOM      6  C   UNL     1       1.177   2.076   0.002  0.00  0.00    +0.112 A 
ATOM      7  N   UNL     1       2.329   1.433  -0.011  0.00  0.00    -0.247 NA
ATOM      8  C   UNL     1       2.393   0.109  -0.017  0.00  0.00    +0.123 A 
ATOM      9  S   UNL     1       3.973  -0.676  -0.026  0.00  0.00    -0.067 S 
ATOM     10  C   UNL     1       3.973  -1.626   1.458  0.00  0.00    +0.026 A 
ATOM     11  C   UNL     1       4.935  -1.388   2.430  0.00  0.00    +0.016 A 
ATOM     12  C   UNL     1       4.943  -2.132   3.593  0.00  0.00    +0.001 A 
ATOM     13  C   UNL     1       3.992  -3.120   3.793  0.00  0.00    +0.001 A 
ATOM     14  C   UNL     1       3.030  -3.366   2.839  0.00  0.00    +0.014 A 
ATOM     15  C   UNL     1       3.004  -2.619   1.654  0.00  0.00    +0.051 A 
ATOM     16  C   UNL     1       1.969  -2.892   0.659  0.00  0.00    +0.252 C 
ATOM     17  O   UNL     1       1.746  -4.068   0.442  0.00  0.00    -0.270 OA
ENDBRANCH   1   2
BRANCH   1  19
ATOM     18  N   UNL     1       0.314  -3.397  -3.334  0.00  0.00    -0.311 N 
ATOM     19  C   UNL     1       0.989  -2.845  -2.307  0.00  0.00    +0.231 C 
ATOM     20  O   UNL     1       2.142  -2.498  -2.455  0.00  0.00    -0.274 OA
ATOM     21  H   UNL     1      -0.732  -3.712  -3.199  0.00  0.00    +0.149 HD
BRANCH  18  23
ATOM     22  C   UNL     1       0.860  -2.285  -5.443  0.00  0.00    +0.028 C 
ATOM     23  C   UNL     1       0.972  -3.577  -4.631  0.00  0.00    +0.076 C 
BRANCH  23  24
ATOM     24  C   UNL     1       0.294  -4.718  -5.392  0.00  0.00    -0.010 C 
ATOM     25  C   UNL     1       0.405  -6.010  -4.580  0.00  0.00    +0.012 C 
ATOM     26  C   UNL     1      -0.272  -7.151  -5.341  0.00  0.00    -0.010 C 
ATOM     27  C   UNL     1       0.415  -7.339  -6.696  0.00  0.00    +0.007 C 
ATOM     28  C   UNL     1       0.304  -6.047  -7.508  0.00  0.00    -0.010 C 
ATOM     29  C   UNL     1       0.981  -4.906  -6.746  0.00  0.00    +0.012 C 
ATOM     30  C   UNL     1      -1.172  -5.709  -7.727  0.00  0.00    +0.007 C 
ATOM     31  C   UNL     1      -1.859  -5.521  -6.373  0.00  0.00    -0.010 C 
ATOM     32  C   UNL     1      -1.748  -6.812  -5.561  0.00  0.00    +0.007 C 
ATOM     33  C   UNL     1      -1.182  -4.380  -5.612  0.00  0.00    +0.012 C 
ENDBRANCH  23  24
ENDBRANCH  18  23
ENDBRANCH   1  19
TORSDOF 4
