REMARK  Name = ZINC34734605
REMARK  9 active torsions:
REMARK  status: ('A' for Active; 'I' for Inactive)
REMARK    1  A    between atoms: C_1  and  C_2
REMARK    2  A    between atoms: C_2  and  C_3
REMARK    3  A    between atoms: C_3  and  N_4
REMARK    4  A    between atoms: C_19  and  C_21
REMARK    5  A    between atoms: C_19  and  C_22
REMARK    6  A    between atoms: N_25  and  C_26
REMARK    7  A    between atoms: C_26  and  C_27
REMARK    8  A    between atoms: C_27  and  C_28
REMARK    9  A    between atoms: C_27  and  C_29
REMARK                            x       y       z     vdW  Elec       q    Type
REMARK                         _______ _______ _______ _____ _____    ______ ____
ROOT
ATOM      1  N   UNL     1       0.825  -2.749   0.029  0.00  0.00    +0.382 N 
ATOM      2  C   UNL     1       0.946  -4.190   0.286  0.00  0.00    -0.060 C 
ATOM      3  C   UNL     1       1.484  -4.889  -0.967  0.00  0.00    +0.089 C 
ATOM      4  N   UNL     1       0.613  -4.546  -2.102  0.00  0.00    -0.304 N 
ATOM      5  C   UNL     1       0.305  -3.126  -2.335  0.00  0.00    +0.089 C 
ATOM      6  C   UNL     1      -0.177  -2.511  -1.018  0.00  0.00    -0.060 C 
ATOM      7  C   UNL     1       0.103  -5.522  -2.921  0.00  0.00    +0.202 A 
ATOM      8  N   UNL     1      -1.067  -6.059  -2.641  0.00  0.00    -0.208 NA
ATOM      9  C   UNL     1      -1.584  -7.005  -3.414  0.00  0.00    +0.118 A 
ATOM     10  C   UNL     1      -0.921  -7.480  -4.559  0.00  0.00    +0.076 A 
ATOM     11  C   UNL     1      -1.616  -8.525  -5.309  0.00  0.00    -0.018 A 
ATOM     12  C   UNL     1      -2.815  -8.928  -4.835  0.00  0.00    +0.021 A 
ATOM     13  S   UNL     1      -3.086  -7.954  -3.383  0.00  0.00    -0.071 S 
ATOM     14  C   UNL     1      -3.698  -9.976  -5.438  0.00  0.00    +0.203 C 
ATOM     15  O   UNL     1      -3.215 -10.253  -6.762  0.00  0.00    -0.368 OA
ATOM     16  C   UNL     1      -1.804 -10.476  -6.819  0.00  0.00    +0.068 C 
ATOM     17  C   UNL     1      -1.052  -9.164  -6.576  0.00  0.00    +0.071 C 
ATOM     18  C   UNL     1      -1.407 -11.494  -5.747  0.00  0.00    +0.041 C 
ATOM     19  C   UNL     1      -1.433 -11.025  -8.198  0.00  0.00    +0.041 C 
ATOM     20  C   UNL     1       0.347  -6.878  -4.838  0.00  0.00    +0.264 A 
ATOM     21  O   UNL     1       0.996  -7.226  -5.810  0.00  0.00    -0.267 OA
ATOM     22  N   UNL     1       0.812  -5.920  -4.015  0.00  0.00    -0.280 N 
ATOM     23  H   UNL     1       1.718  -2.388  -0.274  0.00  0.00    -0.082 HD
ENDROOT
BRANCH   1  24
ATOM     24  C   UNL     1       0.415  -2.066   1.262  0.00  0.00    -0.079 C 
BRANCH  24  26
ATOM     25  C   UNL     1       1.088  -1.497   3.600  0.00  0.00    +0.002 C 
ATOM     26  C   UNL     1       1.516  -2.209   2.315  0.00  0.00    -0.022 C 
ENDBRANCH  24  26
ENDBRANCH   1  24
BRANCH  22  27
ATOM     27  C   UNL     1       2.107  -5.296  -4.298  0.00  0.00    +0.131 C 
BRANCH  27  28
ATOM     28  C   UNL     1       1.890  -4.014  -5.104  0.00  0.00    +0.003 C 
ATOM     29  C   UNL     1       3.222  -3.277  -5.258  0.00  0.00    +0.009 C 
ATOM     30  C   UNL     1       1.339  -4.367  -6.487  0.00  0.00    +0.009 C 
ENDBRANCH  27  28
ENDBRANCH  22  27
TORSDOF 4
