REMARK  Name = ZINC54726317
REMARK  9 active torsions:
REMARK  status: ('A' for Active; 'I' for Inactive)
REMARK    1  A    between atoms: C_1  and  C_2
REMARK    2  A    between atoms: C_5  and  C_29
REMARK    3  A    between atoms: N_8  and  C_10
REMARK    4  A    between atoms: C_10  and  C_11
REMARK    5  A    between atoms: C_10  and  C_12
REMARK    6  A    between atoms: C_10  and  C_13
REMARK    7  A    between atoms: C_13  and  N_14
REMARK    8  A    between atoms: N_17  and  N_18
REMARK    9  A    between atoms: C_19  and  C_21
REMARK                            x       y       z     vdW  Elec       q    Type
REMARK                         _______ _______ _______ _____ _____    ______ ____
ROOT
ATOM      1  N   UNL     1       2.001   1.661   3.436  0.00  0.00    -0.300 N 
ATOM      2  C   UNL     1       1.527   2.460   4.412  0.00  0.00    +0.316 C 
ATOM      3  O   UNL     1       1.211   1.985   5.486  0.00  0.00    -0.251 OA
ATOM      4  N   UNL     1       1.403   3.785   4.198  0.00  0.00    -0.218 N 
ATOM      5  H   UNL     1       2.253   2.039   2.579  0.00  0.00    +0.150 HD
ATOM      6  H   UNL     1       1.062   4.359   4.901  0.00  0.00    +0.174 HD
ENDROOT
BRANCH   4   7
ATOM      7  N   UNL     1       1.767   4.331   2.961  0.00  0.00    -0.233 N 
ATOM      8  C   UNL     1       1.643   5.656   2.747  0.00  0.00    +0.234 C 
ATOM      9  O   UNL     1       1.216   6.375   3.626  0.00  0.00    -0.274 OA
ATOM     10  H   UNL     1       2.109   3.756   2.258  0.00  0.00    +0.173 HD
BRANCH   8  11
ATOM     11  C   UNL     1       2.035   6.245   1.416  0.00  0.00    +0.099 C 
ATOM     12  C   UNL     1       3.530   5.996   1.158  0.00  0.00    +0.037 C 
ATOM     13  C   UNL     1       4.011   6.860  -0.033  0.00  0.00    +0.166 C 
ATOM     14  S   UNL     1       2.874   8.303   0.030  0.00  0.00    -0.030 S 
ATOM     15  O   UNL     1       2.101   8.336  -1.162  0.00  0.00    -0.174 OA
ATOM     16  O   UNL     1       3.610   9.455   0.418  0.00  0.00    -0.174 OA
ATOM     17  C   UNL     1       1.795   7.781   1.430  0.00  0.00    +0.178 C 
ENDBRANCH   8  11
ENDBRANCH   4   7
BRANCH   1  18
ATOM     18  C   UNL     1       2.136   0.221   3.668  0.00  0.00    +0.093 C 
BRANCH  18  19
ATOM     19  C   UNL     1       2.570  -0.467   2.372  0.00  0.00    -0.055 C 
ATOM     20  C   UNL     1       2.629  -1.980   2.592  0.00  0.00    -0.008 C 
ATOM     21  C   UNL     1       3.953   0.043   1.963  0.00  0.00    -0.008 C 
BRANCH  19  27
ATOM     22  C   UNL     1      -0.774   1.282   0.483  0.00  0.00    +0.005 C 
ATOM     23  C   UNL     1      -0.757  -0.239   0.650  0.00  0.00    -0.031 C 
ATOM     24  C   UNL     1      -0.373  -0.895  -0.679  0.00  0.00    +0.003 C 
ATOM     25  C   UNL     1       1.047  -0.466  -1.058  0.00  0.00    -0.031 C 
ATOM     26  C   UNL     1       2.007  -0.843   0.073  0.00  0.00    -0.075 C 
ATOM     27  N   UNL     1       1.602  -0.164   1.310  0.00  0.00    +0.384 N 
ATOM     28  C   UNL     1       0.269  -0.624   1.718  0.00  0.00    -0.075 C 
ATOM     29  C   UNL     1       1.470  -1.177  -2.345  0.00  0.00    +0.005 C 
ATOM     30  H   UNL     1       1.579   0.833   1.153  0.00  0.00    -0.081 HD
ENDBRANCH  19  27
ENDBRANCH  18  19
ENDBRANCH   1  18
TORSDOF 5
