REMARK  Name = ZINC63948437
REMARK  8 active torsions:
REMARK  status: ('A' for Active; 'I' for Inactive)
REMARK    1  A    between atoms: C_1  and  C_2
REMARK    2  A    between atoms: C_2  and  C_4
REMARK    3  A    between atoms: C_2  and  N_14
REMARK    4  A    between atoms: C_4  and  C_5
REMARK    5  A    between atoms: C_15  and  C_17
REMARK    6  A    between atoms: C_17  and  N_18
REMARK    7  A    between atoms: C_19  and  C_21
REMARK    8  A    between atoms: C_28  and  N_31
REMARK                            x       y       z     vdW  Elec       q    Type
REMARK                         _______ _______ _______ _____ _____    ______ ____
ROOT
ATOM      1  N   UNL     1       4.223  -1.127   2.126  0.00  0.00    -0.303 N 
ATOM      2  C   UNL     1       5.078  -1.542   3.081  0.00  0.00    +0.244 C 
ATOM      3  O   UNL     1       4.655  -1.893   4.166  0.00  0.00    -0.270 OA
ATOM      4  H   UNL     1       4.560  -0.847   1.261  0.00  0.00    +0.150 HD
ENDROOT
BRANCH   2   5
ATOM      5  C   UNL     1       6.528  -1.571   2.811  0.00  0.00    +0.038 A 
ATOM      6  C   UNL     1       7.030  -1.165   1.571  0.00  0.00    +0.015 A 
ATOM      7  C   UNL     1       8.376  -1.189   1.314  0.00  0.00    +0.025 A 
ATOM      8  C   UNL     1       9.302  -1.622   2.285  0.00  0.00    +0.043 A 
ATOM      9  C   UNL     1       8.774  -2.023   3.520  0.00  0.00    +0.033 A 
ATOM     10  C   UNL     1       7.429  -2.000   3.793  0.00  0.00    +0.029 A 
ATOM     11  S   UNL     1      10.184  -2.499   4.494  0.00  0.00    -0.079 S 
ATOM     12  C   UNL     1      11.487  -2.159   3.243  0.00  0.00    +0.237 C 
ATOM     13  N   UNL     1      10.678  -1.679   2.114  0.00  0.00    -0.314 N 
ATOM     14  H   UNL     1      11.091  -1.412   1.278  0.00  0.00    +0.149 HD
BRANCH  12  15
ATOM     15  N   UNL     1      12.211  -3.383   2.891  0.00  0.00    -0.326 N 
ATOM     16  C   UNL     1      11.864  -4.255   1.902  0.00  0.00    +0.088 A 
ATOM     17  C   UNL     1      12.770  -5.254   1.883  0.00  0.00    +0.019 A 
ATOM     18  C   UNL     1      13.712  -4.988   2.897  0.00  0.00    +0.019 A 
ATOM     19  C   UNL     1      13.348  -3.834   3.493  0.00  0.00    +0.088 A 
ENDBRANCH  12  15
ENDBRANCH   2   5
BRANCH   1  20
ATOM     20  C   UNL     1       2.783  -1.099   2.395  0.00  0.00    +0.200 C 
BRANCH  20  22
ATOM     21  N   UNL     1       0.711  -0.489   1.189  0.00  0.00    -0.311 N 
ATOM     22  C   UNL     1       2.054  -0.600   1.174  0.00  0.00    +0.230 C 
ATOM     23  O   UNL     1       2.676  -0.297   0.177  0.00  0.00    -0.274 OA
ATOM     24  H   UNL     1       0.213  -0.731   1.986  0.00  0.00    +0.149 HD
BRANCH  21  26
ATOM     25  C   UNL     1      -0.019   1.526   0.010  0.00  0.00    +0.028 C 
ATOM     26  C   UNL     1       0.002  -0.004   0.002  0.00  0.00    +0.074 C 
BRANCH  26  27
ATOM     27  C   UNL     1      -1.433  -0.534   0.013  0.00  0.00    +0.055 C 
BRANCH  27  28
ATOM     28  C   UNL     1      -1.416  -2.035  -0.119  0.00  0.00    -0.040 C 
ATOM     29  C   UNL     1      -1.463  -2.940   0.885  0.00  0.00    -0.001 A 
ATOM     30  C   UNL     1      -1.541  -2.803   2.344  0.00  0.00    +0.010 A 
ATOM     31  C   UNL     1      -1.574  -3.920   3.107  0.00  0.00    +0.001 A 
ATOM     32  C   UNL     1      -1.535  -5.201   2.540  0.00  0.00    +0.002 A 
ATOM     33  C   UNL     1      -1.463  -5.407   1.208  0.00  0.00    +0.026 A 
ATOM     34  C   UNL     1      -1.424  -4.304   0.311  0.00  0.00    +0.043 A 
ATOM     35  N   UNL     1      -1.355  -4.244  -0.997  0.00  0.00    -0.380 N 
ATOM     36  C   UNL     1      -1.349  -2.834  -1.401  0.00  0.00    +0.144 C 
ATOM     37  H   UNL     1      -1.318  -5.005  -1.597  0.00  0.00    +0.160 HD
ENDBRANCH  27  28
ENDBRANCH  26  27
ENDBRANCH  21  26
ENDBRANCH  20  22
ENDBRANCH   1  20
TORSDOF 7
