REMARK  Name = ZINC65149248
REMARK  7 active torsions:
REMARK  status: ('A' for Active; 'I' for Inactive)
REMARK    1  A    between atoms: C_1  and  C_2
REMARK    2  A    between atoms: C_2  and  C_3
REMARK    3  A    between atoms: C_6  and  C_9
REMARK    4  A    between atoms: C_11  and  N_15
REMARK    5  A    between atoms: C_12  and  C_14
REMARK    6  A    between atoms: C_16  and  C_18
REMARK    7  A    between atoms: C_18  and  C_19
REMARK                            x       y       z     vdW  Elec       q    Type
REMARK                         _______ _______ _______ _____ _____    ______ ____
ROOT
ATOM      1  N   UNL     1      -4.714  -5.762  -2.817  0.00  0.00    -0.285 N 
ATOM      2  C   UNL     1      -4.016  -6.726  -2.186  0.00  0.00    +0.221 C 
ATOM      3  O   UNL     1      -3.170  -6.427  -1.370  0.00  0.00    -0.275 OA
ATOM      4  H   UNL     1      -5.432  -6.001  -3.424  0.00  0.00    +0.155 HD
ENDROOT
BRANCH   1   7
ATOM      5  C   UNL     1      -3.667  -2.668  -1.179  0.00  0.00    +0.052 A 
ATOM      6  C   UNL     1      -3.959  -3.979  -1.355  0.00  0.00    +0.040 A 
ATOM      7  C   UNL     1      -4.402  -4.408  -2.597  0.00  0.00    +0.044 A 
ATOM      8  C   UNL     1      -4.527  -3.497  -3.598  0.00  0.00    +0.008 A 
ATOM      9  S   UNL     1      -4.022  -1.987  -2.790  0.00  0.00    -0.091 S 
ATOM     10  C   UNL     1      -4.981  -3.706  -5.020  0.00  0.00    +0.053 C 
BRANCH   5  14
ATOM     11  C   UNL     1      -1.443  -0.527   0.052  0.00  0.00    +0.207 C 
ATOM     12  N   UNL     1      -2.486   0.216   0.076  0.00  0.00    -0.150 NA
ATOM     13  N   UNL     1      -3.649  -0.569   0.084  0.00  0.00    -0.224 N 
ATOM     14  C   UNL     1      -3.175  -1.964   0.060  0.00  0.00    +0.315 C 
ATOM     15  O   UNL     1      -1.745  -1.845   0.034  0.00  0.00    -0.451 OA
ATOM     16  H   UNL     1      -4.568  -0.259   0.102  0.00  0.00    +0.172 HD
BRANCH  11  18
ATOM     17  C   UNL     1      -0.070   1.538   0.064  0.00  0.00    +0.013 C 
ATOM     18  C   UNL     1      -0.034   0.008   0.038  0.00  0.00    +0.093 C 
ENDBRANCH  11  18
ENDBRANCH   5  14
ENDBRANCH   1   7
BRANCH   2  19
ATOM     19  C   UNL     1      -4.288  -8.177  -2.492  0.00  0.00    +0.129 C 
BRANCH  19  20
ATOM     20  C   UNL     1      -3.381  -9.044  -1.658  0.00  0.00    -0.033 C 
ATOM     21  C   UNL     1      -3.673  -9.620  -0.469  0.00  0.00    -0.001 A 
ATOM     22  C   UNL     1      -4.877  -9.610   0.371  0.00  0.00    +0.010 A 
ATOM     23  C   UNL     1      -4.869 -10.296   1.536  0.00  0.00    +0.001 A 
ATOM     24  C   UNL     1      -3.743 -11.015   1.961  0.00  0.00    +0.002 A 
ATOM     25  C   UNL     1      -2.601 -11.072   1.243  0.00  0.00    +0.026 A 
ATOM     26  C   UNL     1      -2.498 -10.387   0.001  0.00  0.00    +0.043 A 
ATOM     27  N   UNL     1      -1.517 -10.290  -0.864  0.00  0.00    -0.380 N 
ATOM     28  C   UNL     1      -1.962  -9.454  -1.984  0.00  0.00    +0.145 C 
ATOM     29  H   UNL     1      -0.644 -10.704  -0.779  0.00  0.00    +0.160 HD
ENDBRANCH  19  20
ENDBRANCH   2  19
TORSDOF 5
