REMARK  Name = ZINC04801099
REMARK  9 active torsions:
REMARK  status: ('A' for Active; 'I' for Inactive)
REMARK    1  A    between atoms: C_1  and  C_2
REMARK    2  A    between atoms: C_5  and  C_36
REMARK    3  A    between atoms: C_6  and  N_8
REMARK    4  A    between atoms: C_13  and  C_14
REMARK    5  A    between atoms: C_13  and  N_66
REMARK    6  A    between atoms: C_19  and  N_33
REMARK    7  A    between atoms: N_24  and  C_25
REMARK    8  A    between atoms: C_29  and  O_31
REMARK    9  A    between atoms: O_31  and  C_32
REMARK                            x       y       z     vdW  Elec       q    Type
REMARK                         _______ _______ _______ _____ _____    ______ ____
ROOT
ATOM      1  C   UNL     1      -1.263   5.902  -0.058  0.00  0.00    +0.101 A 
ATOM      2  N   UNL     1      -1.338   7.179  -0.276  0.00  0.00    -0.235 NA
ATOM      3  C   UNL     1      -0.244   7.979  -0.200  0.00  0.00    +0.078 A 
ATOM      4  C   UNL     1      -0.324   9.353  -0.434  0.00  0.00    +0.031 A 
ATOM      5  C   UNL     1       0.811  10.127  -0.346  0.00  0.00    +0.035 A 
ATOM      6  C   UNL     1       2.037   9.558  -0.027  0.00  0.00    +0.127 A 
ATOM      7  C   UNL     1       2.142   8.204   0.208  0.00  0.00    +0.048 A 
ATOM      8  C   UNL     1       1.004   7.403   0.124  0.00  0.00    +0.067 A 
ATOM      9  C   UNL     1       1.054   5.955   0.370  0.00  0.00    +0.266 A 
ATOM     10  O   UNL     1       2.098   5.398   0.658  0.00  0.00    -0.267 OA
ATOM     11  N   UNL     1      -0.104   5.264   0.260  0.00  0.00    -0.266 N 
ENDROOT
BRANCH  11  12
ATOM     12  C   UNL     1      -0.111   3.880   0.480  0.00  0.00    +0.055 A 
ATOM     13  C   UNL     1       0.048   3.006  -0.588  0.00  0.00    +0.026 A 
ATOM     14  C   UNL     1       0.048   1.642  -0.370  0.00  0.00    +0.006 A 
ATOM     15  C   UNL     1      -0.122   1.143   0.908  0.00  0.00    +0.046 A 
ATOM     16  C   UNL     1      -0.281   2.013   1.978  0.00  0.00    +0.122 A 
ATOM     17  C   UNL     1      -0.276   3.382   1.764  0.00  0.00    +0.072 A 
BRANCH  16  18
ATOM     18  O   UNL     1      -0.442   1.522   3.235  0.00  0.00    -0.495 OA
ATOM     19  C   UNL     1      -0.437   0.100   3.382  0.00  0.00    +0.277 C 
ENDBRANCH  16  18
ENDBRANCH  11  12
BRANCH   6  20
ATOM     20  N   UNL     1       3.242  10.413   0.061  0.00  0.00    +0.056 N 
ATOM     21  O   UNL     1       4.320   9.919   0.340  0.00  0.00    -0.126 OA
ATOM     22  O   UNL     1       3.156  11.610  -0.146  0.00  0.00    -0.126 OA
ENDBRANCH   6  20
BRANCH   1  23
ATOM     23  C   UNL     1      -2.525   5.084  -0.161  0.00  0.00    -0.003 C 
BRANCH  23  29
ATOM     24  N   UNL     1      -6.260   7.025   0.194  0.00  0.00    -0.333 N 
ATOM     25  C   UNL     1      -6.031   6.183  -0.989  0.00  0.00    +0.086 C 
ATOM     26  C   UNL     1      -4.881   5.213  -0.706  0.00  0.00    -0.059 C 
ATOM     27  C   UNL     1      -3.901   6.819   0.817  0.00  0.00    -0.059 C 
ATOM     28  C   UNL     1      -5.052   7.789   0.535  0.00  0.00    +0.086 C 
ATOM     29  N   UNL     1      -3.667   5.995  -0.387  0.00  0.00    +0.386 N 
ATOM     30  H   UNL     1      -3.450   6.612  -1.177  0.00  0.00    -0.081 HD
BRANCH  24  36
ATOM     31  C   UNL     1      -8.410  10.632  -2.359  0.00  0.00    +0.044 C 
ATOM     32  C   UNL     1      -8.421   9.633  -1.231  0.00  0.00    -0.049 A 
ATOM     33  C   UNL     1      -9.514   9.557  -0.386  0.00  0.00    +0.004 A 
ATOM     34  C   UNL     1      -9.528   8.642   0.650  0.00  0.00    +0.005 A 
ATOM     35  C   UNL     1      -8.452   7.797   0.843  0.00  0.00    -0.029 A 
ATOM     36  C   UNL     1      -7.351   7.874  -0.001  0.00  0.00    +0.033 A 
ATOM     37  C   UNL     1      -7.340   8.795  -1.041  0.00  0.00    +0.026 A 
ATOM     38  C   UNL     1      -8.471   6.796   1.969  0.00  0.00    +0.045 C 
ENDBRANCH  24  36
ENDBRANCH  23  29
ENDBRANCH   1  23
TORSDOF 6
