REMARK  Name = ZINC36545237
REMARK  12 active torsions:
REMARK  status: ('A' for Active; 'I' for Inactive)
REMARK    1  A    between atoms: C_1  and  C_2
REMARK    2  A    between atoms: C_2  and  C_3
REMARK    3  A    between atoms: C_3  and  C_4
REMARK    4  A    between atoms: C_3  and  C_6
REMARK    5  A    between atoms: C_4  and  C_5
REMARK    6  A    between atoms: C_6  and  C_8
REMARK    7  A    between atoms: C_6  and  N_17
REMARK    8  A    between atoms: N_10  and  C_11
REMARK    9  A    between atoms: N_17  and  C_18
REMARK   10  A    between atoms: C_25  and  C_27
REMARK   11  A    between atoms: C_28  and  O_34
REMARK   12  A    between atoms: C_32  and  O_33
REMARK                            x       y       z     vdW  Elec       q    Type
REMARK                         _______ _______ _______ _____ _____    ______ ____
ROOT
ATOM      1  N   UNL     1       2.761   1.284   0.802  0.00  0.00    -0.254 N 
ATOM      2  C   UNL     1       2.395   2.281  -0.028  0.00  0.00    +0.259 C 
ATOM      3  O   UNL     1       2.038   2.028  -1.163  0.00  0.00    -0.269 OA
ENDROOT
BRANCH   1   4
ATOM      4  C   UNL     1       3.052   1.561   2.142  0.00  0.00    +0.056 A 
ATOM      5  C   UNL     1       4.364   1.784   2.538  0.00  0.00    +0.025 A 
ATOM      6  C   UNL     1       4.648   2.058   3.861  0.00  0.00    +0.002 A 
ATOM      7  C   UNL     1       3.628   2.109   4.793  0.00  0.00    +0.002 A 
ATOM      8  C   UNL     1       2.320   1.887   4.404  0.00  0.00    +0.022 A 
ATOM      9  C   UNL     1       2.027   1.619   3.080  0.00  0.00    +0.062 A 
ATOM     10 CL   UNL     1       0.384   1.347   2.590  0.00  0.00    -0.082 Cl
ENDBRANCH   1   4
BRANCH   2  11
ATOM     11  C   UNL     1       2.429   3.677   0.439  0.00  0.00    +0.120 A 
ATOM     12  C   UNL     1       3.649   4.363   0.528  0.00  0.00    +0.133 A 
ATOM     13  C   UNL     1       3.669   5.676   0.968  0.00  0.00    +0.046 A 
ATOM     14  C   UNL     1       2.492   6.311   1.320  0.00  0.00    +0.007 A 
ATOM     15  C   UNL     1       1.283   5.644   1.236  0.00  0.00    +0.046 A 
ATOM     16  C   UNL     1       1.240   4.332   0.792  0.00  0.00    +0.133 A 
BRANCH  16  17
ATOM     17  O   UNL     1       0.052   3.682   0.705  0.00  0.00    -0.506 OA
ATOM     18  H   UNL     1      -0.218   3.245   1.524  0.00  0.00    +0.292 HD
ENDBRANCH  16  17
BRANCH  12  19
ATOM     19  O   UNL     1       4.805   3.743   0.185  0.00  0.00    -0.506 OA
ATOM     20  H   UNL     1       5.044   3.843  -0.747  0.00  0.00    +0.292 HD
ENDBRANCH  12  19
ENDBRANCH   2  11
BRANCH   1  21
ATOM     21  C   UNL     1       2.853  -0.089   0.301  0.00  0.00    +0.170 C 
BRANCH  21  22
ATOM     22  C   UNL     1       4.146  -0.708   0.767  0.00  0.00    +0.234 C 
ATOM     23  O   UNL     1       4.883  -0.089   1.505  0.00  0.00    -0.274 OA
ATOM     24  N   UNL     1       4.483  -1.949   0.363  0.00  0.00    -0.311 N 
ATOM     25  H   UNL     1       3.930  -2.416  -0.282  0.00  0.00    +0.149 HD
BRANCH  24  26
ATOM     26  C   UNL     1       5.686  -2.592   0.898  0.00  0.00    +0.073 C 
ATOM     27  C   UNL     1       6.904  -2.154   0.083  0.00  0.00    +0.022 C 
ATOM     28  C   UNL     1       8.160  -2.826   0.643  0.00  0.00    +0.002 C 
ATOM     29  C   UNL     1       8.007  -4.346   0.555  0.00  0.00    +0.000 C 
ATOM     30  C   UNL     1       6.789  -4.784   1.371  0.00  0.00    +0.002 C 
ATOM     31  C   UNL     1       5.533  -4.112   0.811  0.00  0.00    +0.022 C 
ENDBRANCH  24  26
ENDBRANCH  21  22
BRANCH  21  32
ATOM     32  C   UNL     1       1.675  -0.907   0.834  0.00  0.00    +0.018 C 
BRANCH  32  34
ATOM     33  C   UNL     1       2.673  -2.251   2.689  0.00  0.00    +0.004 C 
ATOM     34  C   UNL     1       1.795  -1.044   2.353  0.00  0.00    +0.002 C 
ENDBRANCH  32  34
BRANCH  32  35
ATOM     35  C   UNL     1       0.364  -0.199   0.487  0.00  0.00    +0.002 C 
ATOM     36  C   UNL     1       0.108  -0.306  -1.017  0.00  0.00    +0.004 C 
ENDBRANCH  32  35
ENDBRANCH  21  32
ENDBRANCH   1  21
TORSDOF 10
