REMARK  Name = ZINC57308076
REMARK  6 active torsions:
REMARK  status: ('A' for Active; 'I' for Inactive)
REMARK    1  A    between atoms: C_1  and  C_2
REMARK    2  A    between atoms: C_4  and  C_26
REMARK    3  A    between atoms: C_6  and  C_19
REMARK    4  A    between atoms: N_9  and  C_11
REMARK    5  A    between atoms: N_28  and  C_29
REMARK    6  A    between atoms: C_35  and  C_37
REMARK                            x       y       z     vdW  Elec       q    Type
REMARK                         _______ _______ _______ _____ _____    ______ ____
ROOT
ATOM      1  C   UNL     1      -0.198   1.498   0.022  0.00  0.00    +0.068 C 
ATOM      2  C   UNL     1      -0.147  -0.008   0.012  0.00  0.00    +0.070 A 
ATOM      3  C   UNL     1      -0.162  -0.824  -1.139  0.00  0.00    +0.054 A 
ATOM      4  C   UNL     1      -0.223  -0.557  -2.526  0.00  0.00    +0.051 A 
ATOM      5  C   UNL     1      -0.220  -1.639  -3.399  0.00  0.00    +0.042 A 
ATOM      6  C   UNL     1      -0.156  -2.936  -2.879  0.00  0.00    +0.074 A 
ATOM      7  N   UNL     1      -0.100  -3.155  -1.576  0.00  0.00    -0.228 NA
ATOM      8  C   UNL     1      -0.100  -2.162  -0.699  0.00  0.00    +0.160 A 
ATOM      9  N   UNL     1      -0.050  -2.116   0.670  0.00  0.00    -0.241 N 
ATOM     10  N   UNL     1      -0.076  -0.773   1.063  0.00  0.00    -0.174 NA
ENDROOT
BRANCH   9  11
ATOM     11  C   UNL     1       0.022  -3.273   1.567  0.00  0.00    +0.132 C 
ATOM     12  C   UNL     1       1.302  -3.183   2.414  0.00  0.00    +0.051 C 
ATOM     13  C   UNL     1       1.201  -4.231   3.558  0.00  0.00    +0.168 C 
ATOM     14  S   UNL     1      -0.569  -4.041   4.034  0.00  0.00    -0.029 S 
ATOM     15  O   UNL     1      -0.665  -3.092   5.088  0.00  0.00    -0.174 OA
ATOM     16  O   UNL     1      -1.145  -5.329   4.200  0.00  0.00    -0.174 OA
ATOM     17  C   UNL     1      -1.220  -3.286   2.490  0.00  0.00    +0.192 C 
ENDBRANCH   9  11
BRANCH   6  18
ATOM     18  C   UNL     1      -0.152  -4.091  -3.809  0.00  0.00    +0.001 A 
ATOM     19  C   UNL     1      -0.205  -3.880  -5.186  0.00  0.00    +0.013 A 
ATOM     20  C   UNL     1      -0.201  -4.957  -6.048  0.00  0.00    +0.039 A 
ATOM     21  C   UNL     1      -0.143  -6.248  -5.546  0.00  0.00    +0.123 A 
ATOM     22  C   UNL     1      -0.091  -6.462  -4.178  0.00  0.00    +0.039 A 
ATOM     23  C   UNL     1      -0.089  -5.391  -3.309  0.00  0.00    +0.013 A 
ATOM     24  F   UNL     1      -0.139  -7.300  -6.394  0.00  0.00    -0.205 F 
ENDBRANCH   6  18
BRANCH   4  25
ATOM     25  C   UNL     1      -0.290   0.830  -3.034  0.00  0.00    +0.245 C 
ATOM     26  O   UNL     1       0.354   1.707  -2.492  0.00  0.00    -0.270 OA
ATOM     27  N   UNL     1      -1.065   1.123  -4.097  0.00  0.00    -0.308 N 
ATOM     28  H   UNL     1      -1.579   0.423  -4.529  0.00  0.00    +0.149 HD
BRANCH  27  29
ATOM     29  C   UNL     1      -1.131   2.497  -4.599  0.00  0.00    +0.076 C 
ATOM     30  C   UNL     1       0.031   2.744  -5.564  0.00  0.00    +0.022 C 
ATOM     31  C   UNL     1      -0.038   4.180  -6.088  0.00  0.00    +0.002 C 
ATOM     32  C   UNL     1      -1.364   4.391  -6.822  0.00  0.00    +0.000 C 
ATOM     33  C   UNL     1      -2.526   4.144  -5.858  0.00  0.00    +0.005 C 
ATOM     34  C   UNL     1      -2.457   2.709  -5.333  0.00  0.00    +0.006 C 
ATOM     35  C   UNL     1      -3.619   2.462  -4.369  0.00  0.00    +0.009 C 
ENDBRANCH  27  29
ENDBRANCH   4  25
TORSDOF 4
