REMARK  Name = ZINC11786588
REMARK  9 active torsions:
REMARK  status: ('A' for Active; 'I' for Inactive)
REMARK    1  A    between atoms: C_1  and  O_2
REMARK    2  A    between atoms: O_2  and  C_3
REMARK    3  A    between atoms: C_6  and  S_9
REMARK    4  A    between atoms: S_9  and  C_10
REMARK    5  A    between atoms: C_13  and  C_25
REMARK    6  A    between atoms: C_16  and  C_17
REMARK    7  A    between atoms: C_16  and  N_62
REMARK    8  A    between atoms: N_27  and  C_28
REMARK    9  A    between atoms: C_28  and  C_29
REMARK                            x       y       z     vdW  Elec       q    Type
REMARK                         _______ _______ _______ _____ _____    ______ ____
ROOT
ATOM      1  C   UNL     1       3.893   2.038   0.155  0.00  0.00    +0.034 C 
ATOM      2  C   UNL     1       5.332   1.507  -0.035  0.00  0.00    +0.006 C 
ATOM      3  C   UNL     1       6.218   2.432   0.821  0.00  0.00    +0.021 C 
ATOM      4  C   UNL     1       3.983   2.814   1.493  0.00  0.00    -0.063 C 
ATOM      5  N   UNL     1       5.315   3.426   1.413  0.00  0.00    +0.391 N 
ATOM      6  H   UNL     1       5.277   4.260   0.815  0.00  0.00    -0.080 HD
ENDROOT
BRANCH   3   7
ATOM      7  C   UNL     1       7.244   3.110  -0.050  0.00  0.00    +0.200 C 
ATOM      8  O   UNL     1       7.255   4.319  -0.146  0.00  0.00    -0.278 OA
ATOM      9  N   UNL     1       8.150   2.372  -0.722  0.00  0.00    -0.311 N 
ATOM     10  H   UNL     1       8.142   1.405  -0.645  0.00  0.00    +0.149 HD
BRANCH   9  11
ATOM     11  C   UNL     1       9.148   3.031  -1.569  0.00  0.00    +0.161 C 
BRANCH  11  12
ATOM     12  C   UNL     1      10.034   1.991  -2.203  0.00  0.00    +0.077 A 
ATOM     13  C   UNL     1       9.865   1.454  -3.432  0.00  0.00    +0.117 A 
ATOM     14  N   UNL     1      10.879   0.555  -3.623  0.00  0.00    -0.306 N 
ATOM     15  C   UNL     1      11.201  -0.265  -4.665  0.00  0.00    +0.092 A 
ATOM     16  C   UNL     1      12.280  -1.073  -4.596  0.00  0.00    +0.018 A 
ATOM     17  C   UNL     1      13.088  -1.079  -3.447  0.00  0.00    +0.005 A 
ATOM     18  C   UNL     1      12.778  -0.267  -2.401  0.00  0.00    +0.047 A 
ATOM     19  C   UNL     1      11.648   0.571  -2.489  0.00  0.00    +0.138 A 
ATOM     20  N   UNL     1      11.121   1.450  -1.648  0.00  0.00    -0.231 NA
ENDBRANCH  11  12
ENDBRANCH   9  11
ENDBRANCH   3   7
BRANCH   1  21
ATOM     21  S   UNL     1       2.715   0.665   0.288  0.00  0.00    -0.124 S 
BRANCH  21  25
ATOM     22  C   UNL     1      -1.330   2.703   0.444  0.00  0.00    +0.120 A 
ATOM     23  C   UNL     1      -1.248   1.319   0.495  0.00  0.00    +0.047 A 
ATOM     24  C   UNL     1      -0.016   0.697   0.453  0.00  0.00    +0.018 A 
ATOM     25  C   UNL     1       1.142   1.458   0.348  0.00  0.00    +0.008 A 
ATOM     26  C   UNL     1       1.059   2.843   0.292  0.00  0.00    +0.018 A 
ATOM     27  C   UNL     1      -0.174   3.463   0.339  0.00  0.00    +0.047 A 
BRANCH  22  29
ATOM     28  C   UNL     1      -3.692   2.470   0.598  0.00  0.00    +0.277 C 
ATOM     29  O   UNL     1      -2.544   3.314   0.491  0.00  0.00    -0.495 OA
ENDBRANCH  22  29
ENDBRANCH  21  25
ENDBRANCH   1  21
BRANCH   5  30
ATOM     30  C   UNL     1       5.797   3.817   2.772  0.00  0.00    -0.039 C 
BRANCH  30  31
ATOM     31  C   UNL     1       4.811   4.767   3.402  0.00  0.00    -0.026 A 
ATOM     32  C   UNL     1       3.967   4.323   4.403  0.00  0.00    +0.043 A 
ATOM     33  C   UNL     1       3.064   5.196   4.984  0.00  0.00    +0.124 A 
ATOM     34  C   UNL     1       2.999   6.512   4.557  0.00  0.00    +0.041 A 
ATOM     35  C   UNL     1       3.839   6.954   3.553  0.00  0.00    +0.041 A 
ATOM     36  C   UNL     1       4.745   6.082   2.974  0.00  0.00    +0.125 A 
ATOM     37  F   UNL     1       5.566   6.514   1.992  0.00  0.00    -0.205 F 
ATOM     38  F   UNL     1       2.242   4.763   5.965  0.00  0.00    -0.205 F 
ENDBRANCH  30  31
ENDBRANCH   5  30
TORSDOF 8
