REMARK  Name = ZINC35921397
REMARK  13 active torsions:
REMARK  status: ('A' for Active; 'I' for Inactive)
REMARK    1  A    between atoms: C_1  and  O_2
REMARK    2  A    between atoms: O_2  and  C_3
REMARK    3  A    between atoms: C_3  and  C_4
REMARK    4  A    between atoms: C_4  and  N_5
REMARK    5  A    between atoms: N_5  and  C_6
REMARK    6  A    between atoms: C_6  and  C_7
REMARK    7  A    between atoms: N_10  and  C_12
REMARK    8  A    between atoms: C_17  and  O_18
REMARK    9  A    between atoms: O_18  and  C_19
REMARK   10  A    between atoms: N_22  and  C_24
REMARK   11  A    between atoms: C_24  and  C_25
REMARK   12  A    between atoms: C_27  and  C_29
REMARK   13  A    between atoms: C_33  and  C_35
REMARK                            x       y       z     vdW  Elec       q    Type
REMARK                         _______ _______ _______ _____ _____    ______ ____
ROOT
ATOM      1  C   UNL     1      -1.982  -3.357   2.603  0.00  0.00    +0.082 A 
ATOM      2  C   UNL     1      -3.313  -3.241   2.215  0.00  0.00    -0.018 A 
ATOM      3  C   UNL     1      -3.818  -4.497   2.071  0.00  0.00    +0.045 A 
ATOM      4  N   UNL     1      -2.839  -5.370   2.355  0.00  0.00    -0.233 N 
ATOM      5  N   UNL     1      -1.690  -4.634   2.684  0.00  0.00    -0.169 NA
ATOM      6  C   UNL     1      -5.246  -4.764   1.665  0.00  0.00    +0.037 C 
ATOM      7  C   UNL     1      -6.033  -3.457   1.843  0.00  0.00    -0.072 C 
ATOM      8  N   UNL     1      -5.314  -2.354   1.191  0.00  0.00    +0.385 N 
ATOM      9  C   UNL     1      -4.120  -1.992   1.973  0.00  0.00    -0.039 C 
ATOM     10  H   UNL     1      -5.034  -2.639   0.265  0.00  0.00    -0.081 HD
ENDROOT
BRANCH   4  11
ATOM     11  C   UNL     1      -2.945  -6.769   2.323  0.00  0.00    +0.107 A 
ATOM     12  C   UNL     1      -3.510  -7.399   1.224  0.00  0.00    +0.031 A 
ATOM     13  C   UNL     1      -3.612  -8.777   1.195  0.00  0.00    +0.002 A 
ATOM     14  C   UNL     1      -3.153  -9.531   2.260  0.00  0.00    +0.004 A 
ATOM     15  C   UNL     1      -2.589  -8.910   3.359  0.00  0.00    +0.048 A 
ATOM     16  C   UNL     1      -2.477  -7.529   3.393  0.00  0.00    +0.145 A 
BRANCH  16  17
ATOM     17  O   UNL     1      -1.917  -6.917   4.470  0.00  0.00    -0.493 OA
ATOM     18  C   UNL     1      -1.460  -7.760   5.530  0.00  0.00    +0.277 C 
ENDBRANCH  16  17
ENDBRANCH   4  11
BRANCH   1  19
ATOM     19  C   UNL     1      -1.038  -2.215   2.876  0.00  0.00    +0.165 C 
BRANCH  19  20
ATOM     20  N   UNL     1      -0.251  -1.932   1.673  0.00  0.00    -0.289 N 
ATOM     21  C   UNL     1       0.869  -2.637   1.419  0.00  0.00    +0.247 C 
ATOM     22  O   UNL     1       1.162  -3.586   2.120  0.00  0.00    -0.270 OA
BRANCH  21  23
ATOM     23  C   UNL     1       1.742  -2.256   0.288  0.00  0.00    +0.038 A 
ATOM     24  C   UNL     1       3.079  -1.925   0.517  0.00  0.00    +0.013 A 
ATOM     25  C   UNL     1       3.896  -1.568  -0.538  0.00  0.00    +0.002 A 
ATOM     26  C   UNL     1       3.398  -1.537  -1.825  0.00  0.00    +0.019 A 
ATOM     27  C   UNL     1       2.062  -1.867  -2.069  0.00  0.00    +0.052 A 
ATOM     28  C   UNL     1       1.234  -2.233  -1.009  0.00  0.00    +0.032 A 
BRANCH  27  29
ATOM     29  C   UNL     1       1.546  -1.835  -3.404  0.00  0.00    +0.099 C 
ATOM     30  N   UNL     1       1.137  -1.809  -4.464  0.00  0.00    -0.191 NA
ENDBRANCH  27  29
ENDBRANCH  21  23
BRANCH  20  31
ATOM     31  C   UNL     1      -0.683  -0.884   0.745  0.00  0.00    +0.136 C 
BRANCH  31  32
ATOM     32  C   UNL     1      -0.168   0.472   1.232  0.00  0.00    +0.178 C 
BRANCH  32  34
ATOM     33  C   UNL     1       1.846   1.714   1.617  0.00  0.00    +0.194 C 
ATOM     34  O   UNL     1       1.260   0.486   1.181  0.00  0.00    -0.381 OA
ENDBRANCH  32  34
ENDBRANCH  31  32
ENDBRANCH  20  31
ENDBRANCH  19  20
ENDBRANCH   1  19
BRANCH   8  35
ATOM     35  C   UNL     1      -6.202  -1.188   1.091  0.00  0.00    -0.051 C 
BRANCH  35  36
ATOM     36  C   UNL     1      -7.354  -1.511   0.175  0.00  0.00    -0.053 C 
ATOM     37  C   UNL     1      -8.586  -1.365   0.595  0.00  0.00    +0.002 C 
ENDBRANCH  35  36
ENDBRANCH   8  35
TORSDOF 11
