REMARK  Name = ZINC40729718
REMARK  8 active torsions:
REMARK  status: ('A' for Active; 'I' for Inactive)
REMARK    1  A    between atoms: C_1  and  C_2
REMARK    2  A    between atoms: C_6  and  N_9
REMARK    3  A    between atoms: C_7  and  C_8
REMARK    4  A    between atoms: C_11  and  N_35
REMARK    5  A    between atoms: C_12  and  N_16
REMARK    6  A    between atoms: N_19  and  C_22
REMARK    7  A    between atoms: C_22  and  C_23
REMARK    8  A    between atoms: C_22  and  C_29
REMARK                            x       y       z     vdW  Elec       q    Type
REMARK                         _______ _______ _______ _____ _____    ______ ____
ROOT
ATOM      1  N   UNL     1       2.392  -4.701   1.119  0.00  0.00    -0.298 N 
ATOM      2  C   UNL     1       1.233  -5.043   1.808  0.00  0.00    +0.149 A 
ATOM      3  C   UNL     1       1.307  -5.716   3.029  0.00  0.00    +0.106 A 
ATOM      4  C   UNL     1       0.114  -6.035   3.679  0.00  0.00    +0.147 A 
ATOM      5  N   UNL     1      -1.041  -5.687   3.115  0.00  0.00    -0.219 NA
ATOM      6  C   UNL     1      -1.066  -5.052   1.961  0.00  0.00    +0.225 A 
ATOM      7  N   UNL     1       0.037  -4.728   1.317  0.00  0.00    -0.219 NA
ATOM      8  H   UNL     1       3.255  -5.005   1.441  0.00  0.00    +0.154 HD
ENDROOT
BRANCH   1  14
ATOM      9  C   UNL     1       4.323  -3.291  -3.175  0.00  0.00    +0.044 C 
ATOM     10  C   UNL     1       3.235  -3.216  -2.135  0.00  0.00    -0.046 A 
ATOM     11  C   UNL     1       2.155  -2.372  -2.325  0.00  0.00    +0.004 A 
ATOM     12  C   UNL     1       1.155  -2.300  -1.374  0.00  0.00    +0.002 A 
ATOM     13  C   UNL     1       1.230  -3.071  -0.230  0.00  0.00    +0.023 A 
ATOM     14  C   UNL     1       2.312  -3.920  -0.037  0.00  0.00    +0.036 A 
ATOM     15  C   UNL     1       3.314  -3.993  -0.997  0.00  0.00    -0.026 A 
ATOM     16  C   UNL     1       4.487  -4.917  -0.794  0.00  0.00    +0.046 C 
ENDBRANCH   1  14
BRANCH   4  17
ATOM     17  N   UNL     1       0.130  -6.705   4.897  0.00  0.00    -0.311 N 
ATOM     18  C   UNL     1       0.279  -5.968   6.162  0.00  0.00    +0.122 C 
ATOM     19  C   UNL     1      -0.840  -6.406   7.114  0.00  0.00    +0.104 C 
ATOM     20  N   UNL     1      -0.825  -7.870   7.241  0.00  0.00    -0.289 NA
ATOM     21  C   UNL     1      -1.107  -8.520   5.954  0.00  0.00    +0.104 C 
ATOM     22  C   UNL     1      -0.006  -8.168   4.955  0.00  0.00    +0.122 C 
BRANCH  20  23
ATOM     23  C   UNL     1      -1.767  -8.317   8.275  0.00  0.00    +0.117 C 
BRANCH  23  24
ATOM     24  C   UNL     1      -1.724  -9.820   8.377  0.00  0.00    -0.026 A 
ATOM     25  C   UNL     1      -0.515 -10.484   8.296  0.00  0.00    +0.005 A 
ATOM     26  C   UNL     1      -0.475 -11.863   8.390  0.00  0.00    +0.000 A 
ATOM     27  C   UNL     1      -1.646 -12.577   8.565  0.00  0.00    +0.000 A 
ATOM     28  C   UNL     1      -2.855 -11.913   8.646  0.00  0.00    +0.000 A 
ATOM     29  C   UNL     1      -2.894 -10.534   8.557  0.00  0.00    +0.005 A 
ENDBRANCH  23  24
BRANCH  23  30
ATOM     30  C   UNL     1      -1.383  -7.713   9.601  0.00  0.00    -0.026 A 
ATOM     31  C   UNL     1      -0.050  -7.611   9.954  0.00  0.00    +0.005 A 
ATOM     32  C   UNL     1       0.302  -7.056  11.170  0.00  0.00    +0.000 A 
ATOM     33  C   UNL     1      -0.678  -6.603  12.033  0.00  0.00    +0.000 A 
ATOM     34  C   UNL     1      -2.011  -6.704  11.680  0.00  0.00    +0.000 A 
ATOM     35  C   UNL     1      -2.363  -7.255  10.462  0.00  0.00    +0.005 A 
ENDBRANCH  23  30
ENDBRANCH  20  23
ENDBRANCH   4  17
BRANCH   3  36
ATOM     36  N   UNL     1       2.548  -6.063   3.587  0.00  0.00    -0.353 N 
ATOM     37  H   UNL     1       3.370  -5.772   3.162  0.00  0.00    +0.143 HD
ATOM     38  H   UNL     1       2.583  -6.594   4.399  0.00  0.00    +0.143 HD
ENDBRANCH   3  36
TORSDOF 6
