REMARK  Name = ZINC06752832
REMARK  8 active torsions:
REMARK  status: ('A' for Active; 'I' for Inactive)
REMARK    1  A    between atoms: C_1  and  O_2
REMARK    2  A    between atoms: O_2  and  C_3
REMARK    3  A    between atoms: C_3  and  C_4
REMARK    4  A    between atoms: C_4  and  C_5
REMARK    5  A    between atoms: C_5  and  N_6
REMARK    6  A    between atoms: C_7  and  C_24
REMARK    7  A    between atoms: C_10  and  C_17
REMARK    8  A    between atoms: C_22  and  O_23
REMARK                            x       y       z     vdW  Elec       q    Type
REMARK                         _______ _______ _______ _____ _____    ______ ____
ROOT
ATOM      1  N   UNL     1       1.272  -4.165  -2.169  0.00  0.00    -0.285 N 
ATOM      2  C   UNL     1       2.283  -5.012  -1.524  0.00  0.00    +0.141 C 
ATOM      3  C   UNL     1       1.805  -6.428  -1.686  0.00  0.00    +0.035 A 
ATOM      4  C   UNL     1       2.038  -7.787  -1.446  0.00  0.00    +0.102 A 
ATOM      5  N   UNL     1       1.032  -8.459  -1.970  0.00  0.00    -0.173 NA
ATOM      6  N   UNL     1       0.186  -7.659  -2.516  0.00  0.00    -0.272 N 
ATOM      7  H   UNL     1      -0.631  -7.932  -2.961  0.00  0.00    +0.189 HD
ATOM      8  C   UNL     1       0.609  -6.368  -2.375  0.00  0.00    +0.126 A 
ATOM      9  C   UNL     1       0.302  -4.961  -2.655  0.00  0.00    +0.265 C 
ATOM     10  O   UNL     1      -0.687  -4.569  -3.244  0.00  0.00    -0.268 OA
ENDROOT
BRANCH   4  11
ATOM     11  C   UNL     1       3.205  -8.366  -0.735  0.00  0.00    +0.044 A 
ATOM     12  C   UNL     1       4.198  -7.532  -0.227  0.00  0.00    +0.014 A 
ATOM     13  C   UNL     1       5.281  -8.075   0.435  0.00  0.00    +0.001 A 
ATOM     14  C   UNL     1       5.385  -9.445   0.595  0.00  0.00    +0.004 A 
ATOM     15  C   UNL     1       4.405 -10.281   0.094  0.00  0.00    +0.046 A 
ATOM     16  C   UNL     1       3.309  -9.749  -0.567  0.00  0.00    +0.126 A 
BRANCH  16  17
ATOM     17  O   UNL     1       2.343 -10.570  -1.055  0.00  0.00    -0.506 OA
ATOM     18  H   UNL     1       2.500 -10.867  -1.962  0.00  0.00    +0.292 HD
ENDBRANCH  16  17
ENDBRANCH   4  11
BRANCH   2  19
ATOM     19  C   UNL     1       2.395  -4.665  -0.062  0.00  0.00    -0.022 A 
ATOM     20  C   UNL     1       1.256  -4.391   0.673  0.00  0.00    +0.006 A 
ATOM     21  C   UNL     1       1.358  -4.073   2.014  0.00  0.00    +0.000 A 
ATOM     22  C   UNL     1       2.599  -4.028   2.621  0.00  0.00    +0.000 A 
ATOM     23  C   UNL     1       3.738  -4.303   1.887  0.00  0.00    +0.000 A 
ATOM     24  C   UNL     1       3.635  -4.625   0.547  0.00  0.00    +0.006 A 
ENDBRANCH   2  19
BRANCH   1  25
ATOM     25  C   UNL     1       1.309  -2.703  -2.261  0.00  0.00    +0.111 C 
BRANCH  25  26
ATOM     26  C   UNL     1       0.613  -2.097  -1.041  0.00  0.00    +0.047 C 
BRANCH  26  27
ATOM     27  C   UNL     1       0.652  -0.570  -1.138  0.00  0.00    +0.161 C 
BRANCH  27  29
ATOM     28  C   UNL     1      -0.017   1.425   0.010  0.00  0.00    +0.193 C 
ATOM     29  O   UNL     1       0.002  -0.004   0.002  0.00  0.00    -0.383 OA
ENDBRANCH  27  29
ENDBRANCH  26  27
ENDBRANCH  25  26
ENDBRANCH   1  25
TORSDOF 7
