REMARK  Name = ZINC14467419
REMARK  6 active torsions:
REMARK  status: ('A' for Active; 'I' for Inactive)
REMARK    1  A    between atoms: C_4  and  C_7
REMARK    2  A    between atoms: C_7  and  N_8
REMARK    3  A    between atoms: N_8  and  S_9
REMARK    4  A    between atoms: S_9  and  C_12
REMARK    5  A    between atoms: C_25  and  C_28
REMARK    6  A    between atoms: C_33  and  O_34
REMARK                            x       y       z     vdW  Elec       q    Type
REMARK                         _______ _______ _______ _____ _____    ______ ____
ROOT
ATOM      1  C   UNL     1       4.825   0.591   1.925  0.00  0.00    +0.106 A 
ATOM      2  C   UNL     1       5.096   0.576   0.568  0.00  0.00    +0.030 A 
ATOM      3  C   UNL     1       4.664   1.620  -0.226  0.00  0.00    +0.025 A 
ATOM      4  C   UNL     1       3.962   2.678   0.336  0.00  0.00    +0.031 A 
ATOM      5  C   UNL     1       3.691   2.698   1.696  0.00  0.00    -0.018 A 
ATOM      6  C   UNL     1       4.128   1.642   2.484  0.00  0.00    +0.034 A 
ATOM      7  C   UNL     1       2.946   3.819   2.347  0.00  0.00    +0.049 C 
ATOM      8  C   UNL     1       1.530   3.419   2.687  0.00  0.00    -0.023 C 
ATOM      9  C   UNL     1       0.717   4.432   2.513  0.00  0.00    -0.030 C 
ATOM     10  C   UNL     1       1.483   5.651   2.038  0.00  0.00    +0.033 C 
ATOM     11  C   UNL     1       2.781   5.046   1.428  0.00  0.00    +0.029 C 
ATOM     12  C   UNL     1       2.447   4.590   0.005  0.00  0.00    +0.109 C 
ATOM     13  N   UNL     1       3.528   3.726  -0.482  0.00  0.00    -0.336 N 
ATOM     14  H   UNL     1       3.933   3.878  -1.351  0.00  0.00    +0.147 HD
ENDROOT
BRANCH  12  15
ATOM     15  C   UNL     1       1.151   3.821   0.012  0.00  0.00    +0.017 A 
ATOM     16  C   UNL     1       1.160   2.454   0.214  0.00  0.00    +0.029 A 
ATOM     17  C   UNL     1      -0.029   1.747   0.222  0.00  0.00    +0.043 A 
ATOM     18  C   UNL     1      -1.229   2.406   0.021  0.00  0.00    +0.043 A 
ATOM     19  C   UNL     1      -1.243   3.774  -0.176  0.00  0.00    +0.084 A 
ATOM     20  C   UNL     1      -0.050   4.484  -0.184  0.00  0.00    +0.140 A 
ATOM     21 CL   UNL     1      -2.749   4.601  -0.421  0.00  0.00    -0.080 Cl
ATOM     22 CL   UNL     1      -0.015   0.030   0.477  0.00  0.00    -0.083 Cl
BRANCH  20  23
ATOM     23  O   UNL     1      -0.060   5.829  -0.383  0.00  0.00    -0.505 OA
ATOM     24  H   UNL     1       0.008   6.090  -1.311  0.00  0.00    +0.292 HD
ENDBRANCH  20  23
ENDBRANCH  12  15
BRANCH   1  25
ATOM     25  S   UNL     1       5.373  -0.739   2.942  0.00  0.00    +0.059 S 
ATOM     26  O   UNL     1       4.522  -0.756   4.080  0.00  0.00    -0.153 OA
ATOM     27  O   UNL     1       5.527  -1.866   2.090  0.00  0.00    -0.153 OA
BRANCH  25  28
ATOM     28  N   UNL     1       6.886  -0.347   3.488  0.00  0.00    -0.186 NA
ATOM     29  H   UNL     1       7.652  -0.878   3.218  0.00  0.00    +0.148 HD
BRANCH  28  30
ATOM     30  C   UNL     1       7.069   0.801   4.379  0.00  0.00    +0.141 C 
BRANCH  30  34
ATOM     31  C   UNL     1      10.934   0.600   6.188  0.00  0.00    +0.000 A 
ATOM     32  C   UNL     1      10.766   1.264   4.987  0.00  0.00    +0.000 A 
ATOM     33  C   UNL     1       9.515   1.329   4.402  0.00  0.00    +0.005 A 
ATOM     34  C   UNL     1       8.432   0.730   5.017  0.00  0.00    -0.032 A 
ATOM     35  C   UNL     1       8.599   0.071   6.221  0.00  0.00    +0.005 A 
ATOM     36  C   UNL     1       9.850   0.002   6.803  0.00  0.00    +0.000 A 
ENDBRANCH  30  34
ENDBRANCH  28  30
ENDBRANCH  25  28
ENDBRANCH   1  25
TORSDOF 6
