REMARK  Name = ZINC15974555
REMARK  1 active torsions:
REMARK  status: ('A' for Active; 'I' for Inactive)
REMARK    1  A    between atoms: C_10  and  C_11
REMARK                            x       y       z     vdW  Elec       q    Type
REMARK                         _______ _______ _______ _____ _____    ______ ____
ROOT
ATOM      1  C   UNL     1       0.289   1.293  -0.415  0.00  0.00    +0.006 C 
ATOM      2  C   UNL     1       1.657   1.950  -0.211  0.00  0.00    +0.006 C 
ATOM      3  C   UNL     1       2.102   1.718   1.242  0.00  0.00    +0.044 C 
ATOM      4  C   UNL     1       1.891   0.280   1.571  0.00  0.00    +0.014 A 
ATOM      5  C   UNL     1       1.158  -0.640   0.881  0.00  0.00    +0.054 A 
ATOM      6  N   UNL     1       1.117  -1.872   1.371  0.00  0.00    -0.227 NA
ATOM      7  C   UNL     1       1.753  -2.216   2.483  0.00  0.00    +0.171 A 
ATOM      8  S   UNL     1       2.516  -0.662   2.938  0.00  0.00    -0.054 S 
ATOM      9  N   UNL     1       1.810  -3.421   3.108  0.00  0.00    -0.340 N 
ATOM     10  C   UNL     1       2.501  -3.555   4.209  0.00  0.00    +0.096 C 
ATOM     11  C   UNL     1       0.429  -0.230  -0.395  0.00  0.00    +0.056 C 
ATOM     12  H   UNL     1       1.338  -4.183   2.736  0.00  0.00    +0.167 HD
ENDROOT
BRANCH  10  13
ATOM     13  C   UNL     1       2.489  -4.833   4.933  0.00  0.00    +0.040 A 
ATOM     14  C   UNL     1       3.316  -5.018   6.047  0.00  0.00    +0.028 A 
ATOM     15  C   UNL     1       3.300  -6.220   6.722  0.00  0.00    +0.020 A 
ATOM     16  C   UNL     1       2.468  -7.247   6.302  0.00  0.00    +0.034 A 
ATOM     17  C   UNL     1       1.647  -7.077   5.203  0.00  0.00    +0.066 A 
ATOM     18  C   UNL     1       1.645  -5.873   4.516  0.00  0.00    +0.201 A 
ATOM     19  O   UNL     1       0.834  -5.704   3.440  0.00  0.00    -0.286 OA
ATOM     20 BR   UNL     1       0.518  -8.487   4.642  0.00  0.00    -0.046 Br
ATOM     21 BR   UNL     1       4.417  -6.469   8.227  0.00  0.00    -0.050 Br
ENDBRANCH  10  13
TORSDOF 1
