REMARK  Name = ZINC66619281
REMARK  10 active torsions:
REMARK  status: ('A' for Active; 'I' for Inactive)
REMARK    1  A    between atoms: C_1  and  C_2
REMARK    2  A    between atoms: C_2  and  N_3
REMARK    3  A    between atoms: N_3  and  C_4
REMARK    4  A    between atoms: C_4  and  C_5
REMARK    5  A    between atoms: N_19  and  C_20
REMARK    6  A    between atoms: C_20  and  C_22
REMARK    7  A    between atoms: C_20  and  C_23
REMARK    8  A    between atoms: C_23  and  C_24
REMARK    9  A    between atoms: C_27  and  C_31
REMARK   10  A    between atoms: C_29  and  C_30
REMARK                            x       y       z     vdW  Elec       q    Type
REMARK                         _______ _______ _______ _____ _____    ______ ____
ROOT
ATOM      1  N   UNL     1      -0.917  -0.013   0.055  0.00  0.00    -0.279 N 
ATOM      2  C   UNL     1      -1.653  -0.387   1.121  0.00  0.00    +0.303 C 
ATOM      3  O   UNL     1      -2.787  -0.795   0.964  0.00  0.00    -0.253 OA
ATOM      4  N   UNL     1      -1.131  -0.307   2.361  0.00  0.00    -0.296 N 
ATOM      5  H   UNL     1      -0.226   0.019   2.487  0.00  0.00    +0.151 HD
ENDROOT
BRANCH   1   7
ATOM      6  C   UNL     1       0.423   1.997   0.436  0.00  0.00    +0.024 C 
ATOM      7  C   UNL     1       0.450   0.479   0.245  0.00  0.00    +0.106 C 
ENDBRANCH   1   7
BRANCH   4   8
ATOM      8  C   UNL     1      -1.931  -0.713   3.520  0.00  0.00    +0.076 C 
ATOM      9  C   UNL     1      -2.765   0.474   4.005  0.00  0.00    +0.028 C 
BRANCH   8  10
ATOM     10  C   UNL     1      -1.002  -1.176   4.644  0.00  0.00    +0.057 C 
BRANCH  10  11
ATOM     11  C   UNL     1      -0.272  -2.422   4.211  0.00  0.00    -0.043 A 
ATOM     12  C   UNL     1       1.022  -2.334   3.732  0.00  0.00    +0.004 A 
ATOM     13  C   UNL     1       1.691  -3.477   3.335  0.00  0.00    +0.003 A 
ATOM     14  C   UNL     1       1.066  -4.707   3.418  0.00  0.00    -0.050 A 
ATOM     15  C   UNL     1      -0.227  -4.795   3.899  0.00  0.00    +0.007 A 
ATOM     16  C   UNL     1      -0.895  -3.653   4.299  0.00  0.00    -0.047 A 
ATOM     17  C   UNL     1      -2.303  -3.749   4.828  0.00  0.00    +0.044 C 
ATOM     18  C   UNL     1       1.795  -5.953   2.985  0.00  0.00    +0.044 C 
ENDBRANCH  10  11
ENDBRANCH   8  10
ENDBRANCH   4   8
BRANCH   1  19
ATOM     19  C   UNL     1      -1.484  -0.099  -1.293  0.00  0.00    +0.183 C 
BRANCH  19  20
ATOM     20  C   UNL     1      -1.184  -1.455  -1.878  0.00  0.00    +0.128 A 
ATOM     21  N   UNL     1      -1.626  -1.727  -3.134  0.00  0.00    -0.309 N 
ATOM     22  H   UNL     1      -2.121  -1.053  -3.625  0.00  0.00    +0.170 HD
ATOM     23  C   UNL     1      -1.382  -2.930  -3.704  0.00  0.00    +0.259 A 
ATOM     24  O   UNL     1      -1.771  -3.187  -4.829  0.00  0.00    -0.267 OA
ATOM     25  C   UNL     1      -0.627  -3.914  -2.914  0.00  0.00    +0.065 A 
ATOM     26  C   UNL     1      -0.324  -5.180  -3.409  0.00  0.00    +0.015 A 
ATOM     27  C   UNL     1       0.386  -6.063  -2.625  0.00  0.00    +0.001 A 
ATOM     28  C   UNL     1       0.799  -5.701  -1.349  0.00  0.00    +0.002 A 
ATOM     29  C   UNL     1       0.509  -4.455  -0.842  0.00  0.00    +0.028 A 
ATOM     30  C   UNL     1      -0.208  -3.542  -1.617  0.00  0.00    +0.078 A 
ATOM     31  N   UNL     1      -0.511  -2.301  -1.159  0.00  0.00    -0.232 NA
ENDBRANCH  19  20
ENDBRANCH   1  19
TORSDOF 6
