REMARK  Name = ZINC24917384
REMARK  9 active torsions:
REMARK  status: ('A' for Active; 'I' for Inactive)
REMARK    1  A    between atoms: C_1  and  C_2
REMARK    2  A    between atoms: N_13  and  C_30
REMARK    3  A    between atoms: C_14  and  S_16
REMARK    4  A    between atoms: S_16  and  C_17
REMARK    5  A    between atoms: C_17  and  C_19
REMARK    6  A    between atoms: C_17  and  C_20
REMARK    7  A    between atoms: N_26  and  C_27
REMARK    8  A    between atoms: N_26  and  C_28
REMARK    9  A    between atoms: C_30  and  C_31
REMARK                            x       y       z     vdW  Elec       q    Type
REMARK                         _______ _______ _______ _____ _____    ______ ____
ROOT
ATOM      1  C   UNL     1       1.438 -10.441   0.073  0.00  0.00    +0.008 C 
ATOM      2  C   UNL     1       0.722  -9.091  -0.015  0.00  0.00    -0.009 C 
ATOM      3  C   UNL     1       0.346  -8.803  -1.471  0.00  0.00    +0.008 C 
ATOM      4  C   UNL     1      -0.583  -7.590  -1.537  0.00  0.00    +0.037 C 
ATOM      5  C   UNL     1       0.065  -6.433  -0.783  0.00  0.00    -0.023 A 
ATOM      6  C   UNL     1       1.056  -6.656   0.104  0.00  0.00    -0.004 A 
ATOM      7  S   UNL     1       1.493  -5.053   0.720  0.00  0.00    -0.073 S 
ATOM      8  C   UNL     1       0.341  -4.083  -0.219  0.00  0.00    +0.117 A 
ATOM      9  C   UNL     1      -0.348  -5.042  -0.981  0.00  0.00    +0.076 A 
ATOM     10  C   UNL     1      -1.363  -4.534  -1.852  0.00  0.00    +0.264 A 
ATOM     11  O   UNL     1      -2.012  -5.292  -2.552  0.00  0.00    -0.267 OA
ATOM     12  N   UNL     1      -1.591  -3.208  -1.889  0.00  0.00    -0.280 N 
ATOM     13  C   UNL     1      -0.873  -2.345  -1.112  0.00  0.00    +0.174 A 
ATOM     14  N   UNL     1       0.071  -2.786  -0.305  0.00  0.00    -0.216 NA
ATOM     15  C   UNL     1       1.653  -7.977   0.483  0.00  0.00    +0.046 C 
ENDROOT
BRANCH  13  16
ATOM     16  S   UNL     1      -1.208  -0.617  -1.196  0.00  0.00    -0.077 S 
BRANCH  16  17
ATOM     17  C   UNL     1       0.002  -0.004   0.002  0.00  0.00    +0.119 C 
ATOM     18  C   UNL     1      -0.351  -0.527   1.396  0.00  0.00    +0.028 C 
BRANCH  17  19
ATOM     19  C   UNL     1      -0.018   1.503   0.010  0.00  0.00    +0.149 A 
ATOM     20  N   UNL     1      -1.173   2.146   0.019  0.00  0.00    -0.198 NA
ATOM     21  C   UNL     1      -1.195   3.477   0.031  0.00  0.00    +0.217 A 
ATOM     22  N   UNL     1      -0.054   4.159   0.024  0.00  0.00    -0.181 NA
ATOM     23  C   UNL     1       1.104   3.508   0.010  0.00  0.00    +0.222 A 
ATOM     24  N   UNL     1       1.118   2.177   0.003  0.00  0.00    -0.198 NA
ATOM     25  N   UNL     1       2.291   4.212   0.003  0.00  0.00    -0.306 N 
ATOM     26  C   UNL     1       3.568   3.494  -0.012  0.00  0.00    +0.132 C 
ATOM     27  C   UNL     1       2.275   5.677   0.010  0.00  0.00    +0.132 C 
ATOM     28  N   UNL     1      -2.401   4.148   0.046  0.00  0.00    -0.327 N 
ATOM     29  H   UNL     1      -2.418   5.248   0.056  0.00  0.00    +0.145 HD
ATOM     30  H   UNL     1      -3.345   3.583   0.048  0.00  0.00    +0.145 HD
ENDBRANCH  17  19
ENDBRANCH  16  17
ENDBRANCH  13  16
BRANCH  12  31
ATOM     31  C   UNL     1      -2.629  -2.682  -2.778  0.00  0.00    +0.201 C 
BRANCH  31  32
ATOM     32  C   UNL     1      -2.026  -2.365  -4.122  0.00  0.00    +0.125 A 
ATOM     33  C   UNL     1      -1.929  -3.213  -5.161  0.00  0.00    +0.046 A 
ATOM     34  C   UNL     1      -1.304  -2.504  -6.212  0.00  0.00    +0.041 A 
ATOM     35  C   UNL     1      -1.049  -1.267  -5.750  0.00  0.00    +0.195 A 
ATOM     36  O   UNL     1      -1.488  -1.188  -4.484  0.00  0.00    -0.466 OA
ENDBRANCH  31  32
ENDBRANCH  12  31
TORSDOF 5
