REMARK  Name = ZINC11436437
REMARK  7 active torsions:
REMARK  status: ('A' for Active; 'I' for Inactive)
REMARK    1  A    between atoms: C_3  and  C_15
REMARK    2  A    between atoms: C_5  and  S_7
REMARK    3  A    between atoms: S_7  and  N_10
REMARK    4  A    between atoms: C_15  and  O_17
REMARK    5  A    between atoms: O_17  and  C_18
REMARK    6  A    between atoms: C_18  and  C_19
REMARK    7  A    between atoms: N_21  and  C_22
REMARK                            x       y       z     vdW  Elec       q    Type
REMARK                         _______ _______ _______ _____ _____    ______ ____
ROOT
ATOM      1  C   UNL     1      -1.518  -1.844   0.007  0.00  0.00    +0.340 C 
ATOM      2  O   UNL     1      -0.545  -2.571  -0.006  0.00  0.00    -0.245 OA
ENDROOT
BRANCH   1   5
ATOM      3  C   UNL     1      -5.261  -2.147   0.042  0.00  0.00    +0.003 A 
ATOM      4  C   UNL     1      -3.996  -1.595   0.037  0.00  0.00    +0.015 A 
ATOM      5  C   UNL     1      -2.876  -2.428   0.017  0.00  0.00    +0.061 A 
ATOM      6  C   UNL     1      -3.043  -3.814   0.011  0.00  0.00    +0.043 A 
ATOM      7  C   UNL     1      -4.314  -4.352   0.020  0.00  0.00    +0.106 A 
ATOM      8  C   UNL     1      -5.420  -3.521   0.036  0.00  0.00    +0.028 A 
BRANCH   7   9
ATOM      9  S   UNL     1      -4.528  -6.101   0.014  0.00  0.00    +0.061 S 
ATOM     10  O   UNL     1      -5.818  -6.350  -0.526  0.00  0.00    -0.153 OA
ATOM     11  O   UNL     1      -3.346  -6.652  -0.552  0.00  0.00    -0.153 OA
BRANCH   9  12
ATOM     12  N   UNL     1      -4.572  -6.595   1.594  0.00  0.00    -0.177 NA
ATOM     13  C   UNL     1      -3.409  -7.001   2.397  0.00  0.00    +0.109 C 
ATOM     14  C   UNL     1      -3.934  -7.400   3.792  0.00  0.00    +0.018 C 
ATOM     15  C   UNL     1      -5.421  -7.744   3.517  0.00  0.00    +0.018 C 
ATOM     16  C   UNL     1      -5.784  -6.705   2.426  0.00  0.00    +0.109 C 
ENDBRANCH   9  12
ENDBRANCH   7   9
ENDBRANCH   1   5
BRANCH   1  17
ATOM     17  O   UNL     1      -1.360  -0.507   0.012  0.00  0.00    -0.452 OA
BRANCH  17  18
ATOM     18  C   UNL     1       0.002  -0.004   0.002  0.00  0.00    +0.328 C 
BRANCH  18  19
ATOM     19  C   UNL     1      -0.018   1.503   0.010  0.00  0.00    +0.251 C 
ATOM     20  O   UNL     1      -1.077   2.095   0.018  0.00  0.00    -0.272 OA
ATOM     21  N   UNL     1       1.139   2.192   0.003  0.00  0.00    -0.307 N 
ATOM     22  H   UNL     1       1.986   1.719  -0.008  0.00  0.00    +0.149 HD
BRANCH  21  23
ATOM     23  C   UNL     1       1.120   3.657   0.011  0.00  0.00    +0.035 C 
ATOM     24  C   UNL     1       0.380   4.164  -1.228  0.00  0.00    +0.029 C 
ATOM     25  C   UNL     1       0.359   5.694  -1.220  0.00  0.00    -0.008 C 
ATOM     26  C   UNL     1       1.794   6.224  -1.231  0.00  0.00    +0.007 C 
ATOM     27  C   UNL     1       2.534   5.717   0.009  0.00  0.00    -0.008 C 
ATOM     28  C   UNL     1       2.555   4.187   0.000  0.00  0.00    +0.029 C 
ATOM     29  C   UNL     1       1.818   6.210   1.267  0.00  0.00    +0.007 C 
ATOM     30  C   UNL     1       0.383   5.681   1.278  0.00  0.00    -0.008 C 
ATOM     31  C   UNL     1      -0.357   6.187   0.039  0.00  0.00    +0.007 C 
ATOM     32  C   UNL     1       0.404   4.151   1.270  0.00  0.00    +0.029 C 
ENDBRANCH  21  23
ENDBRANCH  18  19
ENDBRANCH  17  18
ENDBRANCH   1  17
TORSDOF 7
