REMARK  Name = ZINC54200689
REMARK  7 active torsions:
REMARK  status: ('A' for Active; 'I' for Inactive)
REMARK    1  A    between atoms: C_4  and  C_7
REMARK    2  A    between atoms: C_7  and  C_8
REMARK    3  A    between atoms: C_8  and  C_10
REMARK    4  A    between atoms: C_8  and  N_22
REMARK    5  A    between atoms: C_16  and  C_18
REMARK    6  A    between atoms: N_22  and  S_23
REMARK    7  A    between atoms: S_23  and  C_26
REMARK                            x       y       z     vdW  Elec       q    Type
REMARK                         _______ _______ _______ _____ _____    ______ ____
ROOT
ATOM      1  C   UNL     1       4.171  -0.963   1.399  0.00  0.00    +0.167 C 
ENDROOT
BRANCH   1   2
ATOM      2  C   UNL     1       5.422  -1.804   1.383  0.00  0.00    +0.238 C 
ATOM      3  O   UNL     1       6.446  -1.378   1.874  0.00  0.00    -0.274 OA
ATOM      4  N   UNL     1       5.402  -3.031   0.824  0.00  0.00    -0.262 N 
ATOM      5  C   UNL     1       6.556  -3.807   0.810  0.00  0.00    +0.188 A 
ATOM      6  N   UNL     1       7.751  -3.528   1.291  0.00  0.00    -0.125 NA
ATOM      7  N   UNL     1       8.713  -4.343   1.202  0.00  0.00    -0.136 NA
ATOM      8  C   UNL     1       8.517  -5.505   0.612  0.00  0.00    +0.206 A 
ATOM      9  S   UNL     1       6.789  -5.353   0.180  0.00  0.00    -0.027 S 
ATOM     10  H   UNL     1       4.583  -3.372   0.432  0.00  0.00    +0.157 HD
BRANCH   8  11
ATOM     11  C   UNL     1       9.476  -6.643   0.375  0.00  0.00    +0.443 C 
ATOM     12  F   UNL     1      10.697  -6.361   0.997  0.00  0.00    -0.164 F 
ATOM     13  F   UNL     1       8.943  -7.822   0.908  0.00  0.00    -0.164 F 
ATOM     14  F   UNL     1       9.678  -6.804  -1.000  0.00  0.00    -0.164 F 
ENDBRANCH   8  11
ENDBRANCH   1   2
BRANCH   1  15
ATOM     15  N   UNL     1       4.451   0.315   2.057  0.00  0.00    -0.178 NA
ATOM     16  H   UNL     1       5.319   0.735   1.953  0.00  0.00    +0.149 HD
BRANCH  15  17
ATOM     17  S   UNL     1       3.285   1.044   2.980  0.00  0.00    +0.059 S 
ATOM     18  O   UNL     1       3.862   2.235   3.497  0.00  0.00    -0.153 OA
ATOM     19  O   UNL     1       2.096   1.048   2.203  0.00  0.00    -0.153 OA
BRANCH  17  20
ATOM     20  C   UNL     1       2.981  -0.008   4.361  0.00  0.00    +0.105 A 
ATOM     21  C   UNL     1       2.016  -0.995   4.278  0.00  0.00    +0.030 A 
ATOM     22  C   UNL     1       1.777  -1.820   5.361  0.00  0.00    +0.022 A 
ATOM     23  C   UNL     1       2.503  -1.659   6.527  0.00  0.00    +0.041 A 
ATOM     24  C   UNL     1       3.468  -0.671   6.609  0.00  0.00    +0.022 A 
ATOM     25  C   UNL     1       3.710   0.150   5.524  0.00  0.00    +0.030 A 
ATOM     26 CL   UNL     1       2.202  -2.695   7.887  0.00  0.00    -0.084 Cl
ENDBRANCH  17  20
ENDBRANCH  15  17
ENDBRANCH   1  15
BRANCH   1  27
ATOM     27  C   UNL     1       3.711  -0.707  -0.038  0.00  0.00    +0.065 C 
BRANCH  27  31
ATOM     28  C   UNL     1      -0.017   1.378   0.010  0.00  0.00    +0.000 A 
ATOM     29  C   UNL     1       1.171   2.086   0.002  0.00  0.00    +0.000 A 
ATOM     30  C   UNL     1       2.377   1.411  -0.013  0.00  0.00    +0.004 A 
ATOM     31  C   UNL     1       2.396   0.029  -0.020  0.00  0.00    -0.045 A 
ATOM     32  C   UNL     1       1.208  -0.679  -0.012  0.00  0.00    +0.004 A 
ATOM     33  C   UNL     1       0.002  -0.004   0.002  0.00  0.00    +0.000 A 
ENDBRANCH  27  31
ENDBRANCH   1  27
TORSDOF 7
