REMARK  Name = ZINC39940816
REMARK  6 active torsions:
REMARK  status: ('A' for Active; 'I' for Inactive)
REMARK    1  A    between atoms: C_1  and  C_2
REMARK    2  A    between atoms: C_7  and  N_8
REMARK    3  A    between atoms: C_17  and  S_18
REMARK    4  A    between atoms: S_18  and  C_19
REMARK    5  A    between atoms: C_19  and  C_20
REMARK    6  A    between atoms: C_20  and  C_22
REMARK                            x       y       z     vdW  Elec       q    Type
REMARK                         _______ _______ _______ _____ _____    ______ ____
ROOT
ATOM      1  N   UNL     1       0.025  -0.013   2.418  0.00  0.00    -0.255 N 
ATOM      2  C   UNL     1      -1.147   0.292   3.007  0.00  0.00    +0.268 A 
ATOM      3  O   UNL     1      -2.202  -0.028   2.488  0.00  0.00    -0.267 OA
ATOM      4  C   UNL     1      -1.134   0.998   4.251  0.00  0.00    +0.076 A 
ATOM      5  C   UNL     1      -2.286   1.428   5.059  0.00  0.00    -0.023 A 
ATOM      6  C   UNL     1      -2.017   2.083   6.200  0.00  0.00    -0.004 A 
ATOM      7  S   UNL     1      -0.242   2.167   6.275  0.00  0.00    -0.073 S 
ATOM      8  C   UNL     1       0.132   1.319   4.763  0.00  0.00    +0.117 A 
ATOM      9  N   UNL     1       1.254   0.989   4.133  0.00  0.00    -0.215 NA
ATOM     10  C   UNL     1       1.217   0.334   2.991  0.00  0.00    +0.178 A 
ATOM     11  C   UNL     1      -3.268   2.477   6.939  0.00  0.00    +0.043 C 
ATOM     12  C   UNL     1      -4.393   2.356   5.887  0.00  0.00    +0.010 C 
ATOM     13  C   UNL     1      -3.807   1.308   4.921  0.00  0.00    +0.037 C 
ENDROOT
BRANCH   1  20
ATOM     14  C   UNL     1      -0.018   1.503   0.010  0.00  0.00    +0.046 C 
ATOM     15  C   UNL     1       0.002  -0.004   0.002  0.00  0.00    -0.026 A 
ATOM     16  C   UNL     1       0.006  -0.689  -1.198  0.00  0.00    +0.005 A 
ATOM     17  C   UNL     1       0.025  -2.071  -1.206  0.00  0.00    +0.000 A 
ATOM     18  C   UNL     1       0.040  -2.773  -0.014  0.00  0.00    +0.002 A 
ATOM     19  C   UNL     1       0.036  -2.094   1.188  0.00  0.00    +0.026 A 
ATOM     20  C   UNL     1       0.023  -0.705   1.200  0.00  0.00    +0.055 A 
ENDBRANCH   1  20
BRANCH  10  21
ATOM     21  S   UNL     1       2.724  -0.094   2.185  0.00  0.00    -0.079 S 
BRANCH  21  22
ATOM     22  C   UNL     1       4.010   0.556   3.287  0.00  0.00    +0.156 C 
BRANCH  22  23
ATOM     23  C   UNL     1       5.368   0.254   2.708  0.00  0.00    +0.172 C 
ATOM     24  O   UNL     1       5.460  -0.342   1.654  0.00  0.00    -0.291 OA
BRANCH  23  25
ATOM     25  C   UNL     1       6.534   0.663   3.390  0.00  0.00    +0.024 C 
ATOM     26  C   UNL     1       7.845   0.471   2.995  0.00  0.00    +0.006 A 
ATOM     27  C   UNL     1       8.429  -0.150   1.867  0.00  0.00    +0.010 A 
ATOM     28  C   UNL     1       9.774  -0.195   1.733  0.00  0.00    +0.001 A 
ATOM     29  C   UNL     1      10.645   0.359   2.684  0.00  0.00    +0.002 A 
ATOM     30  C   UNL     1      10.190   0.974   3.797  0.00  0.00    +0.026 A 
ATOM     31  C   UNL     1       8.737   1.067   4.020  0.00  0.00    +0.043 A 
ATOM     32  N   UNL     1       8.037   1.593   4.984  0.00  0.00    -0.380 N 
ATOM     33  C   UNL     1       6.610   1.410   4.704  0.00  0.00    +0.152 C 
ATOM     34  H   UNL     1       8.403   2.040   5.764  0.00  0.00    +0.160 HD
ENDBRANCH  23  25
ENDBRANCH  22  23
ENDBRANCH  21  22
ENDBRANCH  10  21
TORSDOF 5
