REMARK  Name = ZINC36609930
REMARK  11 active torsions:
REMARK  status: ('A' for Active; 'I' for Inactive)
REMARK    1  A    between atoms: C_1  and  C_2
REMARK    2  A    between atoms: C_3  and  C_4
REMARK    3  A    between atoms: C_4  and  C_6
REMARK    4  A    between atoms: C_4  and  N_13
REMARK    5  A    between atoms: N_8  and  C_9
REMARK    6  A    between atoms: C_9  and  C_10
REMARK    7  A    between atoms: C_9  and  C_11
REMARK    8  A    between atoms: C_9  and  C_12
REMARK    9  A    between atoms: N_13  and  C_14
REMARK   10  A    between atoms: C_20  and  C_22
REMARK   11  A    between atoms: C_25  and  O_28
REMARK                            x       y       z     vdW  Elec       q    Type
REMARK                         _______ _______ _______ _____ _____    ______ ____
ROOT
ATOM      1  N   UNL     1       1.037   1.554   2.740  0.00  0.00    -0.252 N 
ATOM      2  C   UNL     1       1.712   2.410   1.948  0.00  0.00    +0.252 C 
ATOM      3  O   UNL     1       2.651   2.013   1.285  0.00  0.00    -0.270 OA
ENDROOT
BRANCH   1   4
ATOM      4  C   UNL     1      -0.105   1.986   3.423  0.00  0.00    +0.038 A 
ATOM      5  C   UNL     1      -1.332   1.385   3.175  0.00  0.00    +0.023 A 
ATOM      6  C   UNL     1      -2.458   1.813   3.851  0.00  0.00    +0.002 A 
ATOM      7  C   UNL     1      -2.364   2.840   4.773  0.00  0.00    +0.000 A 
ATOM      8  C   UNL     1      -1.143   3.440   5.022  0.00  0.00    +0.002 A 
ATOM      9  C   UNL     1      -0.013   3.012   4.354  0.00  0.00    +0.023 A 
ENDBRANCH   1   4
BRANCH   2  10
ATOM     10  C   UNL     1       1.312   3.829   1.884  0.00  0.00    +0.037 A 
ATOM     11  C   UNL     1      -0.019   4.192   2.109  0.00  0.00    +0.016 A 
ATOM     12  C   UNL     1      -0.389   5.517   2.049  0.00  0.00    +0.046 A 
ATOM     13  C   UNL     1       0.559   6.493   1.764  0.00  0.00    +0.117 A 
ATOM     14  C   UNL     1       1.884   6.136   1.539  0.00  0.00    +0.046 A 
ATOM     15  C   UNL     1       2.263   4.814   1.604  0.00  0.00    +0.016 A 
BRANCH  13  16
ATOM     16  O   UNL     1       0.191   7.798   1.705  0.00  0.00    -0.507 OA
ATOM     17  H   UNL     1       0.254   8.263   2.550  0.00  0.00    +0.292 HD
ENDBRANCH  13  16
ENDBRANCH   2  10
BRANCH   1  18
ATOM     18  C   UNL     1       1.500   0.172   2.887  0.00  0.00    +0.190 C 
BRANCH  18  19
ATOM     19  C   UNL     1       1.920  -0.068   4.314  0.00  0.00    +0.238 C 
ATOM     20  O   UNL     1       1.842   0.827   5.128  0.00  0.00    -0.273 OA
ATOM     21  N   UNL     1       2.384  -1.278   4.685  0.00  0.00    -0.309 N 
ATOM     22  H   UNL     1       2.447  -1.994   4.034  0.00  0.00    +0.149 HD
BRANCH  21  23
ATOM     23  C   UNL     1       2.793  -1.512   6.072  0.00  0.00    +0.026 C 
ATOM     24  C   UNL     1       1.602  -1.271   7.003  0.00  0.00    +0.031 C 
ATOM     25  C   UNL     1       3.276  -2.955   6.226  0.00  0.00    +0.031 C 
ATOM     26  C   UNL     1       3.928  -0.553   6.438  0.00  0.00    +0.031 C 
ENDBRANCH  21  23
ENDBRANCH  18  19
BRANCH  18  29
ATOM     27  C   UNL     1       1.776  -1.572   0.689  0.00  0.00    +0.035 C 
ATOM     28  C   UNL     1       0.489  -1.542   1.472  0.00  0.00    -0.032 C 
ATOM     29  C   UNL     1       0.382  -0.773   2.527  0.00  0.00    +0.000 C 
ENDBRANCH  18  29
ENDBRANCH   1  18
TORSDOF 7
