REMARK  Name = ZINC66605205
REMARK  9 active torsions:
REMARK  status: ('A' for Active; 'I' for Inactive)
REMARK    1  A    between atoms: C_1  and  C_2
REMARK    2  A    between atoms: C_2  and  C_3
REMARK    3  A    between atoms: C_2  and  C_4
REMARK    4  A    between atoms: C_4  and  C_5
REMARK    5  A    between atoms: N_7  and  C_8
REMARK    6  A    between atoms: C_8  and  C_10
REMARK    7  A    between atoms: C_8  and  C_16
REMARK    8  A    between atoms: N_18  and  C_19
REMARK    9  A    between atoms: C_19  and  C_20
REMARK                            x       y       z     vdW  Elec       q    Type
REMARK                         _______ _______ _______ _____ _____    ______ ____
ROOT
ATOM      1  C   UNL     1      -5.567  -0.063  -2.494  0.00  0.00    +0.238 C 
ATOM      2  O   UNL     1      -6.022  -0.324  -1.401  0.00  0.00    -0.273 OA
ATOM      3  N   UNL     1      -6.393   0.271  -3.506  0.00  0.00    -0.309 N 
ATOM      4  H   UNL     1      -6.029   0.480  -4.380  0.00  0.00    +0.149 HD
ENDROOT
BRANCH   1   5
ATOM      5  C   UNL     1      -4.078  -0.112  -2.723  0.00  0.00    +0.189 C 
BRANCH   5   6
ATOM      6  C   UNL     1      -3.767  -1.123  -3.796  0.00  0.00    -0.018 A 
ATOM      7  C   UNL     1      -3.735  -2.470  -3.488  0.00  0.00    +0.006 A 
ATOM      8  C   UNL     1      -3.450  -3.398  -4.472  0.00  0.00    +0.000 A 
ATOM      9  C   UNL     1      -3.197  -2.978  -5.765  0.00  0.00    +0.000 A 
ATOM     10  C   UNL     1      -3.231  -1.631  -6.073  0.00  0.00    +0.000 A 
ATOM     11  C   UNL     1      -3.520  -0.704  -5.090  0.00  0.00    +0.006 A 
ENDBRANCH   5   6
BRANCH   5  14
ATOM     12  C   UNL     1      -2.125  -0.137  -1.266  0.00  0.00    +0.214 C 
ATOM     13  O   UNL     1      -1.528   0.505  -2.104  0.00  0.00    -0.276 OA
ATOM     14  N   UNL     1      -3.406  -0.497  -1.479  0.00  0.00    -0.300 N 
ATOM     15  H   UNL     1      -3.883  -1.011  -0.809  0.00  0.00    +0.150 HD
BRANCH  12  16
ATOM     16  C   UNL     1      -1.433  -0.534   0.013  0.00  0.00    +0.098 C 
BRANCH  16  18
ATOM     17  C   UNL     1      -0.019   1.526   0.010  0.00  0.00    +0.008 C 
ATOM     18  C   UNL     1       0.002  -0.004   0.002  0.00  0.00    -0.008 C 
ATOM     19  C   UNL     1       0.742  -0.511   1.242  0.00  0.00    +0.008 C 
ENDBRANCH  16  18
ENDBRANCH  12  16
ENDBRANCH   5  14
ENDBRANCH   1   5
BRANCH   3  20
ATOM     20  C   UNL     1      -7.840   0.319  -3.284  0.00  0.00    +0.139 C 
BRANCH  20  21
ATOM     21  C   UNL     1      -8.532   0.715  -4.563  0.00  0.00    -0.026 A 
ATOM     22  C   UNL     1      -8.767   2.051  -4.858  0.00  0.00    +0.023 A 
ATOM     23  C   UNL     1      -9.402   2.382  -6.038  0.00  0.00    +0.084 A 
ATOM     24  N   UNL     1      -9.786   1.445  -6.885  0.00  0.00    -0.350 N 
ATOM     25  C   UNL     1      -9.581   0.161  -6.640  0.00  0.00    +0.099 A 
ATOM     26  C   UNL     1      -8.941  -0.244  -5.472  0.00  0.00    +0.047 A 
ATOM     27  N   UNL     1     -10.002  -0.793  -7.559  0.00  0.00    -0.317 N 
ATOM     28  C   UNL     1      -9.847  -2.248  -7.417  0.00  0.00    +0.106 C 
ATOM     29  C   UNL     1     -10.437  -2.897  -8.687  0.00  0.00    +0.020 C 
ATOM     30  C   UNL     1     -10.380  -1.746  -9.725  0.00  0.00    +0.020 C 
ATOM     31  C   UNL     1     -10.685  -0.512  -8.836  0.00  0.00    +0.106 C 
ATOM     32  H   UNL     1     -10.231   1.704  -7.707  0.00  0.00    +0.166 HD
ENDBRANCH  20  21
ENDBRANCH   3  20
TORSDOF 7
