REMARK  Name = ZINC67489479
REMARK  7 active torsions:
REMARK  status: ('A' for Active; 'I' for Inactive)
REMARK    1  A    between atoms: C_1  and  C_2
REMARK    2  A    between atoms: C_2  and  C_3
REMARK    3  A    between atoms: C_2  and  C_4
REMARK    4  A    between atoms: C_2  and  N_12
REMARK    5  A    between atoms: C_4  and  N_5
REMARK    6  A    between atoms: C_13  and  C_15
REMARK    7  A    between atoms: C_15  and  C_16
REMARK                            x       y       z     vdW  Elec       q    Type
REMARK                         _______ _______ _______ _____ _____    ______ ____
ROOT
ATOM      1  N   UNL     1       0.069  -1.714  -1.083  0.00  0.00    -0.312 N 
ATOM      2  C   UNL     1       1.311  -2.016  -1.509  0.00  0.00    +0.216 C 
ATOM      3  O   UNL     1       2.222  -1.238  -1.320  0.00  0.00    -0.276 OA
ATOM      4  H   UNL     1      -0.660  -2.337  -1.234  0.00  0.00    +0.149 HD
ENDROOT
BRANCH   1   6
ATOM      5  C   UNL     1      -1.047   0.454  -1.273  0.00  0.00    +0.029 C 
ATOM      6  C   UNL     1      -0.181  -0.448  -0.391  0.00  0.00    +0.014 C 
ATOM      7  C   UNL     1       1.151   0.247  -0.102  0.00  0.00    +0.029 C 
BRANCH   6   8
ATOM      8  C   UNL     1      -0.909  -0.722   0.927  0.00  0.00    -0.053 C 
BRANCH   8   9
ATOM      9  N   UNL     1      -0.097  -1.621   1.758  0.00  0.00    +0.381 N 
ATOM     10  C   UNL     1       0.846  -0.809   2.552  0.00  0.00    -0.079 C 
ATOM     11  C   UNL     1       1.226  -1.593   3.783  0.00  0.00    -0.019 C 
ATOM     12  C   UNL     1       2.550  -2.353   3.580  0.00  0.00    -0.002 C 
ATOM     13  C   UNL     1       2.641  -2.978   2.173  0.00  0.00    -0.002 C 
ATOM     14  C   UNL     1       1.337  -3.592   1.732  0.00  0.00    -0.019 C 
ATOM     15  C   UNL     1       0.535  -2.548   0.927  0.00  0.00    -0.079 C 
ATOM     16  H   UNL     1      -0.707  -2.116   2.390  0.00  0.00    -0.082 HD
ENDBRANCH   8   9
ENDBRANCH   6   8
ENDBRANCH   1   6
BRANCH   2  17
ATOM     17  C   UNL     1       1.568  -3.319  -2.221  0.00  0.00    +0.127 C 
BRANCH  17  18
ATOM     18  C   UNL     1       3.049  -3.412  -2.596  0.00  0.00    +0.169 C 
ATOM     19  C   UNL     1       3.344  -4.730  -3.283  0.00  0.00    +0.241 C 
ATOM     20  O   UNL     1       3.210  -5.843  -2.820  0.00  0.00    -0.273 OA
ATOM     21  N   UNL     1       3.784  -4.409  -4.515  0.00  0.00    -0.239 N 
ATOM     22  C   UNL     1       3.808  -3.084  -4.700  0.00  0.00    +0.307 C 
ATOM     23  O   UNL     1       4.169  -2.553  -5.732  0.00  0.00    -0.252 OA
ATOM     24  N   UNL     1       3.390  -2.403  -3.614  0.00  0.00    -0.287 N 
ATOM     25  H   UNL     1       4.051  -5.058  -5.185  0.00  0.00    +0.159 HD
ATOM     26  H   UNL     1       3.326  -1.440  -3.520  0.00  0.00    +0.151 HD
ENDBRANCH  17  18
ENDBRANCH   2  17
TORSDOF 5
