REMARK  Name = ZINC39669439
REMARK  6 active torsions:
REMARK  status: ('A' for Active; 'I' for Inactive)
REMARK    1  A    between atoms: C_3  and  O_8
REMARK    2  A    between atoms: O_8  and  C_9
REMARK    3  A    between atoms: C_9  and  C_10
REMARK    4  A    between atoms: C_14  and  C_23
REMARK    5  A    between atoms: N_25  and  C_26
REMARK    6  A    between atoms: C_26  and  C_27
REMARK                            x       y       z     vdW  Elec       q    Type
REMARK                         _______ _______ _______ _____ _____    ______ ____
ROOT
ATOM      1  C   UNL     1       5.812   2.008   0.070  0.00  0.00    +0.253 C 
ATOM      2  O   UNL     1       5.540   3.189   0.114  0.00  0.00    -0.272 OA
ATOM      3  N   UNL     1       7.100   1.615   0.015  0.00  0.00    -0.297 N 
ATOM      4  C   UNL     1       7.626   0.231  -0.050  0.00  0.00    +0.121 C 
ATOM      5  C   UNL     1       8.815   0.310  -1.033  0.00  0.00    +0.100 C 
ATOM      6  C   UNL     1       9.261   1.781  -0.990  0.00  0.00    -0.004 C 
ATOM      7  C   UNL     1       8.312   2.470   0.000  0.00  0.00    +0.115 C 
ATOM      8  C   UNL     1      10.702   1.882  -0.499  0.00  0.00    -0.010 C 
ATOM      9  C   UNL     1      11.143   3.348  -0.521  0.00  0.00    -0.082 C 
ATOM     10  N   UNL     1      11.033   3.874  -1.887  0.00  0.00    +0.379 N 
ATOM     11  C   UNL     1       9.630   3.860  -2.317  0.00  0.00    -0.082 C 
ATOM     12  C   UNL     1       9.125   2.415  -2.372  0.00  0.00    -0.010 C 
ATOM     13  H   UNL     1      11.381   4.821  -1.910  0.00  0.00    -0.086 HD
ATOM     14  H   UNL     1      11.581   3.302  -2.511  0.00  0.00    -0.086 HD
ENDROOT
BRANCH   5  15
ATOM     15  C   UNL     1       8.372  -0.066  -2.424  0.00  0.00    +0.218 C 
ATOM     16  O   UNL     1       7.232   0.153  -2.777  0.00  0.00    -0.275 OA
ATOM     17  N   UNL     1       9.242  -0.645  -3.274  0.00  0.00    -0.315 N 
ATOM     18  H   UNL     1      10.153  -0.820  -2.992  0.00  0.00    +0.149 HD
BRANCH  17  19
ATOM     19  C   UNL     1       8.811  -1.011  -4.626  0.00  0.00    +0.109 C 
BRANCH  19  20
ATOM     20  C   UNL     1       9.981  -1.646  -5.380  0.00  0.00    +0.024 C 
ATOM     21  C   UNL     1       9.500  -2.140  -6.746  0.00  0.00    +0.008 C 
ATOM     22  C   UNL     1      10.662  -2.805  -7.488  0.00  0.00    +0.019 C 
ATOM     23  C   UNL     1      11.777  -1.778  -7.709  0.00  0.00    +0.108 C 
ATOM     24  N   UNL     1      12.144  -1.192  -6.413  0.00  0.00    -0.299 N 
ATOM     25  C   UNL     1      11.088  -0.606  -5.577  0.00  0.00    +0.113 C 
ATOM     26  C   UNL     1      13.461  -1.193  -5.987  0.00  0.00    +0.218 A 
ATOM     27  N   UNL     1      13.761  -0.662  -4.810  0.00  0.00    -0.223 NA
ATOM     28  C   UNL     1      15.009  -0.647  -4.373  0.00  0.00    +0.116 A 
ATOM     29  C   UNL     1      16.008  -1.195  -5.162  0.00  0.00    +0.039 A 
ATOM     30  C   UNL     1      15.660  -1.742  -6.387  0.00  0.00    +0.116 A 
ATOM     31  N   UNL     1      14.392  -1.729  -6.763  0.00  0.00    -0.223 NA
ENDBRANCH  19  20
ENDBRANCH  17  19
ENDBRANCH   5  15
BRANCH   1  32
ATOM     32  C   UNL     1       4.710   0.980   0.076  0.00  0.00    +0.324 C 
BRANCH  32  33
ATOM     33  O   UNL     1       3.444   1.640   0.138  0.00  0.00    -0.483 OA
BRANCH  33  36
ATOM     34  C   UNL     1      -0.048   0.621   0.224  0.00  0.00    +0.005 A 
ATOM     35  C   UNL     1       1.076   1.424   0.211  0.00  0.00    +0.046 A 
ATOM     36  C   UNL     1       2.338   0.851   0.152  0.00  0.00    +0.123 A 
ATOM     37  C   UNL     1       2.468  -0.530   0.106  0.00  0.00    +0.065 A 
ATOM     38  C   UNL     1       1.341  -1.330   0.120  0.00  0.00    +0.044 A 
ATOM     39  C   UNL     1       0.084  -0.755   0.179  0.00  0.00    +0.020 A 
ATOM     40 CL   UNL     1       1.503  -3.058   0.062  0.00  0.00    -0.083 Cl
ENDBRANCH  33  36
ENDBRANCH  32  33
ENDBRANCH   1  32
TORSDOF 6
