REMARK  Name = ZINC01922667
REMARK  6 active torsions:
REMARK  status: ('A' for Active; 'I' for Inactive)
REMARK    1  A    between atoms: C_4  and  N_7
REMARK    2  A    between atoms: C_8  and  C_10
REMARK    3  A    between atoms: C_10  and  N_11
REMARK    4  A    between atoms: N_19  and  N_20
REMARK    5  A    between atoms: C_21  and  C_23
REMARK    6  A    between atoms: C_25  and  N_30
REMARK                            x       y       z     vdW  Elec       q    Type
REMARK                         _______ _______ _______ _____ _____    ______ ____
ROOT
ATOM      1  N   UNL     1       4.719  -4.163   0.245  0.00  0.00    -0.257 N 
ATOM      2  C   UNL     1       4.544  -4.853   1.439  0.00  0.00    +0.047 A 
ATOM      3  C   UNL     1       4.548  -4.425   2.762  0.00  0.00    +0.024 A 
ATOM      4  C   UNL     1       4.346  -5.331   3.784  0.00  0.00    +0.002 A 
ATOM      5  C   UNL     1       4.138  -6.672   3.507  0.00  0.00    +0.001 A 
ATOM      6  C   UNL     1       4.131  -7.115   2.199  0.00  0.00    +0.012 A 
ATOM      7  C   UNL     1       4.333  -6.210   1.163  0.00  0.00    +0.028 A 
ATOM      8  C   UNL     1       4.385  -6.350  -0.311  0.00  0.00    +0.153 C 
ATOM      9  N   UNL     1       4.238  -7.447  -1.014  0.00  0.00    -0.174 NA
ATOM     10  C   UNL     1       4.631  -4.984  -0.815  0.00  0.00    +0.272 C 
ATOM     11  O   UNL     1       4.738  -4.661  -1.983  0.00  0.00    -0.268 OA
ENDROOT
BRANCH   9  12
ATOM     12  N   UNL     1       4.317  -7.398  -2.412  0.00  0.00    -0.202 N 
ATOM     13  C   UNL     1       4.167  -8.526  -3.135  0.00  0.00    +0.267 C 
ATOM     14  O   UNL     1       3.962  -9.585  -2.574  0.00  0.00    -0.268 OA
ATOM     15  H   UNL     1       4.480  -6.553  -2.860  0.00  0.00    +0.178 HD
BRANCH  13  16
ATOM     16  C   UNL     1       4.250  -8.475  -4.606  0.00  0.00    +0.087 A 
ATOM     17  C   UNL     1       4.490  -7.260  -5.255  0.00  0.00    +0.049 A 
ATOM     18  C   UNL     1       4.566  -7.219  -6.630  0.00  0.00    +0.127 A 
ATOM     19  C   UNL     1       4.406  -8.377  -7.374  0.00  0.00    +0.036 A 
ATOM     20  C   UNL     1       4.168  -9.584  -6.746  0.00  0.00    +0.054 A 
ATOM     21  C   UNL     1       4.093  -9.645  -5.362  0.00  0.00    +0.191 A 
ATOM     22  O   UNL     1       3.865 -10.830  -4.744  0.00  0.00    -0.287 OA
BRANCH  18  23
ATOM     23  N   UNL     1       4.821  -5.933  -7.316  0.00  0.00    +0.056 N 
ATOM     24  O   UNL     1       4.961  -4.920  -6.669  0.00  0.00    -0.126 OA
ATOM     25  O   UNL     1       4.888  -5.894  -8.522  0.00  0.00    -0.126 OA
ENDBRANCH  18  23
ENDBRANCH  13  16
ENDBRANCH   9  12
BRANCH   1  26
ATOM     26  C   UNL     1       4.962  -2.721   0.153  0.00  0.00    +0.210 C 
BRANCH  26  28
ATOM     27  N   UNL     1       3.622  -0.651  -0.037  0.00  0.00    -0.284 N 
ATOM     28  C   UNL     1       3.645  -1.995   0.057  0.00  0.00    +0.235 C 
ATOM     29  O   UNL     1       2.606  -2.620   0.064  0.00  0.00    -0.274 OA
ATOM     30  H   UNL     1       4.452  -0.156  -0.121  0.00  0.00    +0.155 HD
BRANCH  27  34
ATOM     31  C   UNL     1      -0.015   1.381   0.029  0.00  0.00    +0.000 A 
ATOM     32  C   UNL     1       0.140   0.218   0.763  0.00  0.00    +0.002 A 
ATOM     33  C   UNL     1       1.344  -0.457   0.743  0.00  0.00    +0.023 A 
ATOM     34  C   UNL     1       2.400   0.031  -0.015  0.00  0.00    +0.033 A 
ATOM     35  C   UNL     1       2.241   1.198  -0.751  0.00  0.00    +0.023 A 
ATOM     36  C   UNL     1       1.034   1.870  -0.727  0.00  0.00    +0.002 A 
ENDBRANCH  27  34
ENDBRANCH  26  28
ENDBRANCH   1  26
TORSDOF 6
