REMARK  Name = ZINC43259454
REMARK  7 active torsions:
REMARK  status: ('A' for Active; 'I' for Inactive)
REMARK    1  A    between atoms: C_1  and  C_2
REMARK    2  A    between atoms: C_2  and  C_3
REMARK    3  A    between atoms: C_3  and  C_5
REMARK    4  A    between atoms: C_3  and  N_22
REMARK    5  A    between atoms: C_5  and  C_7
REMARK    6  A    between atoms: C_5  and  N_13
REMARK    7  A    between atoms: C_17  and  C_19
REMARK                            x       y       z     vdW  Elec       q    Type
REMARK                         _______ _______ _______ _____ _____    ______ ____
ROOT
ATOM      1  C   UNL     1      -1.523  -2.050   0.192  0.00  0.00    -0.013 C 
ENDROOT
BRANCH   1   2
ATOM      2  C   UNL     1      -2.872  -2.701   0.027  0.00  0.00    -0.021 A 
ATOM      3  C   UNL     1      -3.414  -3.273  -1.076  0.00  0.00    +0.011 A 
ATOM      4  C   UNL     1      -4.684  -3.814  -0.995  0.00  0.00    +0.023 A 
ATOM      5  C   UNL     1      -5.349  -3.757   0.186  0.00  0.00    +0.055 A 
ATOM      6  S   UNL     1      -4.167  -2.925   1.234  0.00  0.00    -0.088 S 
ATOM      7 BR   UNL     1      -7.076  -4.398   0.612  0.00  0.00    -0.043 Br
ENDBRANCH   1   2
BRANCH   1   8
ATOM      8  N   UNL     1      -0.955  -2.424   1.494  0.00  0.00    +0.393 N 
ATOM      9  C   UNL     1      -0.843  -3.901   1.599  0.00  0.00    -0.077 C 
ATOM     10  C   UNL     1       0.236  -4.098   2.695  0.00  0.00    -0.020 C 
ATOM     11  C   UNL     1       1.232  -2.951   2.409  0.00  0.00    -0.008 C 
ATOM     12  C   UNL     1       0.424  -1.905   1.617  0.00  0.00    +0.020 C 
ATOM     13  H   UNL     1      -1.530  -2.064   2.241  0.00  0.00    -0.080 HD
BRANCH  12  14
ATOM     14  C   UNL     1       0.415  -0.594   2.360  0.00  0.00    +0.197 C 
ATOM     15  O   UNL     1      -0.633  -0.127   2.754  0.00  0.00    -0.278 OA
ATOM     16  N   UNL     1       1.571   0.060   2.587  0.00  0.00    -0.331 N 
ATOM     17  H   UNL     1       2.410  -0.313   2.273  0.00  0.00    +0.145 HD
ATOM     18  H   UNL     1       1.565   0.904   3.066  0.00  0.00    +0.145 HD
ENDBRANCH  12  14
ENDBRANCH   1   8
BRANCH   1  19
ATOM     19  C   UNL     1      -1.677  -0.530   0.120  0.00  0.00    +0.042 C 
BRANCH  19  20
ATOM     20  N   UNL     1      -2.648  -0.088   1.130  0.00  0.00    -0.328 NA
ATOM     21  H   UNL     1      -2.720   0.918   1.147  0.00  0.00    +0.118 HD
ATOM     22  H   UNL     1      -3.550  -0.513   0.975  0.00  0.00    +0.118 HD
ENDBRANCH  19  20
BRANCH  19  24
ATOM     23  C   UNL     1      -2.196   1.392  -1.389  0.00  0.00    +0.005 C 
ATOM     24  C   UNL     1      -2.173  -0.133  -1.272  0.00  0.00    +0.014 C 
ENDBRANCH  19  24
ENDBRANCH   1  19
TORSDOF 6
