REMARK  Name = ZINC63655059
REMARK  11 active torsions:
REMARK  status: ('A' for Active; 'I' for Inactive)
REMARK    1  A    between atoms: C_1  and  C_2
REMARK    2  A    between atoms: C_4  and  C_12
REMARK    3  A    between atoms: C_12  and  C_13
REMARK    4  A    between atoms: C_13  and  N_14
REMARK    5  A    between atoms: N_14  and  C_15
REMARK    6  A    between atoms: N_14  and  C_21
REMARK    7  A    between atoms: C_15  and  C_16
REMARK    8  A    between atoms: C_21  and  N_23
REMARK    9  A    between atoms: N_23  and  C_24
REMARK   10  A    between atoms: C_27  and  O_30
REMARK   11  A    between atoms: O_30  and  C_31
REMARK                            x       y       z     vdW  Elec       q    Type
REMARK                         _______ _______ _______ _____ _____    ______ ____
ROOT
ATOM      1  N   UNL     1       1.228  -0.824  -5.104  0.00  0.00    -0.307 N 
ENDROOT
BRANCH   1   2
ATOM      2  C   UNL     1       0.398  -1.693  -5.715  0.00  0.00    +0.137 C 
ATOM      3  S   UNL     1       0.053  -3.203  -4.986  0.00  0.00    -0.018 S 
BRANCH   2   4
ATOM      4  N   UNL     1      -0.161  -1.372  -6.899  0.00  0.00    -0.297 N 
ATOM      5  H   UNL     1      -0.031  -0.487  -7.272  0.00  0.00    +0.154 HD
BRANCH   4   6
ATOM      6  C   UNL     1      -0.930  -2.318  -7.589  0.00  0.00    +0.033 A 
ATOM      7  C   UNL     1      -2.112  -1.933  -8.209  0.00  0.00    +0.027 A 
ATOM      8  C   UNL     1      -2.869  -2.866  -8.890  0.00  0.00    +0.047 A 
ATOM      9  C   UNL     1      -2.451  -4.187  -8.954  0.00  0.00    +0.120 A 
ATOM     10  C   UNL     1      -1.271  -4.572  -8.334  0.00  0.00    +0.047 A 
ATOM     11  C   UNL     1      -0.509  -3.639  -7.658  0.00  0.00    +0.027 A 
BRANCH   9  12
ATOM     12  O   UNL     1      -3.197  -5.105  -9.624  0.00  0.00    -0.495 OA
ATOM     13  C   UNL     1      -2.707  -6.447  -9.649  0.00  0.00    +0.277 C 
ENDBRANCH   9  12
ENDBRANCH   4   6
ENDBRANCH   2   4
ENDBRANCH   1   2
BRANCH   1  14
ATOM     14  C   UNL     1       1.835  -1.173  -3.817  0.00  0.00    +0.111 C 
BRANCH  14  15
ATOM     15  C   UNL     1       0.924  -0.706  -2.680  0.00  0.00    +0.052 C 
BRANCH  15  18
ATOM     16  C   UNL     1       0.823   0.720   0.229  0.00  0.00    +0.035 C 
ATOM     17  C   UNL     1       0.986  -0.787   0.019  0.00  0.00    +0.103 C 
ATOM     18  C   UNL     1       1.549  -1.064  -1.357  0.00  0.00    -0.037 C 
ATOM     19  C   UNL     1       2.728  -1.698  -1.159  0.00  0.00    -0.001 A 
ATOM     20  C   UNL     1       3.741  -2.224  -2.081  0.00  0.00    +0.010 A 
ATOM     21  C   UNL     1       4.842  -2.823  -1.574  0.00  0.00    +0.001 A 
ATOM     22  C   UNL     1       5.039  -2.954  -0.192  0.00  0.00    +0.002 A 
ATOM     23  C   UNL     1       4.154  -2.496   0.718  0.00  0.00    +0.026 A 
ATOM     24  C   UNL     1       2.960  -1.849   0.296  0.00  0.00    +0.043 A 
ATOM     25  N   UNL     1       1.962  -1.328   0.972  0.00  0.00    -0.378 N 
ATOM     26  H   UNL     1       1.884  -1.304   1.938  0.00  0.00    +0.160 HD
ENDBRANCH  15  18
ENDBRANCH  14  15
ENDBRANCH   1  14
BRANCH   1  27
ATOM     27  C   UNL     1       1.523   0.468  -5.727  0.00  0.00    +0.149 C 
BRANCH  27  28
ATOM     28  C   UNL     1       2.729   0.332  -6.620  0.00  0.00    +0.007 A 
ATOM     29  C   UNL     1       2.786   0.013  -7.936  0.00  0.00    +0.013 A 
ATOM     30  C   UNL     1       4.019  -0.054  -8.557  0.00  0.00    +0.008 A 
ATOM     31  C   UNL     1       5.135   0.201  -7.832  0.00  0.00    +0.045 A 
ATOM     32  S   UNL     1       4.455   0.557  -6.220  0.00  0.00    -0.100 S 
ENDBRANCH  27  28
ENDBRANCH   1  27
TORSDOF 9
