REMARK  Name = ZINC26235869
REMARK  12 active torsions:
REMARK  status: ('A' for Active; 'I' for Inactive)
REMARK    1  A    between atoms: C_1  and  N_2
REMARK    2  A    between atoms: C_5  and  C_18
REMARK    3  A    between atoms: C_6  and  N_17
REMARK    4  A    between atoms: N_7  and  C_10
REMARK    5  A    between atoms: C_10  and  C_11
REMARK    6  A    between atoms: C_18  and  C_20
REMARK    7  A    between atoms: C_20  and  O_21
REMARK    8  A    between atoms: O_21  and  C_22
REMARK    9  A    between atoms: C_22  and  C_24
REMARK   10  A    between atoms: C_29  and  O_30
REMARK   11  A    between atoms: O_30  and  C_31
REMARK   12  A    between atoms: C_31  and  C_32
REMARK                            x       y       z     vdW  Elec       q    Type
REMARK                         _______ _______ _______ _____ _____    ______ ____
ROOT
ATOM      1  C   UNL     1      -3.605  -4.791  -7.861  0.00  0.00    +0.157 C 
ATOM      2  N   UNL     1      -3.916  -3.616  -8.679  0.00  0.00    -0.263 N 
ATOM      3  C   UNL     1      -3.770  -2.382  -8.155  0.00  0.00    +0.269 A 
ATOM      4  O   UNL     1      -3.383  -2.235  -7.010  0.00  0.00    -0.267 OA
ATOM      5  C   UNL     1      -4.088  -1.219  -8.994  0.00  0.00    +0.123 A 
ATOM      6  C   UNL     1      -4.536  -1.458 -10.305  0.00  0.00    +0.116 A 
ATOM      7  N   UNL     1      -4.644  -2.747 -10.741  0.00  0.00    -0.277 N 
ATOM      8  C   UNL     1      -4.343  -3.782  -9.942  0.00  0.00    +0.333 A 
ATOM      9  O   UNL     1      -4.462  -4.911 -10.376  0.00  0.00    -0.246 OA
ENDROOT
BRANCH   6  10
ATOM     10  N   UNL     1      -4.851  -0.420 -11.127  0.00  0.00    -0.344 N 
ATOM     11  H   UNL     1      -5.201  -0.617 -12.151  0.00  0.00    +0.144 HD
ATOM     12  H   UNL     1      -4.756   0.615 -10.768  0.00  0.00    +0.144 HD
ENDBRANCH   6  10
BRANCH   5  13
ATOM     13  C   UNL     1      -3.953   0.095  -8.498  0.00  0.00    +0.209 C 
ATOM     14  O   UNL     1      -4.124   1.044  -9.238  0.00  0.00    -0.288 OA
BRANCH  13  15
ATOM     15  C   UNL     1      -3.597   0.322  -7.052  0.00  0.00    +0.312 C 
BRANCH  15  16
ATOM     16  O   UNL     1      -3.518   1.748  -6.790  0.00  0.00    -0.453 OA
BRANCH  16  17
ATOM     17  C   UNL     1      -3.208   2.124  -5.534  0.00  0.00    +0.343 C 
ATOM     18  O   UNL     1      -3.007   1.283  -4.681  0.00  0.00    -0.245 OA
BRANCH  17  19
ATOM     19  C   UNL     1      -3.110   3.555  -5.196  0.00  0.00    +0.101 A 
ATOM     20  C   UNL     1      -3.344   4.527  -6.173  0.00  0.00    +0.018 A 
ATOM     21  C   UNL     1      -3.246   5.862  -5.852  0.00  0.00    +0.001 A 
ATOM     22  C   UNL     1      -2.921   6.249  -4.561  0.00  0.00    +0.004 A 
ATOM     23  C   UNL     1      -2.692   5.301  -3.585  0.00  0.00    +0.046 A 
ATOM     24  C   UNL     1      -2.787   3.951  -3.890  0.00  0.00    +0.135 A 
BRANCH  24  25
ATOM     25  O   UNL     1      -2.563   3.018  -2.931  0.00  0.00    -0.489 OA
BRANCH  25  26
ATOM     26  C   UNL     1      -2.232   3.496  -1.626  0.00  0.00    +0.260 C 
BRANCH  26  27
ATOM     27  C   UNL     1      -2.017   2.307  -0.687  0.00  0.00    +0.156 C 
ATOM     28  C   UNL     1      -1.712   2.802   0.749  0.00  0.00    +0.037 C 
ATOM     29  C   UNL     1      -0.924   1.589   1.319  0.00  0.00    +0.031 C 
ATOM     30  C   UNL     1      -0.164   1.080   0.076  0.00  0.00    +0.160 C 
ATOM     31  O   UNL     1      -0.853   1.564  -1.083  0.00  0.00    -0.373 OA
ENDBRANCH  26  27
ENDBRANCH  25  26
ENDBRANCH  24  25
ENDBRANCH  17  19
ENDBRANCH  16  17
ENDBRANCH  15  16
ENDBRANCH  13  15
ENDBRANCH   5  13
BRANCH   7  32
ATOM     32  C   UNL     1      -5.104  -3.006 -12.108  0.00  0.00    +0.163 C 
BRANCH  32  33
ATOM     33  C   UNL     1      -6.606  -3.131 -12.118  0.00  0.00    -0.028 A 
ATOM     34  C   UNL     1      -7.198  -4.367 -11.937  0.00  0.00    +0.005 A 
ATOM     35  C   UNL     1      -8.576  -4.480 -11.941  0.00  0.00    +0.000 A 
ATOM     36  C   UNL     1      -9.361  -3.360 -12.136  0.00  0.00    +0.000 A 
ATOM     37  C   UNL     1      -8.769  -2.124 -12.322  0.00  0.00    +0.000 A 
ATOM     38  C   UNL     1      -7.391  -2.010 -12.313  0.00  0.00    +0.005 A 
ENDBRANCH  32  33
ENDBRANCH   7  32
TORSDOF 11
