REMARK  Name = ZINC64131800
REMARK  9 active torsions:
REMARK  status: ('A' for Active; 'I' for Inactive)
REMARK    1  A    between atoms: C_1  and  N_2
REMARK    2  A    between atoms: N_2  and  C_3
REMARK    3  A    between atoms: N_2  and  S_4
REMARK    4  A    between atoms: S_4  and  N_7
REMARK    5  A    between atoms: N_7  and  C_8
REMARK    6  A    between atoms: C_11  and  N_14
REMARK    7  A    between atoms: C_17  and  N_20
REMARK    8  A    between atoms: N_20  and  C_21
REMARK    9  A    between atoms: C_21  and  C_22
REMARK                            x       y       z     vdW  Elec       q    Type
REMARK                         _______ _______ _______ _____ _____    ______ ____
ROOT
ATOM      1  N   UNL     1       4.646  -3.660   1.828  0.00  0.00    -0.330 N 
ATOM      2  C   UNL     1       4.498  -3.407   3.268  0.00  0.00    +0.103 C 
ATOM      3  C   UNL     1       5.870  -3.049   3.849  0.00  0.00    +0.003 C 
ATOM      4  C   UNL     1       6.870  -4.155   3.505  0.00  0.00    -0.069 C 
ATOM      5  C   UNL     1       7.004  -4.270   1.985  0.00  0.00    +0.003 C 
ATOM      6  C   UNL     1       5.641  -4.645   1.383  0.00  0.00    +0.103 C 
ENDROOT
BRANCH   1  10
ATOM      7  C   UNL     1       2.274  -1.637  -0.940  0.00  0.00    +0.049 A 
ATOM      8  C   UNL     1       3.124  -2.650  -1.363  0.00  0.00    +0.026 A 
ATOM      9  C   UNL     1       3.909  -3.321  -0.446  0.00  0.00    +0.025 A 
ATOM     10  C   UNL     1       3.850  -2.981   0.899  0.00  0.00    +0.030 A 
ATOM     11  C   UNL     1       3.001  -1.967   1.322  0.00  0.00    +0.025 A 
ATOM     12  C   UNL     1       2.219  -1.293   0.404  0.00  0.00    +0.026 A 
BRANCH   7  13
ATOM     13  N   UNL     1       1.477  -0.958  -1.869  0.00  0.00    -0.206 N 
ATOM     14  H   UNL     1       0.540  -0.797  -1.679  0.00  0.00    +0.175 HD
BRANCH  13  15
ATOM     15  S   UNL     1       2.135  -0.430  -3.295  0.00  0.00    +0.111 S 
ATOM     16  O   UNL     1       1.124   0.321  -3.955  0.00  0.00    -0.138 OA
ATOM     17  O   UNL     1       2.762  -1.555  -3.894  0.00  0.00    -0.138 OA
BRANCH  15  19
ATOM     18  C   UNL     1       4.728   0.173  -2.820  0.00  0.00    +0.132 C 
ATOM     19  N   UNL     1       3.342   0.637  -2.911  0.00  0.00    -0.170 NA
ATOM     20  C   UNL     1       3.023   2.045  -2.663  0.00  0.00    +0.132 C 
ENDBRANCH  15  19
ENDBRANCH  13  15
ENDBRANCH   7  13
ENDBRANCH   1  10
BRANCH   4  21
ATOM     21  N   UNL     1       8.178  -3.832   4.089  0.00  0.00    +0.383 N 
ATOM     22  H   UNL     1       8.543  -2.998   3.654  0.00  0.00    -0.085 HD
ATOM     23  H   UNL     1       8.075  -3.677   5.081  0.00  0.00    -0.085 HD
BRANCH  21  24
ATOM     24  C   UNL     1       9.105  -4.948   3.862  0.00  0.00    -0.053 C 
BRANCH  24  25
ATOM     25  C   UNL     1      10.468  -4.611   4.470  0.00  0.00    +0.086 C 
ATOM     26  C   UNL     1      11.380  -5.816   4.407  0.00  0.00    +0.005 C 
ATOM     27  C   UNL     1      11.693  -6.116   5.689  0.00  0.00    -0.004 A 
ATOM     28  C   UNL     1      12.529  -7.163   6.289  0.00  0.00    +0.010 A 
ATOM     29  C   UNL     1      12.655  -7.210   7.635  0.00  0.00    +0.001 A 
ATOM     30  C   UNL     1      12.009  -6.287   8.468  0.00  0.00    +0.002 A 
ATOM     31  C   UNL     1      11.226  -5.297   7.991  0.00  0.00    +0.026 A 
ATOM     32  C   UNL     1      11.022  -5.153   6.591  0.00  0.00    +0.043 A 
ATOM     33  N   UNL     1      10.321  -4.290   5.894  0.00  0.00    -0.380 N 
ATOM     34  H   UNL     1       9.793  -3.562   6.259  0.00  0.00    +0.160 HD
ENDBRANCH  24  25
ENDBRANCH  21  24
ENDBRANCH   4  21
TORSDOF 7
