REMARK  Name = ZINC59167129
REMARK  9 active torsions:
REMARK  status: ('A' for Active; 'I' for Inactive)
REMARK    1  A    between atoms: C_1  and  O_2
REMARK    2  A    between atoms: O_2  and  C_3
REMARK    3  A    between atoms: C_6  and  C_10
REMARK    4  A    between atoms: C_7  and  O_9
REMARK    5  A    between atoms: C_10  and  C_11
REMARK    6  A    between atoms: C_11  and  C_12
REMARK    7  A    between atoms: N_14  and  N_15
REMARK    8  A    between atoms: N_23  and  C_26
REMARK    9  A    between atoms: C_26  and  C_27
REMARK                            x       y       z     vdW  Elec       q    Type
REMARK                         _______ _______ _______ _____ _____    ______ ____
ROOT
ATOM      1  N   UNL     1       6.668  -4.534   6.042  0.00  0.00    -0.175 NA
ATOM      2  C   UNL     1       7.923  -4.895   5.931  0.00  0.00    +0.153 C 
ATOM      3  C   UNL     1       8.760  -5.572   6.949  0.00  0.00    +0.028 A 
ATOM      4  C   UNL     1       8.514  -6.011   8.246  0.00  0.00    +0.012 A 
ATOM      5  C   UNL     1       9.521  -6.623   8.964  0.00  0.00    +0.001 A 
ATOM      6  C   UNL     1      10.771  -6.799   8.394  0.00  0.00    +0.002 A 
ATOM      7  C   UNL     1      11.025  -6.367   7.108  0.00  0.00    +0.024 A 
ATOM      8  C   UNL     1      10.023  -5.749   6.369  0.00  0.00    +0.046 A 
ATOM      9  N   UNL     1      10.013  -5.230   5.079  0.00  0.00    -0.261 N 
ATOM     10  C   UNL     1       8.809  -4.722   4.763  0.00  0.00    +0.272 C 
ATOM     11  O   UNL     1       8.505  -4.208   3.703  0.00  0.00    -0.268 OA
ENDROOT
BRANCH   1  14
ATOM     12  C   UNL     1       4.732  -3.533   5.083  0.00  0.00    +0.233 C 
ATOM     13  O   UNL     1       4.129  -3.743   6.113  0.00  0.00    -0.274 OA
ATOM     14  N   UNL     1       6.023  -3.904   4.969  0.00  0.00    -0.206 N 
ATOM     15  H   UNL     1       6.505  -3.736   4.145  0.00  0.00    +0.177 HD
BRANCH  12  16
ATOM     16  C   UNL     1       4.039  -2.856   3.929  0.00  0.00    +0.102 C 
BRANCH  16  17
ATOM     17  C   UNL     1       2.593  -2.541   4.316  0.00  0.00    +0.048 C 
BRANCH  17  21
ATOM     18  C   UNL     1       0.626  -0.618   1.042  0.00  0.00    +0.124 A 
ATOM     19  C   UNL     1       1.202   0.139   2.051  0.00  0.00    +0.046 A 
ATOM     20  C   UNL     1       1.837  -0.484   3.108  0.00  0.00    +0.011 A 
ATOM     21  C   UNL     1       1.899  -1.864   3.163  0.00  0.00    -0.005 A 
ATOM     22  C   UNL     1       1.324  -2.626   2.156  0.00  0.00    +0.123 A 
ATOM     23  C   UNL     1       0.682  -2.002   1.097  0.00  0.00    +0.091 A 
BRANCH  18  25
ATOM     24  C   UNL     1      -0.017   1.425   0.010  0.00  0.00    +0.277 C 
ATOM     25  O   UNL     1       0.002  -0.004   0.002  0.00  0.00    -0.495 OA
ENDBRANCH  18  25
BRANCH  22  26
ATOM     26  O   UNL     1       1.386  -3.982   2.210  0.00  0.00    -0.506 OA
ATOM     27  H   UNL     1       0.642  -4.392   2.673  0.00  0.00    +0.292 HD
ENDBRANCH  22  26
ENDBRANCH  17  21
ENDBRANCH  16  17
ENDBRANCH  12  16
ENDBRANCH   1  14
BRANCH   9  28
ATOM     28  C   UNL     1      11.166  -5.242   4.176  0.00  0.00    +0.152 C 
BRANCH  28  29
ATOM     29  C   UNL     1      11.154  -6.510   3.362  0.00  0.00    +0.005 A 
ATOM     30  C   UNL     1      11.960  -7.572   3.724  0.00  0.00    +0.008 A 
ATOM     31  C   UNL     1      11.949  -8.736   2.977  0.00  0.00    +0.000 A 
ATOM     32  C   UNL     1      11.131  -8.838   1.867  0.00  0.00    +0.003 A 
ATOM     33  C   UNL     1      10.323  -7.778   1.504  0.00  0.00    +0.038 A 
ATOM     34  C   UNL     1      10.329  -6.614   2.254  0.00  0.00    +0.128 A 
ATOM     35  F   UNL     1       9.537  -5.578   1.902  0.00  0.00    -0.205 F 
ENDBRANCH  28  29
ENDBRANCH   9  28
TORSDOF 8
