REMARK  Name = ZINC63361864
REMARK  9 active torsions:
REMARK  status: ('A' for Active; 'I' for Inactive)
REMARK    1  A    between atoms: C_1  and  C_2
REMARK    2  A    between atoms: C_2  and  C_3
REMARK    3  A    between atoms: C_3  and  C_4
REMARK    4  A    between atoms: C_4  and  C_5
REMARK    5  A    between atoms: C_5  and  C_6
REMARK    6  A    between atoms: C_6  and  N_7
REMARK    7  A    between atoms: C_8  and  C_10
REMARK    8  A    between atoms: C_14  and  N_16
REMARK    9  A    between atoms: C_19  and  C_35
REMARK                            x       y       z     vdW  Elec       q    Type
REMARK                         _______ _______ _______ _____ _____    ______ ____
ROOT
ATOM      1  N   UNL     1      -7.604  -9.697   0.035  0.00  0.00    -0.192 N 
ATOM      2  C   UNL     1      -6.642 -10.637  -0.065  0.00  0.00    +0.253 C 
ATOM      3  O   UNL     1      -5.451 -10.454  -0.196  0.00  0.00    -0.272 OA
ATOM      4  C   UNL     1      -7.358 -11.968   0.022  0.00  0.00    +0.137 C 
ATOM      5  C   UNL     1      -7.151 -12.763  -1.272  0.00  0.00    +0.139 C 
ATOM      6  C   UNL     1      -8.289 -13.774  -1.344  0.00  0.00    -0.034 C 
ATOM      7  C   UNL     1      -7.719 -14.972  -1.426  0.00  0.00    -0.001 A 
ATOM      8  C   UNL     1      -8.294 -16.319  -1.579  0.00  0.00    +0.010 A 
ATOM      9  C   UNL     1      -7.407 -17.347  -1.620  0.00  0.00    +0.001 A 
ATOM     10  C   UNL     1      -6.022 -17.174  -1.524  0.00  0.00    +0.002 A 
ATOM     11  C   UNL     1      -5.408 -15.972  -1.386  0.00  0.00    +0.026 A 
ATOM     12  C   UNL     1      -6.237 -14.813  -1.335  0.00  0.00    +0.043 A 
ATOM     13  N   UNL     1      -5.914 -13.546  -1.227  0.00  0.00    -0.375 N 
ATOM     14  C   UNL     1      -9.746 -13.388  -1.259  0.00  0.00    +0.052 C 
ATOM     15  C   UNL     1      -9.913 -12.516   0.001  0.00  0.00    +0.115 C 
ATOM     16  N   UNL     1      -8.786 -11.581   0.065  0.00  0.00    -0.268 N 
ATOM     17  C   UNL     1      -8.822 -10.245   0.141  0.00  0.00    +0.316 C 
ATOM     18  O   UNL     1      -9.843  -9.602   0.287  0.00  0.00    -0.252 OA
ATOM     19  C   UNL     1      -6.941 -12.761   1.263  0.00  0.00    +0.044 C 
ATOM     20  H   UNL     1      -5.018 -13.185  -1.130  0.00  0.00    +0.160 HD
ENDROOT
BRANCH   1  25
ATOM     21  C   UNL     1      -5.817  -6.470   0.047  0.00  0.00    +0.038 A 
ATOM     22  C   UNL     1      -6.892  -5.579   0.032  0.00  0.00    +0.013 A 
ATOM     23  C   UNL     1      -8.185  -6.060   0.018  0.00  0.00    +0.003 A 
ATOM     24  C   UNL     1      -8.422  -7.422   0.019  0.00  0.00    +0.024 A 
ATOM     25  C   UNL     1      -7.359  -8.316   0.034  0.00  0.00    +0.046 A 
ATOM     26  C   UNL     1      -6.056  -7.844   0.042  0.00  0.00    +0.037 A 
BRANCH  21  28
ATOM     27  N   UNL     1      -4.202  -4.630   0.067  0.00  0.00    -0.311 N 
ATOM     28  C   UNL     1      -4.430  -5.958   0.062  0.00  0.00    +0.244 C 
ATOM     29  O   UNL     1      -3.495  -6.735   0.070  0.00  0.00    -0.270 OA
ATOM     30  H   UNL     1      -4.948  -4.010   0.060  0.00  0.00    +0.149 HD
BRANCH  27  31
ATOM     31  C   UNL     1      -2.828  -4.123   0.082  0.00  0.00    +0.104 C 
BRANCH  31  32
ATOM     32  C   UNL     1      -2.848  -2.593   0.084  0.00  0.00    +0.019 C 
BRANCH  32  33
ATOM     33  C   UNL     1      -1.413  -2.063   0.100  0.00  0.00    +0.002 C 
BRANCH  33  34
ATOM     34  C   UNL     1      -1.434  -0.533   0.102  0.00  0.00    -0.000 C 
BRANCH  34  36
ATOM     35  C   UNL     1      -0.019   1.526   0.120  0.00  0.00    +0.004 C 
ATOM     36  C   UNL     1       0.001  -0.004   0.118  0.00  0.00    -0.003 C 
ENDBRANCH  34  36
ENDBRANCH  33  34
ENDBRANCH  32  33
ENDBRANCH  31  32
ENDBRANCH  27  31
ENDBRANCH  21  28
ENDBRANCH   1  25
TORSDOF 7
