REMARK  Name = ZINC01175355
REMARK  4 active torsions:
REMARK  status: ('A' for Active; 'I' for Inactive)
REMARK    1  A    between atoms: C_10  and  C_11
REMARK    2  A    between atoms: C_18  and  N_32
REMARK    3  A    between atoms: C_19  and  C_30
REMARK    4  A    between atoms: C_20  and  C_22
REMARK                            x       y       z     vdW  Elec       q    Type
REMARK                         _______ _______ _______ _____ _____    ______ ____
ROOT
ATOM      1  C   UNL     1       4.944   0.134  -0.046  0.00  0.00    +0.101 A 
ATOM      2  C   UNL     1       6.230  -0.411   0.033  0.00  0.00    +0.054 A 
ATOM      3  C   UNL     1       7.127   0.616  -0.006  0.00  0.00    +0.223 A 
ATOM      4  N   UNL     1       6.429   1.767  -0.106  0.00  0.00    -0.246 N 
ATOM      5  H   UNL     1       6.806   2.660  -0.152  0.00  0.00    +0.192 HD
ATOM      6  N   UNL     1       5.063   1.446  -0.135  0.00  0.00    -0.171 NA
ATOM      7  O   UNL     1       8.468   0.420   0.049  0.00  0.00    -0.423 OA
ATOM      8  C   UNL     1       8.923  -0.836  -0.132  0.00  0.00    +0.200 C 
ATOM      9  C   UNL     1       8.135  -1.933  -0.101  0.00  0.00    +0.098 C 
ATOM     10  C   UNL     1       6.649  -1.854   0.146  0.00  0.00    +0.102 C 
ENDROOT
BRANCH   1  20
ATOM     11  C   UNL     1       0.496   0.492   2.450  0.00  0.00    +0.001 A 
ATOM     12  C   UNL     1       1.683   1.223   2.460  0.00  0.00    +0.001 A 
ATOM     13  C   UNL     1       2.727   0.874   1.657  0.00  0.00    +0.009 A 
ATOM     14  C   UNL     1       2.609  -0.236   0.808  0.00  0.00    -0.009 A 
ATOM     15  C   UNL     1       1.404  -0.979   0.797  0.00  0.00    -0.017 A 
ATOM     16  C   UNL     1       0.347  -0.590   1.639  0.00  0.00    +0.008 A 
ATOM     17  C   UNL     1       1.285  -2.092  -0.053  0.00  0.00    +0.008 A 
ATOM     18  C   UNL     1       2.323  -2.450  -0.859  0.00  0.00    +0.001 A 
ATOM     19  C   UNL     1       3.513  -1.730  -0.860  0.00  0.00    +0.011 A 
ATOM     20  C   UNL     1       3.672  -0.628  -0.039  0.00  0.00    +0.010 A 
ENDBRANCH   1  20
BRANCH  10  21
ATOM     21  C   UNL     1       6.335  -2.369   1.527  0.00  0.00    -0.033 A 
ATOM     22  C   UNL     1       6.822  -1.707   2.638  0.00  0.00    +0.007 A 
ATOM     23  C   UNL     1       6.535  -2.177   3.905  0.00  0.00    +0.040 A 
ATOM     24  C   UNL     1       5.757  -3.312   4.062  0.00  0.00    +0.137 A 
ATOM     25  C   UNL     1       5.269  -3.975   2.948  0.00  0.00    +0.053 A 
ATOM     26  C   UNL     1       5.554  -3.499   1.681  0.00  0.00    +0.022 A 
ATOM     27 BR   UNL     1       4.207  -5.526   3.159  0.00  0.00    -0.047 Br
ATOM     28  F   UNL     1       5.476  -3.773   5.300  0.00  0.00    -0.204 F 
ENDBRANCH  10  21
BRANCH   8  29
ATOM     29  N   UNL     1      10.266  -1.011  -0.360  0.00  0.00    -0.328 N 
ATOM     30  H   UNL     1      10.857  -0.242  -0.388  0.00  0.00    +0.145 HD
ATOM     31  H   UNL     1      10.623  -1.902  -0.493  0.00  0.00    +0.145 HD
ENDBRANCH   8  29
BRANCH   9  32
ATOM     32  C   UNL     1       8.732  -3.218  -0.311  0.00  0.00    +0.101 C 
ATOM     33  N   UNL     1       9.205  -4.237  -0.478  0.00  0.00    -0.191 NA
ENDBRANCH   9  32
TORSDOF 4
