REMARK  Name = ZINC05580954
REMARK  6 active torsions:
REMARK  status: ('A' for Active; 'I' for Inactive)
REMARK    1  A    between atoms: C_5  and  C_7
REMARK    2  A    between atoms: C_7  and  C_8
REMARK    3  A    between atoms: C_7  and  C_21
REMARK    4  A    between atoms: C_14  and  O_20
REMARK    5  A    between atoms: C_27  and  O_33
REMARK    6  A    between atoms: C_31  and  O_32
REMARK                            x       y       z     vdW  Elec       q    Type
REMARK                         _______ _______ _______ _____ _____    ______ ____
ROOT
ATOM      1  C   UNL     1       1.250  -2.168  -0.023  0.00  0.00    +0.119 C 
ENDROOT
BRANCH   1   2
ATOM      2  C   UNL     1       0.193  -2.434   1.017  0.00  0.00    +0.098 A 
ATOM      3  C   UNL     1      -0.983  -3.133   0.671  0.00  0.00    +0.201 A 
ATOM      4  O   UNL     1      -1.171  -3.535  -0.466  0.00  0.00    -0.287 OA
ATOM      5  C   UNL     1      -1.977  -3.360   1.738  0.00  0.00    +0.065 A 
ATOM      6  C   UNL     1      -3.167  -4.041   1.488  0.00  0.00    +0.019 A 
ATOM      7  C   UNL     1      -4.064  -4.233   2.501  0.00  0.00    +0.046 A 
ATOM      8  C   UNL     1      -3.796  -3.751   3.780  0.00  0.00    +0.120 A 
ATOM      9  C   UNL     1      -2.618  -3.072   4.043  0.00  0.00    +0.092 A 
ATOM     10  C   UNL     1      -1.697  -2.870   3.025  0.00  0.00    +0.146 A 
ATOM     11  O   UNL     1      -0.541  -2.213   3.255  0.00  0.00    -0.422 OA
ATOM     12  C   UNL     1       0.368  -2.007   2.294  0.00  0.00    +0.345 A 
ATOM     13  O   UNL     1       1.502  -1.345   2.606  0.00  0.00    -0.245 OA
BRANCH   8  14
ATOM     14  O   UNL     1      -4.696  -3.949   4.776  0.00  0.00    -0.507 OA
ATOM     15  H   UNL     1      -4.563  -4.770   5.270  0.00  0.00    +0.292 HD
ENDBRANCH   8  14
ENDBRANCH   1   2
BRANCH   1  16
ATOM     16  C   UNL     1       0.606  -2.073  -1.382  0.00  0.00    +0.093 A 
ATOM     17  C   UNL     1      -0.426  -1.139  -1.614  0.00  0.00    +0.200 A 
ATOM     18  O   UNL     1      -0.818  -0.393  -0.731  0.00  0.00    -0.287 OA
ATOM     19  C   UNL     1      -1.012  -1.099  -2.968  0.00  0.00    +0.065 A 
ATOM     20  C   UNL     1      -2.036  -0.208  -3.289  0.00  0.00    +0.019 A 
ATOM     21  C   UNL     1      -2.555  -0.199  -4.553  0.00  0.00    +0.046 A 
ATOM     22  C   UNL     1      -2.067  -1.073  -5.521  0.00  0.00    +0.120 A 
ATOM     23  C   UNL     1      -1.051  -1.963  -5.217  0.00  0.00    +0.092 A 
ATOM     24  C   UNL     1      -0.514  -1.984  -3.938  0.00  0.00    +0.146 A 
ATOM     25  O   UNL     1       0.478  -2.841  -3.616  0.00  0.00    -0.424 OA
ATOM     26  C   UNL     1       1.019  -2.881  -2.392  0.00  0.00    +0.292 A 
BRANCH  26  27
ATOM     27  O   UNL     1       2.011  -3.764  -2.150  0.00  0.00    -0.480 OA
ATOM     28  H   UNL     1       2.252  -4.305  -2.915  0.00  0.00    +0.295 HD
ENDBRANCH  26  27
BRANCH  22  29
ATOM     29  O   UNL     1      -2.592  -1.052  -6.773  0.00  0.00    -0.507 OA
ATOM     30  H   UNL     1      -2.145  -0.444  -7.377  0.00  0.00    +0.292 HD
ENDBRANCH  22  29
ENDBRANCH   1  16
BRANCH   1  35
ATOM     31  C   UNL     1       1.877   1.383   1.076  0.00  0.00    +0.003 A 
ATOM     32  C   UNL     1       3.243   1.456   0.851  0.00  0.00    +0.020 A 
ATOM     33  C   UNL     1       3.904   0.349   0.353  0.00  0.00    +0.111 A 
ATOM     34  N   UNL     1       3.249  -0.766   0.091  0.00  0.00    -0.259 NA
ATOM     35  C   UNL     1       1.950  -0.871   0.293  0.00  0.00    +0.054 A 
ATOM     36  C   UNL     1       1.224   0.194   0.790  0.00  0.00    +0.024 A 
ENDBRANCH   1  35
TORSDOF 6
