REMARK  Name = ZINC22852429
REMARK  6 active torsions:
REMARK  status: ('A' for Active; 'I' for Inactive)
REMARK    1  A    between atoms: C_1  and  O_2
REMARK    2  A    between atoms: O_2  and  C_3
REMARK    3  A    between atoms: C_7  and  C_9
REMARK    4  A    between atoms: C_9  and  C_11
REMARK    5  A    between atoms: C_9  and  N_25
REMARK    6  A    between atoms: C_17  and  C_19
REMARK                            x       y       z     vdW  Elec       q    Type
REMARK                         _______ _______ _______ _____ _____    ______ ____
ROOT
ATOM      1  C   UNL     1      -2.540  -4.171   0.015  0.00  0.00    +0.006 C 
ENDROOT
BRANCH   1   2
ATOM      2  C   UNL     1      -2.816  -4.661  -1.382  0.00  0.00    +0.050 A 
ATOM      3  C   UNL     1      -2.038  -5.392  -2.189  0.00  0.00    +0.282 A 
ATOM      4  N   UNL     1      -2.468  -5.747  -3.445  0.00  0.00    -0.169 N 
ATOM      5  C   UNL     1      -3.712  -5.321  -3.821  0.00  0.00    +0.200 A 
ATOM      6  S   UNL     1      -4.271  -4.425  -2.392  0.00  0.00    -0.050 S 
ATOM      7  N   UNL     1      -3.973  -5.736  -5.029  0.00  0.00    -0.197 NA
ATOM      8  C   UNL     1      -2.929  -6.439  -5.491  0.00  0.00    +0.218 A 
ATOM      9  N   UNL     1      -1.993  -6.474  -4.567  0.00  0.00    -0.138 NA
ATOM     10  O   UNL     1      -0.809  -5.788  -1.762  0.00  0.00    -0.265 OA
BRANCH   8  11
ATOM     11  C   UNL     1      -2.845  -7.074  -6.823  0.00  0.00    +0.173 A 
ATOM     12  C   UNL     1      -3.804  -7.039  -7.786  0.00  0.00    +0.053 A 
ATOM     13  C   UNL     1      -3.304  -7.769  -8.883  0.00  0.00    +0.042 A 
ATOM     14  C   UNL     1      -2.078  -8.209  -8.539  0.00  0.00    +0.196 A 
ATOM     15  O   UNL     1      -1.801  -7.783  -7.295  0.00  0.00    -0.460 OA
ENDBRANCH   8  11
ENDBRANCH   1   2
BRANCH   1  20
ATOM     16  C   UNL     1      -1.200  -0.637   0.010  0.00  0.00    +0.120 A 
ATOM     17  C   UNL     1      -2.375   0.101   0.019  0.00  0.00    +0.045 A 
ATOM     18  C   UNL     1      -3.596  -0.545   0.027  0.00  0.00    +0.004 A 
ATOM     19  C   UNL     1      -3.648  -1.927   0.026  0.00  0.00    +0.002 A 
ATOM     20  C   UNL     1      -2.479  -2.665   0.017  0.00  0.00    -0.053 A 
ATOM     21  C   UNL     1      -1.255  -2.023   0.003  0.00  0.00    +0.048 A 
BRANCH  16  23
ATOM     22  C   UNL     1      -0.017   1.425   0.010  0.00  0.00    +0.277 C 
ATOM     23  O   UNL     1       0.002  -0.004   0.002  0.00  0.00    -0.495 OA
ENDBRANCH  16  23
ENDBRANCH   1  20
BRANCH   1  24
ATOM     24  N   UNL     1      -3.613  -4.618   0.913  0.00  0.00    +0.387 N 
ATOM     25  C   UNL     1      -3.630  -6.102   0.991  0.00  0.00    -0.078 C 
ATOM     26  C   UNL     1      -4.366  -6.378   2.326  0.00  0.00    -0.020 C 
ATOM     27  C   UNL     1      -3.850  -5.248   3.246  0.00  0.00    -0.020 C 
ATOM     28  C   UNL     1      -3.357  -4.145   2.290  0.00  0.00    -0.078 C 
ATOM     29  H   UNL     1      -4.505  -4.276   0.587  0.00  0.00    -0.080 HD
ENDBRANCH   1  24
TORSDOF 5
