REMARK  Name = ZINC28058489
REMARK  9 active torsions:
REMARK  status: ('A' for Active; 'I' for Inactive)
REMARK    1  A    between atoms: C_1  and  C_2
REMARK    2  A    between atoms: C_2  and  O_3
REMARK    3  A    between atoms: O_3  and  C_4
REMARK    4  A    between atoms: C_7  and  C_12
REMARK    5  A    between atoms: C_9  and  O_10
REMARK    6  A    between atoms: O_10  and  C_11
REMARK    7  A    between atoms: C_30  and  C_32
REMARK    8  A    between atoms: C_37  and  O_38
REMARK    9  A    between atoms: O_38  and  C_39
REMARK                            x       y       z     vdW  Elec       q    Type
REMARK                         _______ _______ _______ _____ _____    ______ ____
ROOT
ATOM      1  C   UNL     1       2.489   1.046  -0.016  0.00  0.00    +0.234 C 
ATOM      2  C   UNL     1       2.972   0.918  -1.443  0.00  0.00    +0.026 C 
ATOM      3  C   UNL     1       3.714   1.894  -1.969  0.00  0.00    +0.050 C 
ATOM      4  C   UNL     1       4.055   3.058  -1.116  0.00  0.00    +0.039 A 
ATOM      5  C   UNL     1       4.519   4.248  -1.663  0.00  0.00    +0.033 A 
ATOM      6  C   UNL     1       4.826   5.307  -0.829  0.00  0.00    +0.042 A 
ATOM      7  C   UNL     1       4.673   5.183   0.542  0.00  0.00    +0.023 A 
ATOM      8  C   UNL     1       4.211   4.002   1.094  0.00  0.00    +0.048 A 
ATOM      9  C   UNL     1       3.899   2.936   0.271  0.00  0.00    +0.131 A 
ATOM     10  O   UNL     1       3.440   1.761   0.773  0.00  0.00    -0.479 OA
ATOM     11 CL   UNL     1       5.407   6.798  -1.502  0.00  0.00    -0.084 Cl
ATOM     12  N   UNL     1       4.189   1.846  -3.285  0.00  0.00    -0.282 N 
ATOM     13  C   UNL     1       4.110   0.631  -3.944  0.00  0.00    +0.240 A 
ATOM     14  N   UNL     1       4.659   0.216  -5.049  0.00  0.00    -0.092 NA
ATOM     15  N   UNL     1       4.319  -1.005  -5.286  0.00  0.00    -0.021 NA
ATOM     16  N   UNL     1       3.534  -1.443  -4.355  0.00  0.00    -0.042 NA
ATOM     17  N   UNL     1       3.367  -0.394  -3.451  0.00  0.00    -0.201 N 
ATOM     18  C   UNL     1       2.587  -0.315  -2.224  0.00  0.00    +0.177 C 
ATOM     19  H   UNL     1       4.604   2.751  -3.753  0.00  0.00    +0.155 HD
ENDROOT
BRANCH   1  23
ATOM     20  C   UNL     1      -1.243   3.133   0.031  0.00  0.00    +0.162 A 
ATOM     21  C   UNL     1      -1.207   1.767   0.263  0.00  0.00    +0.050 A 
ATOM     22  C   UNL     1       0.001   1.095   0.247  0.00  0.00    +0.011 A 
ATOM     23  C   UNL     1       1.175   1.783   0.000  0.00  0.00    +0.001 A 
ATOM     24  C   UNL     1       1.146   3.146  -0.232  0.00  0.00    +0.057 A 
ATOM     25  C   UNL     1      -0.061   3.826  -0.212  0.00  0.00    +0.162 A 
BRANCH  25  26
ATOM     26  O   UNL     1      -0.091   5.167  -0.434  0.00  0.00    -0.491 OA
ATOM     27  C   UNL     1       1.160   5.812  -0.682  0.00  0.00    +0.277 C 
ENDBRANCH  25  26
BRANCH  20  28
ATOM     28  O   UNL     1      -2.431   3.796   0.046  0.00  0.00    -0.489 OA
BRANCH  28  30
ATOM     29  C   UNL     1      -4.832   3.931   0.286  0.00  0.00    +0.048 C 
ATOM     30  C   UNL     1      -3.602   3.021   0.308  0.00  0.00    +0.226 C 
ENDBRANCH  28  30
ENDBRANCH  20  28
ENDBRANCH   1  23
BRANCH  18  31
ATOM     31  C   UNL     1       1.121  -0.251  -2.567  0.00  0.00    +0.023 A 
ATOM     32  C   UNL     1       0.633   0.794  -3.328  0.00  0.00    +0.009 A 
ATOM     33  C   UNL     1      -0.711   0.852  -3.644  0.00  0.00    +0.001 A 
ATOM     34  C   UNL     1      -1.572  -0.135  -3.199  0.00  0.00    +0.004 A 
ATOM     35  C   UNL     1      -1.089  -1.181  -2.438  0.00  0.00    +0.046 A 
ATOM     36  C   UNL     1       0.261  -1.245  -2.124  0.00  0.00    +0.126 A 
BRANCH  36  37
ATOM     37  O   UNL     1       0.739  -2.277  -1.380  0.00  0.00    -0.495 OA
ATOM     38  C   UNL     1      -0.204  -3.264  -0.958  0.00  0.00    +0.277 C 
ENDBRANCH  36  37
ENDBRANCH  18  31
TORSDOF 6
