REMARK  Name = ZINC33326899
REMARK  9 active torsions:
REMARK  status: ('A' for Active; 'I' for Inactive)
REMARK    1  A    between atoms: C_1  and  C_2
REMARK    2  A    between atoms: C_5  and  C_33
REMARK    3  A    between atoms: C_6  and  S_8
REMARK    4  A    between atoms: S_8  and  N_11
REMARK    5  A    between atoms: N_11  and  C_12
REMARK    6  A    between atoms: C_15  and  N_18
REMARK    7  A    between atoms: C_21  and  N_26
REMARK    8  A    between atoms: C_23  and  C_25
REMARK    9  A    between atoms: N_26  and  C_27
REMARK                            x       y       z     vdW  Elec       q    Type
REMARK                         _______ _______ _______ _____ _____    ______ ____
ROOT
ATOM      1  C   UNL     1       0.042   1.541   1.317  0.00  0.00    +0.048 A 
ATOM      2  C   UNL     1       0.895   2.166   2.218  0.00  0.00    +0.026 A 
ATOM      3  C   UNL     1       2.261   2.012   2.095  0.00  0.00    +0.025 A 
ATOM      4  C   UNL     1       2.783   1.232   1.072  0.00  0.00    +0.032 A 
ATOM      5  C   UNL     1       1.930   0.606   0.172  0.00  0.00    +0.025 A 
ATOM      6  C   UNL     1       0.564   0.760   0.294  0.00  0.00    +0.026 A 
ENDROOT
BRANCH   4   7
ATOM      7  N   UNL     1       4.169   1.075   0.948  0.00  0.00    -0.301 N 
ATOM      8  C   UNL     1       5.010   2.162   1.135  0.00  0.00    +0.105 A 
ATOM      9  C   UNL     1       4.485   3.442   1.292  0.00  0.00    +0.085 A 
ATOM     10  C   UNL     1       5.370   4.499   1.478  0.00  0.00    +0.124 A 
ATOM     11  N   UNL     1       6.678   4.250   1.499  0.00  0.00    -0.220 NA
ATOM     12  C   UNL     1       7.136   3.024   1.347  0.00  0.00    +0.107 A 
ATOM     13  N   UNL     1       6.331   1.996   1.174  0.00  0.00    -0.332 N 
ATOM     14  C   UNL     1       8.625   2.790   1.378  0.00  0.00    +0.086 C 
ATOM     15  H   UNL     1       4.592   0.089   0.701  0.00  0.00    +0.154 HD
ATOM     16  H   UNL     1       6.762   0.991   1.060  0.00  0.00    +0.168 HD
BRANCH  10  17
ATOM     17  N   UNL     1       4.897   5.792   1.639  0.00  0.00    -0.326 N 
ATOM     18  H   UNL     1       5.597   6.608   1.871  0.00  0.00    +0.148 HD
BRANCH  17  19
ATOM     19  C   UNL     1       3.466   6.071   1.500  0.00  0.00    +0.072 C 
ATOM     20  C   UNL     1       3.117   6.223   0.017  0.00  0.00    +0.022 C 
ATOM     21  C   UNL     1       1.623   6.514  -0.128  0.00  0.00    +0.002 C 
ATOM     22  C   UNL     1       1.281   7.810   0.611  0.00  0.00    +0.000 C 
ATOM     23  C   UNL     1       1.629   7.658   2.093  0.00  0.00    +0.002 C 
ATOM     24  C   UNL     1       3.124   7.367   2.239  0.00  0.00    +0.022 C 
ENDBRANCH  17  19
ENDBRANCH  10  17
ENDBRANCH   4   7
BRANCH   1  25
ATOM     25  N   UNL     1      -1.343   1.702   1.438  0.00  0.00    -0.216 N 
ATOM     26  H   UNL     1      -1.813   2.655   1.156  0.00  0.00    +0.174 HD
BRANCH  25  27
ATOM     27  S   UNL     1      -2.275   0.456   2.006  0.00  0.00    +0.073 S 
ATOM     28  O   UNL     1      -3.612   0.937   2.051  0.00  0.00    -0.150 OA
ATOM     29  O   UNL     1      -1.906  -0.698   1.264  0.00  0.00    -0.150 OA
BRANCH  27  35
ATOM     30  C   UNL     1      -3.169   0.662   7.152  0.00  0.00    +0.044 C 
ATOM     31  C   UNL     1      -2.251   0.279   6.020  0.00  0.00    -0.049 A 
ATOM     32  C   UNL     1      -1.027  -0.306   6.290  0.00  0.00    +0.004 A 
ATOM     33  C   UNL     1      -0.185  -0.657   5.252  0.00  0.00    +0.005 A 
ATOM     34  C   UNL     1      -0.569  -0.429   3.943  0.00  0.00    -0.024 A 
ATOM     35  C   UNL     1      -1.789   0.160   3.674  0.00  0.00    +0.112 A 
ATOM     36  C   UNL     1      -2.632   0.511   4.712  0.00  0.00    +0.032 A 
ATOM     37  C   UNL     1       0.347  -0.818   2.811  0.00  0.00    +0.046 C 
ENDBRANCH  27  35
ENDBRANCH  25  27
ENDBRANCH   1  25
TORSDOF 6
