REMARK  Name = ZINC63376028
REMARK  8 active torsions:
REMARK  status: ('A' for Active; 'I' for Inactive)
REMARK    1  A    between atoms: C_1  and  C_2
REMARK    2  A    between atoms: C_7  and  C_8
REMARK    3  A    between atoms: N_26  and  C_29
REMARK    4  A    between atoms: C_34  and  C_35
REMARK    5  A    between atoms: N_37  and  C_38
REMARK    6  A    between atoms: C_38  and  C_39
REMARK    7  A    between atoms: C_39  and  C_40
REMARK    8  A    between atoms: C_39  and  C_41
REMARK                            x       y       z     vdW  Elec       q    Type
REMARK                         _______ _______ _______ _____ _____    ______ ____
ROOT
ATOM      1  C   UNL     1       0.183   0.172   2.422  0.00  0.00    +0.135 C 
ATOM      2  C   UNL     1       1.589   0.774   2.566  0.00  0.00    +0.131 C 
ATOM      3  C   UNL     1       2.522  -0.363   2.958  0.00  0.00    -0.034 C 
ATOM      4  C   UNL     1       3.480  -0.394   2.036  0.00  0.00    -0.001 A 
ATOM      5  C   UNL     1       4.688  -1.225   1.909  0.00  0.00    +0.010 A 
ATOM      6  C   UNL     1       5.461  -0.994   0.814  0.00  0.00    +0.001 A 
ATOM      7  C   UNL     1       5.157  -0.032  -0.153  0.00  0.00    +0.002 A 
ATOM      8  C   UNL     1       4.069   0.779  -0.114  0.00  0.00    +0.026 A 
ATOM      9  C   UNL     1       3.182   0.632   0.992  0.00  0.00    +0.043 A 
ATOM     10  N   UNL     1       2.079   1.296   1.289  0.00  0.00    -0.375 N 
ATOM     11  C   UNL     1       2.276  -1.268   4.143  0.00  0.00    +0.065 C 
ATOM     12  C   UNL     1       0.847  -1.815   3.986  0.00  0.00    +0.169 C 
ATOM     13  N   UNL     1      -0.034  -0.694   3.589  0.00  0.00    -0.264 N 
ATOM     14  C   UNL     1      -1.013  -0.627   4.499  0.00  0.00    +0.317 C 
ATOM     15  O   UNL     1      -1.974   0.111   4.408  0.00  0.00    -0.252 OA
ATOM     16  N   UNL     1      -0.812  -1.470   5.522  0.00  0.00    -0.192 N 
ATOM     17  C   UNL     1       0.308  -2.244   5.333  0.00  0.00    +0.248 C 
ATOM     18  O   UNL     1       0.774  -3.082   6.075  0.00  0.00    -0.273 OA
ATOM     19  H   UNL     1       1.661   1.996   0.764  0.00  0.00    +0.160 HD
ENDROOT
BRANCH   1  26
ATOM     20  C   UNL     1      -1.471   1.076   0.234  0.00  0.00    +0.044 C 
ATOM     21  C   UNL     1      -0.693  -0.208   0.109  0.00  0.00    -0.045 A 
ATOM     22  C   UNL     1      -0.766  -0.950  -1.055  0.00  0.00    +0.004 A 
ATOM     23  C   UNL     1      -0.052  -2.128  -1.170  0.00  0.00    +0.000 A 
ATOM     24  C   UNL     1       0.735  -2.564  -0.120  0.00  0.00    +0.000 A 
ATOM     25  C   UNL     1       0.809  -1.821   1.043  0.00  0.00    +0.006 A 
ATOM     26  C   UNL     1       0.098  -0.641   1.156  0.00  0.00    -0.022 A 
ENDBRANCH   1  26
BRANCH  16  27
ATOM     27  C   UNL     1      -1.644  -1.559   6.640  0.00  0.00    +0.058 A 
ATOM     28  C   UNL     1      -2.715  -2.442   6.644  0.00  0.00    +0.025 A 
ATOM     29  C   UNL     1      -3.535  -2.529   7.750  0.00  0.00    +0.002 A 
ATOM     30  C   UNL     1      -3.298  -1.739   8.863  0.00  0.00    +0.001 A 
ATOM     31  C   UNL     1      -2.239  -0.857   8.877  0.00  0.00    +0.015 A 
ATOM     32  C   UNL     1      -1.397  -0.762   7.767  0.00  0.00    +0.059 A 
BRANCH  32  33
ATOM     33  C   UNL     1      -0.258   0.176   7.777  0.00  0.00    +0.246 C 
ATOM     34  O   UNL     1       0.469   0.260   6.806  0.00  0.00    -0.270 OA
ATOM     35  N   UNL     1      -0.025   0.941   8.862  0.00  0.00    -0.311 N 
ATOM     36  H   UNL     1      -0.606   0.875   9.636  0.00  0.00    +0.149 HD
BRANCH  35  37
ATOM     37  C   UNL     1       1.105   1.873   8.872  0.00  0.00    +0.107 C 
BRANCH  37  38
ATOM     38  C   UNL     1       1.145   2.613  10.211  0.00  0.00    -0.000 C 
ATOM     39  C   UNL     1       1.431   1.616  11.336  0.00  0.00    +0.009 C 
ATOM     40  C   UNL     1       2.247   3.673  10.175  0.00  0.00    +0.009 C 
ENDBRANCH  37  38
ENDBRANCH  35  37
ENDBRANCH  32  33
ENDBRANCH  16  27
TORSDOF 5
