REMARK  Name = ZINC14165974
REMARK  6 active torsions:
REMARK  status: ('A' for Active; 'I' for Inactive)
REMARK    1  A    between atoms: C_1  and  C_2
REMARK    2  A    between atoms: C_5  and  N_9
REMARK    3  A    between atoms: C_7  and  C_8
REMARK    4  A    between atoms: N_9  and  S_10
REMARK    5  A    between atoms: S_10  and  C_13
REMARK    6  A    between atoms: C_26  and  C_29
REMARK                            x       y       z     vdW  Elec       q    Type
REMARK                         _______ _______ _______ _____ _____    ______ ____
ROOT
ATOM      1  C   UNL     1      -2.866   5.519   2.435  0.00  0.00    +0.109 A 
ATOM      2  C   UNL     1      -1.763   6.351   2.480  0.00  0.00    +0.030 A 
ATOM      3  C   UNL     1      -1.645   7.381   1.568  0.00  0.00    +0.025 A 
ATOM      4  C   UNL     1      -2.637   7.584   0.617  0.00  0.00    +0.031 A 
ATOM      5  C   UNL     1      -3.747   6.755   0.570  0.00  0.00    -0.018 A 
ATOM      6  C   UNL     1      -3.852   5.721   1.490  0.00  0.00    +0.034 A 
ATOM      7  C   UNL     1      -4.839   6.934  -0.436  0.00  0.00    +0.049 C 
ATOM      8  C   UNL     1      -4.760   5.889  -1.524  0.00  0.00    -0.023 C 
ATOM      9  C   UNL     1      -5.103   6.408  -2.678  0.00  0.00    -0.030 C 
ATOM     10  C   UNL     1      -5.462   7.872  -2.515  0.00  0.00    +0.033 C 
ATOM     11  C   UNL     1      -4.736   8.266  -1.204  0.00  0.00    +0.029 C 
ATOM     12  C   UNL     1      -3.274   8.556  -1.556  0.00  0.00    +0.106 C 
ATOM     13  N   UNL     1      -2.490   8.615  -0.319  0.00  0.00    -0.336 N 
ATOM     14  H   UNL     1      -1.889   9.356  -0.146  0.00  0.00    +0.147 HD
ENDROOT
BRANCH  12  15
ATOM     15  C   UNL     1      -2.742   7.458  -2.442  0.00  0.00    -0.013 A 
ATOM     16  C   UNL     1      -2.254   6.293  -1.881  0.00  0.00    +0.006 A 
ATOM     17  C   UNL     1      -1.766   5.287  -2.693  0.00  0.00    +0.000 A 
ATOM     18  C   UNL     1      -1.766   5.445  -4.067  0.00  0.00    +0.001 A 
ATOM     19  C   UNL     1      -2.254   6.610  -4.628  0.00  0.00    +0.015 A 
ATOM     20  C   UNL     1      -2.747   7.615  -3.816  0.00  0.00    +0.023 A 
ATOM     21 BR   UNL     1      -3.421   9.206  -4.584  0.00  0.00    -0.050 Br
ENDBRANCH  12  15
BRANCH   1  22
ATOM     22  S   UNL     1      -3.018   4.201   3.594  0.00  0.00    +0.072 S 
ATOM     23  O   UNL     1      -4.405   3.907   3.696  0.00  0.00    -0.150 OA
ATOM     24  O   UNL     1      -2.231   4.558   4.721  0.00  0.00    -0.150 OA
BRANCH  22  25
ATOM     25  N   UNL     1      -2.301   2.870   2.918  0.00  0.00    -0.216 N 
ATOM     26  H   UNL     1      -2.836   2.091   2.695  0.00  0.00    +0.174 HD
BRANCH  25  31
ATOM     27  C   UNL     1       3.278   2.863   1.902  0.00  0.00    +0.044 C 
ATOM     28  C   UNL     1       1.795   2.864   2.172  0.00  0.00    -0.047 A 
ATOM     29  C   UNL     1       1.314   3.334   3.381  0.00  0.00    +0.005 A 
ATOM     30  C   UNL     1      -0.044   3.338   3.631  0.00  0.00    +0.025 A 
ATOM     31  C   UNL     1      -0.927   2.868   2.667  0.00  0.00    +0.048 A 
ATOM     32  C   UNL     1      -0.442   2.402   1.453  0.00  0.00    +0.028 A 
ATOM     33  C   UNL     1       0.918   2.396   1.211  0.00  0.00    -0.046 A 
ATOM     34  C   UNL     1       1.447   1.886  -0.105  0.00  0.00    +0.044 C 
ENDBRANCH  25  31
ENDBRANCH  22  25
ENDBRANCH   1  22
TORSDOF 4
