REMARK  Name = ZINC28736560
REMARK  3 active torsions:
REMARK  status: ('A' for Active; 'I' for Inactive)
REMARK    1  A    between atoms: C_1  and  C_2
REMARK    2  A    between atoms: N_5  and  C_9
REMARK    3  A    between atoms: C_9  and  N_10
REMARK                            x       y       z     vdW  Elec       q    Type
REMARK                         _______ _______ _______ _____ _____    ______ ____
ROOT
ATOM      1  N   UNL     1      -2.345   0.871  -3.549  0.00  0.00    -0.289 N 
ATOM      2  C   UNL     1      -1.310   1.323  -4.367  0.00  0.00    +0.089 A 
ATOM      3  C   UNL     1      -0.511   2.455  -4.352  0.00  0.00    +0.029 A 
ATOM      4  C   UNL     1       0.462   2.623  -5.319  0.00  0.00    +0.002 A 
ATOM      5  C   UNL     1       0.643   1.661  -6.297  0.00  0.00    +0.004 A 
ATOM      6  C   UNL     1      -0.147   0.527  -6.315  0.00  0.00    +0.048 A 
ATOM      7  C   UNL     1      -1.125   0.351  -5.349  0.00  0.00    +0.154 A 
ATOM      8  O   UNL     1      -2.028  -0.633  -5.118  0.00  0.00    -0.431 OA
ATOM      9  C   UNL     1      -2.758  -0.315  -4.036  0.00  0.00    +0.250 A 
ATOM     10  S   UNL     1      -4.018  -1.270  -3.378  0.00  0.00    +0.009 S 
ENDROOT
BRANCH   1  11
ATOM     11  C   UNL     1      -2.888   1.563  -2.377  0.00  0.00    +0.213 C 
BRANCH  11  15
ATOM     12  C   UNL     1      -2.682   1.702   2.538  0.00  0.00    +0.039 C 
ATOM     13  C   UNL     1      -2.049   1.128   1.269  0.00  0.00    +0.129 C 
ATOM     14  C   UNL     1      -2.812   1.636   0.042  0.00  0.00    +0.117 C 
ATOM     15  N   UNL     1      -2.154   1.144  -1.177  0.00  0.00    -0.280 NA
ATOM     16  C   UNL     1      -0.755   1.594  -1.231  0.00  0.00    +0.114 C 
ATOM     17  C   UNL     1      -0.013   1.086   0.008  0.00  0.00    +0.175 C 
ATOM     18  O   UNL     1      -0.684   1.548   1.183  0.00  0.00    -0.374 OA
ENDBRANCH  11  15
ENDBRANCH   1  11
TORSDOF 2
