REMARK  Name = ZINC44855191
REMARK  7 active torsions:
REMARK  status: ('A' for Active; 'I' for Inactive)
REMARK    1  A    between atoms: C_1  and  C_2
REMARK    2  A    between atoms: C_8  and  N_15
REMARK    3  A    between atoms: C_11  and  C_13
REMARK    4  A    between atoms: C_11  and  C_14
REMARK    5  A    between atoms: C_16  and  C_18
REMARK    6  A    between atoms: N_23  and  C_25
REMARK    7  A    between atoms: C_25  and  C_26
REMARK                            x       y       z     vdW  Elec       q    Type
REMARK                         _______ _______ _______ _____ _____    ______ ____
ROOT
ATOM      1  N   UNL     1       0.960  -2.140   3.437  0.00  0.00    -0.308 N 
ATOM      2  C   UNL     1       0.536  -1.087   4.163  0.00  0.00    +0.215 C 
ATOM      3  O   UNL     1      -0.607  -0.696   4.054  0.00  0.00    -0.276 OA
ATOM      4  H   UNL     1       1.874  -2.452   3.524  0.00  0.00    +0.149 HD
ENDROOT
BRANCH   1  12
ATOM      5  C   UNL     1      -0.018   1.503   0.010  0.00  0.00    +0.044 C 
ATOM      6  C   UNL     1       0.002  -0.004   0.002  0.00  0.00    -0.050 A 
ATOM      7  C   UNL     1       0.006  -0.689  -1.199  0.00  0.00    +0.007 A 
ATOM      8  C   UNL     1       0.026  -2.069  -1.206  0.00  0.00    +0.046 A 
ATOM      9  C   UNL     1       0.042  -2.774  -0.006  0.00  0.00    +0.126 A 
ATOM     10  C   UNL     1       0.035  -2.086   1.194  0.00  0.00    +0.015 A 
ATOM     11  C   UNL     1       0.023  -0.701   1.194  0.00  0.00    +0.012 A 
ATOM     12  C   UNL     1       0.041  -2.812   2.515  0.00  0.00    +0.110 C 
ATOM     13  C   UNL     1       0.497  -4.258   2.308  0.00  0.00    +0.074 C 
ATOM     14  C   UNL     1      -0.290  -4.847   1.130  0.00  0.00    +0.107 C 
ATOM     15  O   UNL     1       0.068  -4.132  -0.053  0.00  0.00    -0.486 OA
ATOM     16  C   UNL     1       0.061  -6.327   0.963  0.00  0.00    +0.055 C 
ATOM     17  C   UNL     1      -1.791  -4.699   1.387  0.00  0.00    +0.055 C 
ENDBRANCH   1  12
BRANCH   2  18
ATOM     18  C   UNL     1       1.482  -0.395   5.111  0.00  0.00    +0.058 C 
ATOM     19  C   UNL     1       1.973  -1.394   6.163  0.00  0.00    +0.009 C 
ATOM     20  C   UNL     1       2.871  -0.664   7.166  0.00  0.00    -0.018 C 
ATOM     21  C   UNL     1       2.092   0.498   7.788  0.00  0.00    -0.078 C 
ATOM     22  N   UNL     1       1.674   1.430   6.734  0.00  0.00    +0.383 N 
ATOM     23  C   UNL     1       0.755   0.757   5.808  0.00  0.00    -0.066 C 
ATOM     24  H   UNL     1       2.486   1.750   6.228  0.00  0.00    -0.081 HD
BRANCH  22  25
ATOM     25  C   UNL     1       0.995   2.582   7.343  0.00  0.00    -0.043 C 
BRANCH  25  26
ATOM     26  C   UNL     1       1.975   3.351   8.192  0.00  0.00    -0.062 A 
ATOM     27  C   UNL     1       2.136   3.028   9.526  0.00  0.00    +0.003 A 
ATOM     28  C   UNL     1       3.034   3.733  10.306  0.00  0.00    +0.021 A 
ATOM     29  C   UNL     1       3.772   4.763   9.750  0.00  0.00    +0.059 A 
ATOM     30  C   UNL     1       3.611   5.087   8.414  0.00  0.00    +0.059 A 
ATOM     31  C   UNL     1       2.715   4.376   7.634  0.00  0.00    +0.023 A 
ATOM     32 CL   UNL     1       4.535   6.379   7.716  0.00  0.00    -0.082 Cl
ATOM     33 CL   UNL     1       4.899   5.649  10.729  0.00  0.00    -0.082 Cl
ENDBRANCH  25  26
ENDBRANCH  22  25
ENDBRANCH   2  18
TORSDOF 4
