REMARK  Name = ZINC10336748
REMARK  2 active torsions:
REMARK  status: ('A' for Active; 'I' for Inactive)
REMARK    1  A    between atoms: C_5  and  C_7
REMARK    2  A    between atoms: C_18  and  C_20
REMARK                            x       y       z     vdW  Elec       q    Type
REMARK                         _______ _______ _______ _____ _____    ______ ____
ROOT
ATOM      1  C   UNL     1       1.325  -2.126  -0.092  0.00  0.00    +0.163 C 
ATOM      2  C   UNL     1       1.593  -2.622   1.312  0.00  0.00    +0.027 C 
ATOM      3  C   UNL     1       0.668  -3.413   1.894  0.00  0.00    +0.083 C 
ATOM      4  C   UNL     1       0.950  -3.900   3.268  0.00  0.00    +0.044 A 
ATOM      5  C   UNL     1      -0.050  -4.441   4.064  0.00  0.00    +0.033 A 
ATOM      6  C   UNL     1       0.256  -4.882   5.339  0.00  0.00    +0.042 A 
ATOM      7  C   UNL     1       1.551  -4.783   5.818  0.00  0.00    +0.023 A 
ATOM      8  C   UNL     1       2.553  -4.246   5.029  0.00  0.00    +0.048 A 
ATOM      9  C   UNL     1       2.261  -3.803   3.752  0.00  0.00    +0.131 A 
ATOM     10  O   UNL     1       3.226  -3.279   2.954  0.00  0.00    -0.479 OA
ATOM     11  C   UNL     1       2.845  -2.242   2.047  0.00  0.00    +0.235 C 
ATOM     12 CL   UNL     1      -0.988  -5.560   6.342  0.00  0.00    -0.084 Cl
ATOM     13  N   UNL     1      -0.477  -3.755   1.253  0.00  0.00    -0.213 NA
ATOM     14  C   UNL     1      -0.786  -3.368   0.043  0.00  0.00    +0.232 C 
ATOM     15  N   UNL     1       0.057  -2.558  -0.689  0.00  0.00    -0.193 N 
ATOM     16  N   UNL     1      -0.583  -2.351  -1.911  0.00  0.00    -0.165 N 
ATOM     17  N   UNL     1      -1.703  -2.990  -1.875  0.00  0.00    -0.086 NA
ATOM     18  N   UNL     1      -1.859  -3.595  -0.762  0.00  0.00    -0.231 N 
ATOM     19  H   UNL     1      -0.247  -1.824  -2.652  0.00  0.00    +0.195 HD
ATOM     20  H   UNL     1      -2.630  -4.133  -0.525  0.00  0.00    +0.193 HD
ENDROOT
BRANCH   1  25
ATOM     21  C   UNL     1       0.197   1.467   0.183  0.00  0.00    +0.001 A 
ATOM     22  C   UNL     1       1.382   2.147  -0.031  0.00  0.00    +0.003 A 
ATOM     23  C   UNL     1       2.549   1.446  -0.265  0.00  0.00    +0.039 A 
ATOM     24  C   UNL     1       2.532   0.061  -0.285  0.00  0.00    +0.129 A 
ATOM     25  C   UNL     1       1.345  -0.619  -0.070  0.00  0.00    +0.014 A 
ATOM     26  C   UNL     1       0.179   0.085   0.164  0.00  0.00    +0.008 A 
ATOM     27  F   UNL     1       3.673  -0.626  -0.514  0.00  0.00    -0.205 F 
ENDBRANCH   1  25
BRANCH  11  28
ATOM     28  C   UNL     1       2.604  -0.970   2.818  0.00  0.00    +0.004 A 
ATOM     29  C   UNL     1       3.238   0.203   2.453  0.00  0.00    +0.015 A 
ATOM     30  C   UNL     1       3.000   1.329   3.168  0.00  0.00    +0.045 A 
ATOM     31  S   UNL     1       1.847   0.747   4.401  0.00  0.00    -0.105 S 
ATOM     32  C   UNL     1       1.758  -0.957   3.877  0.00  0.00    +0.052 A 
ENDBRANCH  11  28
TORSDOF 2
