REMARK  Name = ZINC27664422
REMARK  8 active torsions:
REMARK  status: ('A' for Active; 'I' for Inactive)
REMARK    1  A    between atoms: C_1  and  C_2
REMARK    2  A    between atoms: C_2  and  C_4
REMARK    3  A    between atoms: C_7  and  C_10
REMARK    4  A    between atoms: C_13  and  C_15
REMARK    5  A    between atoms: C_17  and  C_29
REMARK    6  A    between atoms: C_19  and  C_24
REMARK    7  A    between atoms: C_19  and  O_28
REMARK    8  A    between atoms: C_29  and  C_31
REMARK                            x       y       z     vdW  Elec       q    Type
REMARK                         _______ _______ _______ _____ _____    ______ ____
ROOT
ATOM      1  C   UNL     1      -1.594   4.404   0.064  0.00  0.00    +0.156 C 
ATOM      2  C   UNL     1      -1.699   4.985  -1.350  0.00  0.00    +0.148 C 
ATOM      3  C   UNL     1      -2.496   6.292  -1.283  0.00  0.00    +0.243 C 
ATOM      4  N   UNL     1      -1.861   7.193  -0.320  0.00  0.00    -0.264 N 
ATOM      5  C   UNL     1      -1.170   6.720   0.728  0.00  0.00    +0.302 C 
ATOM      6  O   UNL     1      -0.670   7.512   1.503  0.00  0.00    -0.253 OA
ATOM      7  N   UNL     1      -1.008   5.408   0.954  0.00  0.00    -0.289 N 
ATOM      8  H   UNL     1      -1.945   8.282  -0.448  0.00  0.00    +0.153 HD
ATOM      9  H   UNL     1      -0.420   5.091   1.828  0.00  0.00    +0.151 HD
ENDROOT
BRANCH   1  13
ATOM     10  C   UNL     1       1.069   1.904   0.009  0.00  0.00    +0.135 A 
ATOM     11  C   UNL     1      -0.013   1.077   0.007  0.00  0.00    +0.050 A 
ATOM     12  C   UNL     1      -1.153   1.901   0.022  0.00  0.00    +0.047 A 
ATOM     13  C   UNL     1      -0.718   3.178   0.041  0.00  0.00    +0.127 A 
ATOM     14  O   UNL     1       0.624   3.175   0.030  0.00  0.00    -0.458 OA
BRANCH  10  18
ATOM     15  C   UNL     1       5.131   0.690  -0.041  0.00  0.00    +0.017 A 
ATOM     16  C   UNL     1       4.807   2.053  -0.020  0.00  0.00    +0.012 A 
ATOM     17  C   UNL     1       3.499   2.443  -0.004  0.00  0.00    +0.012 A 
ATOM     18  C   UNL     1       2.482   1.482  -0.008  0.00  0.00    +0.017 A 
ATOM     19  C   UNL     1       2.805   0.120  -0.024  0.00  0.00    +0.012 A 
ATOM     20  C   UNL     1       4.112  -0.272  -0.046  0.00  0.00    +0.012 A 
BRANCH  15  22
ATOM     21  C   UNL     1       6.888  -1.192   0.043  0.00  0.00    +0.091 C 
ATOM     22  C   UNL     1       6.537   0.270  -0.059  0.00  0.00    +0.160 C 
ATOM     23  O   UNL     1       7.417   1.099  -0.157  0.00  0.00    -0.292 OA
ENDBRANCH  15  22
ENDBRANCH  10  18
ENDBRANCH   1  13
BRANCH   3  24
ATOM     24  C   UNL     1      -2.518   6.949  -2.664  0.00  0.00    +0.436 C 
ATOM     25  F   UNL     1      -3.119   6.084  -3.583  0.00  0.00    -0.166 F 
ATOM     26  F   UNL     1      -3.246   8.142  -2.601  0.00  0.00    -0.166 F 
ATOM     27  F   UNL     1      -1.207   7.224  -3.070  0.00  0.00    -0.166 F 
ENDBRANCH   3  24
BRANCH   3  28
ATOM     28  O   UNL     1      -3.834   6.014  -0.865  0.00  0.00    -0.364 OA
ATOM     29  H   UNL     1      -4.559   6.834  -0.759  0.00  0.00    +0.212 HD
ENDBRANCH   3  28
BRANCH   2  30
ATOM     30  C   UNL     1      -2.408   4.005  -2.248  0.00  0.00    +0.180 C 
ATOM     31  O   UNL     1      -3.604   4.106  -2.433  0.00  0.00    -0.291 OA
BRANCH  30  32
ATOM     32  C   UNL     1      -1.682   2.969  -2.876  0.00  0.00    +0.055 A 
ATOM     33  C   UNL     1      -2.139   1.972  -3.732  0.00  0.00    +0.019 A 
ATOM     34  C   UNL     1      -1.209   1.083  -4.205  0.00  0.00    +0.008 A 
ATOM     35  C   UNL     1       0.090   1.214  -3.823  0.00  0.00    +0.046 A 
ATOM     36  S   UNL     1       0.061   2.602  -2.784  0.00  0.00    -0.094 S 
ENDBRANCH  30  32
ENDBRANCH   2  30
TORSDOF 7
