REMARK  Name = ZINC16075587
REMARK  5 active torsions:
REMARK  status: ('A' for Active; 'I' for Inactive)
REMARK    1  A    between atoms: C_1  and  C_2
REMARK    2  A    between atoms: N_5  and  C_11
REMARK    3  A    between atoms: C_7  and  C_10
REMARK    4  A    between atoms: C_11  and  N_12
REMARK    5  A    between atoms: N_19  and  C_22
REMARK                            x       y       z     vdW  Elec       q    Type
REMARK                         _______ _______ _______ _____ _____    ______ ____
ROOT
ATOM      1  N   UNL     1      -0.016   1.342   0.009  0.00  0.00    -0.306 N 
ATOM      2  C   UNL     1       1.299   1.799  -0.001  0.00  0.00    +0.069 A 
ATOM      3  C   UNL     1       1.867   3.064  -0.000  0.00  0.00    +0.028 A 
ATOM      4  C   UNL     1       3.242   3.200  -0.013  0.00  0.00    +0.002 A 
ATOM      5  C   UNL     1       4.054   2.079  -0.027  0.00  0.00    +0.002 A 
ATOM      6  C   UNL     1       3.498   0.815  -0.027  0.00  0.00    +0.028 A 
ATOM      7  C   UNL     1       2.119   0.668  -0.015  0.00  0.00    +0.067 A 
ATOM      8  N   UNL     1       1.276  -0.440  -0.013  0.00  0.00    -0.322 N 
ATOM      9  C   UNL     1       0.002  -0.004   0.002  0.00  0.00    +0.162 A 
ATOM     10  S   UNL     1      -1.384  -1.009   0.009  0.00  0.00    -0.013 S 
ATOM     11  C   UNL     1       1.702  -1.841  -0.023  0.00  0.00    +0.151 C 
ENDROOT
BRANCH   1  12
ATOM     12  C   UNL     1      -1.216   2.183   0.020  0.00  0.00    +0.212 C 
BRANCH  12  16
ATOM     13  C   UNL     1      -4.144   4.792   2.994  0.00  0.00    +0.039 C 
ATOM     14  C   UNL     1      -2.997   3.782   2.929  0.00  0.00    +0.130 C 
ATOM     15  C   UNL     1      -2.659   3.485   1.465  0.00  0.00    +0.117 C 
ATOM     16  N   UNL     1      -1.609   2.457   1.408  0.00  0.00    -0.280 NA
ATOM     17  C   UNL     1      -2.047   1.227   2.084  0.00  0.00    +0.117 C 
ATOM     18  C   UNL     1      -2.390   1.547   3.542  0.00  0.00    +0.130 C 
ATOM     19  O   UNL     1      -3.389   2.570   3.578  0.00  0.00    -0.371 OA
ATOM     20  C   UNL     1      -1.135   2.034   4.268  0.00  0.00    +0.039 C 
ENDBRANCH  12  16
ENDBRANCH   1  12
TORSDOF 2
