REMARK  Name = ZINC67622655
REMARK  8 active torsions:
REMARK  status: ('A' for Active; 'I' for Inactive)
REMARK    1  A    between atoms: C_1  and  C_2
REMARK    2  A    between atoms: C_2  and  C_3
REMARK    3  A    between atoms: C_2  and  C_4
REMARK    4  A    between atoms: C_4  and  C_6
REMARK    5  A    between atoms: C_4  and  N_13
REMARK    6  A    between atoms: N_16  and  C_17
REMARK    7  A    between atoms: N_22  and  S_24
REMARK    8  A    between atoms: S_24  and  C_27
REMARK                            x       y       z     vdW  Elec       q    Type
REMARK                         _______ _______ _______ _____ _____    ______ ____
ROOT
ATOM      1  N   UNL     1       2.116  -0.004   1.231  0.00  0.00    -0.292 N 
ATOM      2  C   UNL     1       2.387   1.219   1.728  0.00  0.00    +0.300 C 
ATOM      3  O   UNL     1       1.491   1.902   2.186  0.00  0.00    -0.253 OA
ATOM      4  N   UNL     1       3.652   1.686   1.719  0.00  0.00    -0.295 N 
ATOM      5  H   UNL     1       2.832  -0.548   0.866  0.00  0.00    +0.151 HD
ATOM      6  H   UNL     1       4.367   1.141   1.354  0.00  0.00    +0.151 HD
ENDROOT
BRANCH   4   7
ATOM      7  C   UNL     1       3.946   3.015   2.259  0.00  0.00    +0.090 C 
ATOM      8  C   UNL     1       3.706   4.071   1.178  0.00  0.00    +0.025 C 
ATOM      9  C   UNL     1       3.982   5.463   1.751  0.00  0.00    +0.019 C 
ATOM     10  C   UNL     1       5.446   5.548   2.193  0.00  0.00    +0.109 C 
ATOM     11  N   UNL     1       5.723   4.446   3.124  0.00  0.00    -0.180 NA
ATOM     12  C   UNL     1       5.410   3.072   2.708  0.00  0.00    +0.131 C 
BRANCH  11  13
ATOM     13  S   UNL     1       6.378   4.746   4.616  0.00  0.00    +0.029 S 
ATOM     14  O   UNL     1       7.057   3.547   4.962  0.00  0.00    -0.158 OA
ATOM     15  O   UNL     1       7.093   5.964   4.460  0.00  0.00    -0.158 OA
ATOM     16  C   UNL     1       4.952   4.994   5.709  0.00  0.00    +0.215 C 
ENDBRANCH  11  13
ENDBRANCH   4   7
BRANCH   1  17
ATOM     17  C   UNL     1       0.742  -0.511   1.242  0.00  0.00    +0.107 C 
BRANCH  17  18
ATOM     18  C   UNL     1       0.762  -2.018   1.233  0.00  0.00    -0.027 A 
ATOM     19  C   UNL     1       1.685  -2.692   0.456  0.00  0.00    +0.007 A 
ATOM     20  C   UNL     1       1.705  -4.074   0.448  0.00  0.00    +0.020 A 
ATOM     21  C   UNL     1       0.800  -4.783   1.218  0.00  0.00    +0.041 A 
ATOM     22  C   UNL     1      -0.123  -4.107   1.996  0.00  0.00    +0.020 A 
ATOM     23  C   UNL     1      -0.138  -2.725   2.008  0.00  0.00    +0.007 A 
ATOM     24 CL   UNL     1       0.823  -6.518   1.208  0.00  0.00    -0.084 Cl
ENDBRANCH  17  18
BRANCH  17  26
ATOM     25  C   UNL     1      -0.019   1.526   0.010  0.00  0.00    +0.009 C 
ATOM     26  C   UNL     1       0.002  -0.004   0.002  0.00  0.00    +0.008 C 
ATOM     27  C   UNL     1       0.718  -0.497  -1.257  0.00  0.00    +0.009 C 
ENDBRANCH  17  26
ENDBRANCH   1  17
TORSDOF 5
