REMARK  Name = ZINC39226348
REMARK  7 active torsions:
REMARK  status: ('A' for Active; 'I' for Inactive)
REMARK    1  A    between atoms: C_1  and  N_2
REMARK    2  A    between atoms: C_9  and  O_31
REMARK    3  A    between atoms: C_13  and  C_18
REMARK    4  A    between atoms: C_22  and  C_24
REMARK    5  A    between atoms: N_26  and  O_27
REMARK    6  A    between atoms: O_27  and  C_28
REMARK    7  A    between atoms: C_28  and  C_29
REMARK                            x       y       z     vdW  Elec       q    Type
REMARK                         _______ _______ _______ _____ _____    ______ ____
ROOT
ATOM      1  C   UNL     1      -0.018   1.465   0.010  0.00  0.00    -0.096 C 
ATOM      2  N   UNL     1       0.002  -0.004   0.002  0.00  0.00    +0.378 N 
ATOM      3  C   UNL     1      -1.376  -0.511   0.004  0.00  0.00    -0.075 C 
ATOM      4  C   UNL     1      -1.361  -2.038  -0.089  0.00  0.00    +0.029 C 
ATOM      5  C   UNL     1      -0.600  -2.611   1.109  0.00  0.00    +0.110 C 
ATOM      6  C   UNL     1       0.809  -2.016   1.146  0.00  0.00    +0.029 C 
ATOM      7  C   UNL     1       0.712  -0.489   1.192  0.00  0.00    -0.075 C 
ATOM      8  C   UNL     1      -0.510  -4.135   0.975  0.00  0.00    +0.084 C 
ATOM      9  C   UNL     1       0.342  -4.671   2.128  0.00  0.00    +0.152 C 
ATOM     10  C   UNL     1      -0.129  -4.072   3.429  0.00  0.00    +0.023 A 
ATOM     11  C   UNL     1       0.228  -4.694   4.612  0.00  0.00    +0.018 A 
ATOM     12  C   UNL     1      -0.185  -4.165   5.832  0.00  0.00    -0.017 A 
ATOM     13  C   UNL     1      -0.959  -3.007   5.858  0.00  0.00    +0.012 A 
ATOM     14  C   UNL     1      -1.314  -2.393   4.677  0.00  0.00    +0.046 A 
ATOM     15  C   UNL     1      -0.904  -2.925   3.457  0.00  0.00    +0.127 A 
ATOM     16  O   UNL     1      -1.291  -2.296   2.316  0.00  0.00    -0.485 OA
ATOM     17  H   UNL     1       0.477  -0.329  -0.827  0.00  0.00    -0.082 HD
ENDROOT
BRANCH  12  18
ATOM     18  C   UNL     1       0.198  -4.834   7.100  0.00  0.00    -0.017 A 
ATOM     19  C   UNL     1       0.977  -5.990   7.073  0.00  0.00    +0.008 A 
ATOM     20  C   UNL     1       1.335  -6.614   8.252  0.00  0.00    +0.001 A 
ATOM     21  C   UNL     1       0.924  -6.098   9.465  0.00  0.00    +0.013 A 
ATOM     22  C   UNL     1       0.144  -4.941   9.506  0.00  0.00    +0.039 A 
ATOM     23  C   UNL     1      -0.215  -4.305   8.318  0.00  0.00    +0.021 A 
BRANCH  22  24
ATOM     24  C   UNL     1      -0.296  -4.389  10.805  0.00  0.00    +0.267 C 
ATOM     25  O   UNL     1      -0.975  -3.381  10.838  0.00  0.00    -0.268 OA
ATOM     26  N   UNL     1       0.056  -5.003  11.952  0.00  0.00    -0.190 N 
ATOM     27  H   UNL     1       0.598  -5.807  11.925  0.00  0.00    +0.183 HD
BRANCH  26  28
ATOM     28  O   UNL     1      -0.365  -4.474  13.196  0.00  0.00    -0.276 OA
BRANCH  28  29
ATOM     29  C   UNL     1       0.081  -5.225  14.327  0.00  0.00    +0.217 C 
BRANCH  29  30
ATOM     30  C   UNL     1      -0.422  -4.575  15.591  0.00  0.00    -0.005 C 
ATOM     31  C   UNL     1      -0.946  -5.310  16.541  0.00  0.00    +0.006 C 
ENDBRANCH  29  30
ENDBRANCH  28  29
ENDBRANCH  26  28
ENDBRANCH  22  24
ENDBRANCH  12  18
BRANCH   9  32
ATOM     32  O   UNL     1       0.218  -6.094   2.188  0.00  0.00    -0.387 OA
ATOM     33  H   UNL     1       0.732  -6.504   2.897  0.00  0.00    +0.210 HD
ENDBRANCH   9  32
TORSDOF 6
