REMARK  Name = ZINC08820668
REMARK  9 active torsions:
REMARK  status: ('A' for Active; 'I' for Inactive)
REMARK    1  A    between atoms: C_1  and  C_2
REMARK    2  A    between atoms: C_5  and  S_8
REMARK    3  A    between atoms: S_8  and  N_11
REMARK    4  A    between atoms: N_11  and  N_12
REMARK    5  A    between atoms: C_13  and  C_15
REMARK    6  A    between atoms: C_15  and  N_16
REMARK    7  A    between atoms: C_20  and  C_21
REMARK    8  A    between atoms: C_21  and  C_29
REMARK    9  A    between atoms: C_22  and  C_23
REMARK                            x       y       z     vdW  Elec       q    Type
REMARK                         _______ _______ _______ _____ _____    ______ ____
ROOT
ATOM      1  C   UNL     1       2.659   1.201   1.232  0.00  0.00    +0.212 C 
ENDROOT
BRANCH   1   2
ATOM      2  N   UNL     1       3.670   1.011   2.275  0.00  0.00    -0.246 N 
ATOM      3  C   UNL     1       4.649   0.144   2.076  0.00  0.00    +0.259 C 
ATOM      4  O   UNL     1       4.731  -0.501   1.047  0.00  0.00    -0.269 OA
ATOM      5  C   UNL     1       5.635  -0.002   3.163  0.00  0.00    +0.077 C 
ATOM      6  C   UNL     1       6.734  -0.807   3.238  0.00  0.00    +0.023 C 
ATOM      7  S   UNL     1       4.994   1.166   4.356  0.00  0.00    -0.061 S 
ATOM      8  C   UNL     1       3.585   1.728   3.414  0.00  0.00    +0.121 C 
ATOM      9  S   UNL     1       2.409   2.892   3.853  0.00  0.00    -0.027 S 
BRANCH   6  10
ATOM     10  C   UNL     1       7.460  -0.897   4.441  0.00  0.00    -0.049 C 
ATOM     11  C   UNL     1       8.618  -1.598   4.483  0.00  0.00    +0.011 C 
ATOM     12  C   UNL     1       6.949  -0.213   5.683  0.00  0.00    +0.044 C 
BRANCH  11  13
ATOM     13  C   UNL     1       9.436  -1.595   5.704  0.00  0.00    -0.025 A 
ATOM     14  C   UNL     1       9.538  -0.434   6.479  0.00  0.00    +0.008 A 
ATOM     15  C   UNL     1      10.303  -0.441   7.626  0.00  0.00    +0.001 A 
ATOM     16  C   UNL     1      10.979  -1.588   8.005  0.00  0.00    +0.000 A 
ATOM     17  C   UNL     1      10.888  -2.739   7.241  0.00  0.00    +0.001 A 
ATOM     18  C   UNL     1      10.123  -2.750   6.094  0.00  0.00    +0.008 A 
ENDBRANCH  11  13
ENDBRANCH   6  10
ENDBRANCH   1   2
BRANCH   1  20
ATOM     19  N   UNL     1       0.469   0.233   0.612  0.00  0.00    -0.231 N 
ATOM     20  C   UNL     1       1.520   0.239   1.454  0.00  0.00    +0.246 C 
ATOM     21  O   UNL     1       1.551  -0.530   2.392  0.00  0.00    -0.273 OA
ATOM     22  H   UNL     1       0.445   0.848  -0.138  0.00  0.00    +0.171 HD
BRANCH  19  23
ATOM     23  N   UNL     1      -0.590  -0.661   0.819  0.00  0.00    -0.108 NA
ATOM     24  H   UNL     1      -0.414  -1.613   0.886  0.00  0.00    +0.172 HD
BRANCH  23  25
ATOM     25  S   UNL     1      -2.141  -0.094   0.941  0.00  0.00    +0.074 S 
ATOM     26  O   UNL     1      -2.987  -1.235   0.994  0.00  0.00    -0.152 OA
ATOM     27  O   UNL     1      -2.132   0.895   1.961  0.00  0.00    -0.152 OA
BRANCH  25  32
ATOM     28  C   UNL     1      -3.410   2.759  -4.221  0.00  0.00    +0.044 C 
ATOM     29  C   UNL     1      -3.094   2.046  -2.932  0.00  0.00    -0.050 A 
ATOM     30  C   UNL     1      -3.359   0.696  -2.805  0.00  0.00    +0.005 A 
ATOM     31  C   UNL     1      -3.068   0.042  -1.623  0.00  0.00    +0.029 A 
ATOM     32  C   UNL     1      -2.512   0.739  -0.566  0.00  0.00    +0.107 A 
ATOM     33  C   UNL     1      -2.252   2.091  -0.691  0.00  0.00    +0.029 A 
ATOM     34  C   UNL     1      -2.539   2.744  -1.875  0.00  0.00    +0.005 A 
ENDBRANCH  25  32
ENDBRANCH  23  25
ENDBRANCH  19  23
ENDBRANCH   1  20
TORSDOF 7
