REMARK  Name = ZINC11782402
REMARK  7 active torsions:
REMARK  status: ('A' for Active; 'I' for Inactive)
REMARK    1  A    between atoms: C_1  and  C_2
REMARK    2  A    between atoms: C_4  and  C_7
REMARK    3  A    between atoms: C_7  and  C_9
REMARK    4  A    between atoms: C_7  and  N_10
REMARK    5  A    between atoms: C_21  and  N_53
REMARK    6  A    between atoms: C_25  and  C_26
REMARK    7  A    between atoms: C_25  and  N_53
REMARK                            x       y       z     vdW  Elec       q    Type
REMARK                         _______ _______ _______ _____ _____    ______ ____
ROOT
ATOM      1  N   UNL     1      -0.016   1.342   0.009  0.00  0.00    -0.290 N 
ATOM      2  C   UNL     1       1.134   2.064   0.002  0.00  0.00    +0.203 A 
ATOM      3  N   UNL     1       2.301   1.477  -0.012  0.00  0.00    -0.230 NA
ATOM      4  C   UNL     1       2.398   0.151  -0.020  0.00  0.00    +0.116 A 
ATOM      5  C   UNL     1       1.266  -0.679  -0.014  0.00  0.00    +0.076 A 
ATOM      6  C   UNL     1       0.002  -0.004   0.002  0.00  0.00    +0.263 A 
ATOM      7  O   UNL     1      -1.039  -0.638   0.008  0.00  0.00    -0.267 OA
ATOM      8  C   UNL     1       1.527  -2.118  -0.025  0.00  0.00    -0.023 A 
ATOM      9  C   UNL     1       2.820  -2.506  -0.038  0.00  0.00    -0.006 A 
ATOM     10  S   UNL     1       3.752  -0.998  -0.038  0.00  0.00    -0.073 S 
ATOM     11  C   UNL     1       3.347  -3.908  -0.050  0.00  0.00    +0.027 C 
ATOM     12  C   UNL     1       2.202  -4.859   0.329  0.00  0.00    -0.066 C 
ATOM     13  C   UNL     1       0.965  -4.492  -0.496  0.00  0.00    -0.011 C 
ATOM     14  C   UNL     1       0.404  -3.151  -0.021  0.00  0.00    +0.035 C 
ENDROOT
BRANCH  12  15
ATOM     15  N   UNL     1       2.593  -6.249   0.028  0.00  0.00    +0.384 N 
ATOM     16  H   UNL     1       3.186  -6.261  -0.811  0.00  0.00    -0.085 HD
ATOM     17  H   UNL     1       1.750  -6.809  -0.141  0.00  0.00    -0.085 HD
BRANCH  15  18
ATOM     18  C   UNL     1       3.342  -6.827   1.160  0.00  0.00    -0.041 C 
BRANCH  18  19
ATOM     19  C   UNL     1       3.727  -8.245   0.825  0.00  0.00    +0.006 A 
ATOM     20  C   UNL     1       2.881  -9.289   1.155  0.00  0.00    +0.127 A 
ATOM     21  C   UNL     1       3.233 -10.591   0.842  0.00  0.00    +0.039 A 
ATOM     22  C   UNL     1       4.436 -10.849   0.210  0.00  0.00    +0.006 A 
ATOM     23  C   UNL     1       5.284  -9.808  -0.114  0.00  0.00    +0.039 A 
ATOM     24  C   UNL     1       4.931  -8.504   0.193  0.00  0.00    +0.127 A 
ATOM     25  F   UNL     1       5.761  -7.487  -0.125  0.00  0.00    -0.205 F 
ATOM     26  F   UNL     1       1.708  -9.038   1.777  0.00  0.00    -0.205 F 
ENDBRANCH  18  19
ENDBRANCH  15  18
ENDBRANCH  12  15
BRANCH   1  27
ATOM     27  C   UNL     1      -1.303   2.042   0.019  0.00  0.00    +0.137 C 
ATOM     28  C   UNL     1      -1.401   2.912   1.274  0.00  0.00    +0.038 C 
BRANCH  27  32
ATOM     29  C   UNL     1       0.703   4.708  -3.708  0.00  0.00    +0.073 C 
ATOM     30  C   UNL     1      -0.410   4.114  -2.885  0.00  0.00    +0.076 A 
ATOM     31  N   UNL     1      -0.331   3.359  -1.813  0.00  0.00    -0.247 NA
ATOM     32  C   UNL     1      -1.411   2.913  -1.206  0.00  0.00    +0.071 A 
ATOM     33  C   UNL     1      -2.623   3.261  -1.707  0.00  0.00    +0.072 A 
ATOM     34  S   UNL     1      -2.127   4.258  -3.105  0.00  0.00    -0.080 S 
ENDBRANCH  27  32
ENDBRANCH   1  27
TORSDOF 5
