REMARK  Name = ZINC39686171
REMARK  11 active torsions:
REMARK  status: ('A' for Active; 'I' for Inactive)
REMARK    1  A    between atoms: C_1  and  C_2
REMARK    2  A    between atoms: C_2  and  C_3
REMARK    3  A    between atoms: C_2  and  C_4
REMARK    4  A    between atoms: C_4  and  C_5
REMARK    5  A    between atoms: C_10  and  N_13
REMARK    6  A    between atoms: C_14  and  C_16
REMARK    7  A    between atoms: C_27  and  C_29
REMARK    8  A    between atoms: C_31  and  O_37
REMARK    9  A    between atoms: C_33  and  O_35
REMARK   10  A    between atoms: O_35  and  C_36
REMARK   11  A    between atoms: O_37  and  C_38
REMARK                            x       y       z     vdW  Elec       q    Type
REMARK                         _______ _______ _______ _____ _____    ______ ____
ROOT
ATOM      1  C   UNL     1      -7.326  -6.567   3.529  0.00  0.00    +0.100 C 
ATOM      2  C   UNL     1      -8.345  -5.417   3.686  0.00  0.00    +0.121 C 
ATOM      3  N   UNL     1      -9.505  -5.829   2.860  0.00  0.00    -0.296 N 
ATOM      4  C   UNL     1      -9.626  -7.288   3.097  0.00  0.00    +0.115 C 
ATOM      5  C   UNL     1      -8.170  -7.794   3.146  0.00  0.00    -0.004 C 
ATOM      6  C   UNL     1      -7.749  -8.319   1.776  0.00  0.00    -0.010 C 
ATOM      7  C   UNL     1      -8.564  -9.572   1.442  0.00  0.00    -0.082 C 
ATOM      8  N   UNL     1      -8.337 -10.594   2.471  0.00  0.00    +0.379 N 
ATOM      9  C   UNL     1      -8.830 -10.116   3.769  0.00  0.00    -0.082 C 
ATOM     10  C   UNL     1      -8.027  -8.886   4.201  0.00  0.00    -0.010 C 
ATOM     11  C   UNL     1     -10.275  -5.053   2.073  0.00  0.00    +0.247 C 
ATOM     12  O   UNL     1      -9.974  -3.891   1.882  0.00  0.00    -0.270 OA
ATOM     13  H   UNL     1      -8.826 -11.439   2.217  0.00  0.00    -0.086 HD
ATOM     14  H   UNL     1      -7.349 -10.787   2.539  0.00  0.00    -0.086 HD
ENDROOT
BRANCH  11  15
ATOM     15  C   UNL     1     -11.488  -5.615   1.441  0.00  0.00    +0.044 A 
ATOM     16  C   UNL     1     -12.085  -6.761   1.967  0.00  0.00    +0.059 A 
ATOM     17  C   UNL     1     -13.221  -7.284   1.373  0.00  0.00    +0.124 A 
ATOM     18  C   UNL     1     -13.766  -6.670   0.254  0.00  0.00    +0.091 A 
ATOM     19  C   UNL     1     -13.176  -5.531  -0.273  0.00  0.00    +0.124 A 
ATOM     20  C   UNL     1     -12.043  -4.998   0.319  0.00  0.00    +0.059 A 
BRANCH  19  21
ATOM     21  O   UNL     1     -13.714  -4.933  -1.369  0.00  0.00    -0.495 OA
ATOM     22  C   UNL     1     -14.886  -5.532  -1.925  0.00  0.00    +0.277 C 
ENDBRANCH  19  21
BRANCH  17  23
ATOM     23  O   UNL     1     -13.803  -8.401   1.885  0.00  0.00    -0.495 OA
ATOM     24  C   UNL     1     -14.972  -8.886   1.222  0.00  0.00    +0.277 C 
ENDBRANCH  17  23
ENDBRANCH  11  15
BRANCH   1  26
ATOM     25  N   UNL     1      -5.123  -6.831   2.434  0.00  0.00    -0.312 N 
ATOM     26  C   UNL     1      -6.338  -6.248   2.436  0.00  0.00    +0.218 C 
ATOM     27  O   UNL     1      -6.637  -5.466   1.558  0.00  0.00    -0.275 OA
ATOM     28  H   UNL     1      -4.884  -7.457   3.136  0.00  0.00    +0.149 HD
BRANCH  25  34
ATOM     29  C   UNL     1      -1.159  -7.920  -1.055  0.00  0.00    +0.216 C 
ATOM     30  O   UNL     1      -1.454  -8.532  -2.060  0.00  0.00    -0.276 OA
ATOM     31  N   UNL     1      -2.082  -7.160  -0.434  0.00  0.00    -0.301 N 
ATOM     32  C   UNL     1      -1.739  -6.408   0.781  0.00  0.00    +0.109 C 
ATOM     33  C   UNL     1      -2.741  -6.766   1.882  0.00  0.00    +0.041 C 
ATOM     34  C   UNL     1      -4.163  -6.521   1.372  0.00  0.00    +0.076 C 
ATOM     35  C   UNL     1      -4.435  -7.417   0.162  0.00  0.00    +0.041 C 
ATOM     36  C   UNL     1      -3.450  -7.062  -0.963  0.00  0.00    +0.109 C 
BRANCH  29  37
ATOM     37  C   UNL     1       0.239  -8.010  -0.501  0.00  0.00    +0.099 C 
BRANCH  37  39
ATOM     38  C   UNL     1       2.530  -8.925  -0.898  0.00  0.00    +0.008 C 
ATOM     39  C   UNL     1       1.081  -8.931  -1.387  0.00  0.00    -0.008 C 
ATOM     40  C   UNL     1       0.525 -10.354  -1.317  0.00  0.00    +0.008 C 
ENDBRANCH  37  39
ENDBRANCH  29  37
ENDBRANCH  25  34
ENDBRANCH   1  26
TORSDOF 7
