REMARK  Name = ZINC64062322
REMARK  8 active torsions:
REMARK  status: ('A' for Active; 'I' for Inactive)
REMARK    1  A    between atoms: C_1  and  O_2
REMARK    2  A    between atoms: O_2  and  C_3
REMARK    3  A    between atoms: C_7  and  N_9
REMARK    4  A    between atoms: C_10  and  O_36
REMARK    5  A    between atoms: C_13  and  O_35
REMARK    6  A    between atoms: C_14  and  C_18
REMARK    7  A    between atoms: C_25  and  O_30
REMARK    8  A    between atoms: O_30  and  C_31
REMARK                            x       y       z     vdW  Elec       q    Type
REMARK                         _______ _______ _______ _____ _____    ______ ____
ROOT
ATOM      1  N   UNL     1       1.973  -5.603   5.817  0.00  0.00    -0.225 N 
ATOM      2  C   UNL     1       2.227  -4.189   5.583  0.00  0.00    +0.338 C 
ATOM      3  N   UNL     1       1.996  -3.812   4.199  0.00  0.00    -0.204 NA
ATOM      4  C   UNL     1       1.980  -4.636   3.224  0.00  0.00    +0.200 C 
ATOM      5  C   UNL     1       2.199  -6.111   3.400  0.00  0.00    +0.179 C 
ATOM      6  C   UNL     1       1.969  -6.508   4.830  0.00  0.00    +0.237 C 
ATOM      7  O   UNL     1       1.772  -7.675   5.097  0.00  0.00    -0.274 OA
ENDROOT
BRANCH   5   8
ATOM      8  C   UNL     1       3.638  -6.459   3.011  0.00  0.00    +0.101 C 
ATOM      9  C   UNL     1       3.838  -7.974   3.080  0.00  0.00    +0.124 C 
ATOM     10  C   UNL     1       5.325  -8.219   2.849  0.00  0.00    -0.036 C 
ATOM     11  C   UNL     1       5.412  -9.082   1.847  0.00  0.00    +0.003 A 
ATOM     12  C   UNL     1       6.562  -9.759   1.227  0.00  0.00    +0.055 A 
ATOM     13  C   UNL     1       6.292 -10.591   0.184  0.00  0.00    +0.121 A 
ATOM     14  C   UNL     1       5.003 -10.828  -0.316  0.00  0.00    +0.047 A 
ATOM     15  C   UNL     1       3.874 -10.262   0.182  0.00  0.00    +0.029 A 
ATOM     16  C   UNL     1       4.037  -9.346   1.318  0.00  0.00    +0.043 A 
ATOM     17  N   UNL     1       3.134  -8.684   2.012  0.00  0.00    -0.376 N 
ATOM     18  C   UNL     1       6.380  -7.468   3.624  0.00  0.00    +0.048 C 
ATOM     19  C   UNL     1       5.978  -5.983   3.569  0.00  0.00    +0.085 C 
ATOM     20  N   UNL     1       4.573  -5.825   3.954  0.00  0.00    -0.310 NA
ATOM     21  H   UNL     1       4.343  -4.852   4.093  0.00  0.00    +0.122 HD
ATOM     22  H   UNL     1       2.178  -8.661   1.850  0.00  0.00    +0.160 HD
BRANCH  13  23
ATOM     23  O   UNL     1       7.335 -11.230  -0.409  0.00  0.00    -0.495 OA
ATOM     24  C   UNL     1       7.027 -12.098  -1.501  0.00  0.00    +0.277 C 
ENDBRANCH  13  23
ENDBRANCH   5   8
BRANCH   1  29
ATOM     25  C   UNL     1       2.536  -6.889   9.219  0.00  0.00    +0.122 A 
ATOM     26  C   UNL     1       1.239  -6.888   9.715  0.00  0.00    +0.046 A 
ATOM     27  C   UNL     1       0.194  -6.461   8.919  0.00  0.00    +0.005 A 
ATOM     28  C   UNL     1       0.434  -6.035   7.627  0.00  0.00    +0.024 A 
ATOM     29  C   UNL     1       1.729  -6.034   7.126  0.00  0.00    +0.044 A 
ATOM     30  C   UNL     1       2.782  -6.457   7.926  0.00  0.00    +0.069 A 
BRANCH  25  32
ATOM     31  C   UNL     1       3.236  -7.740  11.325  0.00  0.00    +0.277 C 
ATOM     32  O   UNL     1       3.563  -7.308  10.003  0.00  0.00    -0.495 OA
ENDBRANCH  25  32
ENDBRANCH   1  29
BRANCH   4  33
ATOM     33  O   UNL     1       1.757  -4.161   1.981  0.00  0.00    -0.495 OA
ATOM     34  H   UNL     1       1.625  -3.204   1.944  0.00  0.00    +0.293 HD
ENDBRANCH   4  33
BRANCH   2  35
ATOM     35  O   UNL     1       3.585  -3.899   5.921  0.00  0.00    -0.356 OA
ATOM     36  H   UNL     1       3.834  -2.973   5.792  0.00  0.00    +0.214 HD
ENDBRANCH   2  35
TORSDOF 6
