REMARK  Name = ZINC35168916
REMARK  16 active torsions:
REMARK  status: ('A' for Active; 'I' for Inactive)
REMARK    1  A    between atoms: C_1  and  C_2
REMARK    2  A    between atoms: C_2  and  C_4
REMARK    3  A    between atoms: C_2  and  C_10
REMARK    4  A    between atoms: C_4  and  C_5
REMARK    5  A    between atoms: C_5  and  C_6
REMARK    6  A    between atoms: C_6  and  C_7
REMARK    7  A    between atoms: C_7  and  C_8
REMARK    8  A    between atoms: C_7  and  C_9
REMARK    9  A    between atoms: C_16  and  C_41
REMARK   10  A    between atoms: C_24  and  O_39
REMARK   11  A    between atoms: C_26  and  O_38
REMARK   12  A    between atoms: C_27  and  C_37
REMARK   13  A    between atoms: C_30  and  O_33
REMARK   14  A    between atoms: O_33  and  C_34
REMARK   15  A    between atoms: C_34  and  C_36
REMARK   16  A    between atoms: O_39  and  C_40
REMARK                            x       y       z     vdW  Elec       q    Type
REMARK                         _______ _______ _______ _____ _____    ______ ____
ROOT
ATOM      1  C   UNL     1       0.870  -0.566   1.176  0.00  0.00    -0.002 C 
ATOM      2  C   UNL     1       1.177  -2.083   1.066  0.00  0.00    +0.004 C 
ATOM      3  C   UNL     1       2.715  -2.234   1.270  0.00  0.00    +0.004 C 
ATOM      4  C   UNL     1       3.068  -0.902   1.950  0.00  0.00    -0.001 C 
ATOM      5  C   UNL     1       2.267   0.094   1.088  0.00  0.00    -0.026 C 
ATOM      6  C   UNL     1       2.353   1.485   1.653  0.00  0.00    +0.007 C 
ATOM      7  C   UNL     1       3.792   1.868   2.021  0.00  0.00    +0.005 C 
ATOM      8  C   UNL     1       4.809   0.846   1.547  0.00  0.00    +0.001 C 
ATOM      9  C   UNL     1       4.516  -0.546   2.095  0.00  0.00    -0.001 C 
ATOM     10  C   UNL     1       5.461  -1.550   1.446  0.00  0.00    +0.038 C 
ATOM     11  C   UNL     1       6.916  -1.171   1.734  0.00  0.00    +0.150 C 
ATOM     12  C   UNL     1       7.019   0.126   2.523  0.00  0.00    +0.101 C 
ATOM     13  C   UNL     1       6.246   1.260   1.861  0.00  0.00    +0.002 C 
ATOM     14  C   UNL     1       6.281   2.485   2.773  0.00  0.00    +0.013 C 
ATOM     15  C   UNL     1       7.724   2.919   3.023  0.00  0.00    +0.045 C 
ATOM     16  C   UNL     1       8.568   1.773   3.572  0.00  0.00    +0.179 C 
ATOM     17  C   UNL     1       8.492   0.543   2.665  0.00  0.00    +0.082 C 
ATOM     18  C   UNL     1       6.902   1.628   0.519  0.00  0.00    +0.014 C 
ATOM     19  C   UNL     1       2.654   0.065  -0.390  0.00  0.00    +0.012 C 
ENDROOT
BRANCH   1  21
ATOM     20  C   UNL     1      -0.263   1.395   0.130  0.00  0.00    +0.008 C 
ATOM     21  C   UNL     1       0.007  -0.106   0.005  0.00  0.00    -0.010 C 
BRANCH  21  22
ATOM     22  C   UNL     1      -1.321  -0.865   0.021  0.00  0.00    +0.003 C 
BRANCH  22  23
ATOM     23  C   UNL     1      -2.134  -0.496  -1.222  0.00  0.00    +0.001 C 
BRANCH  23  24
ATOM     24  C   UNL     1      -3.462  -1.256  -1.206  0.00  0.00    +0.003 C 
BRANCH  24  25
ATOM     25  C   UNL     1      -4.275  -0.887  -2.449  0.00  0.00    -0.017 C 
ATOM     26  C   UNL     1      -3.544  -1.375  -3.701  0.00  0.00    +0.007 C 
ATOM     27  C   UNL     1      -5.652  -1.548  -2.372  0.00  0.00    +0.007 C 
ENDBRANCH  24  25
ENDBRANCH  23  24
ENDBRANCH  22  23
ENDBRANCH  21  22
ENDBRANCH   1  21
BRANCH  12  28
ATOM     28  O   UNL     1       6.539  -0.084   3.861  0.00  0.00    -0.385 OA
ATOM     29  H   UNL     1       7.029  -0.756   4.354  0.00  0.00    +0.210 HD
ENDBRANCH  12  28
BRANCH  11  30
ATOM     30  O   UNL     1       7.530  -2.230   2.482  0.00  0.00    -0.377 OA
ATOM     31  C   UNL     1       8.148  -3.232   1.673  0.00  0.00    +0.194 C 
ENDBRANCH  11  30
BRANCH  16  32
ATOM     32  O   UNL     1       9.932   2.197   3.671  0.00  0.00    -0.461 OA
BRANCH  32  33
ATOM     33  C   UNL     1      10.312   2.764   4.828  0.00  0.00    +0.304 C 
ATOM     34  O   UNL     1       9.514   2.896   5.726  0.00  0.00    -0.251 OA
ATOM     35  C   UNL     1      11.732   3.235   5.005  0.00  0.00    +0.136 C 
ENDBRANCH  32  33
ENDBRANCH  16  32
TORSDOF 9
