REMARK  Name = ZINC06845492
REMARK  8 active torsions:
REMARK  status: ('A' for Active; 'I' for Inactive)
REMARK    1  A    between atoms: C_1  and  O_2
REMARK    2  A    between atoms: O_2  and  C_3
REMARK    3  A    between atoms: C_6  and  C_9
REMARK    4  A    between atoms: C_17  and  O_30
REMARK    5  A    between atoms: C_20  and  C_21
REMARK    6  A    between atoms: C_20  and  N_59
REMARK    7  A    between atoms: N_23  and  C_24
REMARK    8  A    between atoms: C_24  and  C_25
REMARK                            x       y       z     vdW  Elec       q    Type
REMARK                         _______ _______ _______ _____ _____    ______ ____
ROOT
ATOM      1  C   UNL     1      -2.542  -4.157  -0.234  0.00  0.00    -0.031 C 
ATOM      2  C   UNL     1      -3.994  -4.621  -0.358  0.00  0.00    +0.011 C 
ATOM      3  C   UNL     1      -4.043  -6.130  -0.598  0.00  0.00    +0.005 C 
ATOM      4  C   UNL     1      -5.502  -6.574  -0.727  0.00  0.00    +0.000 C 
ATOM      5  C   UNL     1      -6.259  -6.234   0.557  0.00  0.00    +0.003 C 
ATOM      6  C   UNL     1      -6.201  -4.724   0.804  0.00  0.00    +0.035 C 
ATOM      7  C   UNL     1      -4.740  -4.292   0.939  0.00  0.00    +0.066 C 
ATOM      8  C   UNL     1      -4.662  -2.785   1.192  0.00  0.00    +0.016 C 
ATOM      9  C   UNL     1      -3.192  -2.365   1.268  0.00  0.00    -0.075 C 
ATOM     10  N   UNL     1      -2.527  -2.694  -0.012  0.00  0.00    +0.390 N 
ATOM     11  H   UNL     1      -3.036  -2.237  -0.778  0.00  0.00    -0.080 HD
ENDROOT
BRANCH   1  15
ATOM     12  C   UNL     1      -0.451  -5.031  -3.857  0.00  0.00    +0.120 A 
ATOM     13  C   UNL     1      -0.313  -5.865  -2.757  0.00  0.00    +0.046 A 
ATOM     14  C   UNL     1      -0.990  -5.580  -1.587  0.00  0.00    +0.005 A 
ATOM     15  C   UNL     1      -1.805  -4.465  -1.512  0.00  0.00    -0.060 A 
ATOM     16  C   UNL     1      -1.948  -3.636  -2.609  0.00  0.00    +0.005 A 
ATOM     17  C   UNL     1      -1.269  -3.913  -3.779  0.00  0.00    +0.046 A 
BRANCH  12  19
ATOM     18  C   UNL     1       0.026  -4.406  -6.101  0.00  0.00    +0.277 C 
ATOM     19  O   UNL     1       0.215  -5.309  -5.009  0.00  0.00    -0.495 OA
ENDBRANCH  12  19
ENDBRANCH   1  15
BRANCH   7  20
ATOM     20  O   UNL     1      -4.134  -4.991   2.028  0.00  0.00    -0.388 OA
ATOM     21  H   UNL     1      -4.556  -4.830   2.882  0.00  0.00    +0.210 HD
ENDBRANCH   7  20
BRANCH  10  22
ATOM     22  C   UNL     1      -1.135  -2.201   0.001  0.00  0.00    +0.019 C 
BRANCH  22  23
ATOM     23  C   UNL     1      -1.156  -0.694   0.009  0.00  0.00    +0.197 C 
ATOM     24  O   UNL     1      -2.214  -0.102   0.023  0.00  0.00    -0.278 OA
ATOM     25  N   UNL     1       0.002  -0.004   0.002  0.00  0.00    -0.310 N 
ATOM     26  H   UNL     1       0.849  -0.478  -0.009  0.00  0.00    +0.149 HD
BRANCH  25  27
ATOM     27  C   UNL     1      -0.018   1.461   0.010  0.00  0.00    +0.178 C 
BRANCH  27  28
ATOM     28  C   UNL     1       1.396   1.982  -0.001  0.00  0.00    +0.122 A 
ATOM     29  C   UNL     1       2.126   2.256  -1.097  0.00  0.00    +0.046 A 
ATOM     30  C   UNL     1       3.383   2.720  -0.648  0.00  0.00    +0.041 A 
ATOM     31  C   UNL     1       3.349   2.696   0.697  0.00  0.00    +0.195 A 
ATOM     32  O   UNL     1       2.143   2.248   1.083  0.00  0.00    -0.466 OA
ENDBRANCH  27  28
ENDBRANCH  25  27
ENDBRANCH  22  23
ENDBRANCH  10  22
TORSDOF 7
