REMARK  Name = ZINC20672149
REMARK  4 active torsions:
REMARK  status: ('A' for Active; 'I' for Inactive)
REMARK    1  A    between atoms: C_1  and  C_2
REMARK    2  A    between atoms: C_2  and  C_3
REMARK    3  A    between atoms: C_8  and  N_9
REMARK    4  A    between atoms: N_13  and  C_15
REMARK                            x       y       z     vdW  Elec       q    Type
REMARK                         _______ _______ _______ _____ _____    ______ ____
ROOT
ATOM      1  N   UNL     1       4.950   1.822   0.380  0.00  0.00    -0.297 N 
ATOM      2  C   UNL     1       3.602   2.078   0.132  0.00  0.00    +0.156 A 
ATOM      3  C   UNL     1       2.489   1.189   0.399  0.00  0.00    +0.080 A 
ATOM      4  C   UNL     1       1.331   1.853  -0.005  0.00  0.00    +0.057 A 
ATOM      5  N   UNL     1       1.700   3.044  -0.475  0.00  0.00    -0.234 N 
ATOM      6  N   UNL     1       3.093   3.174  -0.388  0.00  0.00    -0.150 NA
ATOM      7  C   UNL     1      -0.042   1.245   0.109  0.00  0.00    +0.057 C 
ATOM      8  C   UNL     1       0.088  -0.277   0.220  0.00  0.00    +0.014 C 
ATOM      9  C   UNL     1       1.056  -0.658   1.345  0.00  0.00    +0.080 C 
ATOM     10  C   UNL     1       2.446  -0.159   0.974  0.00  0.00    +0.168 C 
ATOM     11  O   UNL     1       3.444  -0.828   1.142  0.00  0.00    -0.292 OA
ATOM     12  H   UNL     1       5.248   0.897   0.894  0.00  0.00    +0.154 HD
ENDROOT
BRANCH   5  13
ATOM     13  C   UNL     1       0.828   4.018  -0.979  0.00  0.00    +0.066 A 
ATOM     14  C   UNL     1       1.171   4.736  -2.117  0.00  0.00    +0.030 A 
ATOM     15  C   UNL     1       0.307   5.691  -2.616  0.00  0.00    +0.040 A 
ATOM     16  C   UNL     1      -0.894   5.943  -1.974  0.00  0.00    +0.124 A 
ATOM     17  C   UNL     1      -1.235   5.232  -0.835  0.00  0.00    +0.040 A 
ATOM     18  C   UNL     1      -0.377   4.272  -0.337  0.00  0.00    +0.030 A 
ATOM     19  F   UNL     1      -1.735   6.882  -2.460  0.00  0.00    -0.205 F 
ENDBRANCH   5  13
BRANCH   1  25
ATOM     20  C   UNL     1       7.269   2.424   0.087  0.00  0.00    -0.026 A 
ATOM     21  C   UNL     1       8.227   3.332  -0.318  0.00  0.00    +0.005 A 
ATOM     22  C   UNL     1       7.846   4.559  -0.829  0.00  0.00    +0.000 A 
ATOM     23  C   UNL     1       6.505   4.880  -0.939  0.00  0.00    +0.002 A 
ATOM     24  C   UNL     1       5.542   3.974  -0.539  0.00  0.00    +0.023 A 
ATOM     25  C   UNL     1       5.922   2.740  -0.026  0.00  0.00    +0.036 A 
BRANCH  20  27
ATOM     26  C   UNL     1       7.686   0.043  -0.468  0.00  0.00    +0.009 C 
ATOM     27  C   UNL     1       7.686   1.089   0.649  0.00  0.00    +0.033 C 
ENDBRANCH  20  27
ENDBRANCH   1  25
TORSDOF 3
