REMARK  Name = ZINC67354518
REMARK  7 active torsions:
REMARK  status: ('A' for Active; 'I' for Inactive)
REMARK    1  A    between atoms: C_1  and  C_2
REMARK    2  A    between atoms: C_2  and  C_3
REMARK    3  A    between atoms: C_3  and  N_4
REMARK    4  A    between atoms: C_5  and  C_7
REMARK    5  A    between atoms: N_16  and  C_17
REMARK    6  A    between atoms: C_21  and  C_23
REMARK    7  A    between atoms: C_24  and  C_28
REMARK                            x       y       z     vdW  Elec       q    Type
REMARK                         _______ _______ _______ _____ _____    ______ ____
ROOT
ATOM      1  C   UNL     1      -2.153  -3.841  -0.942  0.00  0.00    +0.092 C 
ATOM      2  C   UNL     1      -3.446  -4.229  -0.222  0.00  0.00    +0.016 C 
ATOM      3  C   UNL     1      -3.301  -5.634   0.368  0.00  0.00    +0.020 C 
ATOM      4  C   UNL     1      -3.058  -6.636  -0.764  0.00  0.00    +0.109 C 
ATOM      5  N   UNL     1      -1.901  -6.190  -1.550  0.00  0.00    -0.285 N 
ATOM      6  C   UNL     1      -1.896  -4.823  -2.089  0.00  0.00    +0.122 C 
ATOM      7  C   UNL     1      -0.862  -7.019  -1.774  0.00  0.00    +0.306 C 
ATOM      8  O   UNL     1       0.053  -6.667  -2.494  0.00  0.00    -0.252 OA
ATOM      9  N   UNL     1      -0.836  -8.238  -1.199  0.00  0.00    -0.269 N 
ATOM     10  H   UNL     1      -1.609  -8.560  -0.710  0.00  0.00    +0.156 HD
ENDROOT
BRANCH   9  11
ATOM     11  C   UNL     1       0.306  -9.039  -1.309  0.00  0.00    +0.035 A 
ATOM     12  C   UNL     1       1.566  -8.453  -1.339  0.00  0.00    +0.023 A 
ATOM     13  C   UNL     1       2.697  -9.240  -1.446  0.00  0.00    +0.002 A 
ATOM     14  C   UNL     1       2.583 -10.613  -1.524  0.00  0.00    +0.009 A 
ATOM     15  C   UNL     1       1.322 -11.211  -1.494  0.00  0.00    -0.009 A 
ATOM     16  C   UNL     1       0.181 -10.417  -1.381  0.00  0.00    +0.032 A 
BRANCH  15  17
ATOM     17  C   UNL     1       1.197 -12.682  -1.578  0.00  0.00    +0.022 A 
ATOM     18  C   UNL     1       1.798 -13.551  -2.449  0.00  0.00    -0.036 A 
ATOM     19  C   UNL     1       1.527 -14.897  -2.334  0.00  0.00    +0.011 A 
ATOM     20  C   UNL     1       0.675 -15.320  -1.366  0.00  0.00    +0.046 A 
ATOM     21  S   UNL     1       0.228 -13.788  -0.565  0.00  0.00    -0.096 S 
ATOM     22  C   UNL     1       2.739 -13.045  -3.512  0.00  0.00    +0.045 C 
ENDBRANCH  15  17
ENDBRANCH   9  11
BRANCH   1  24
ATOM     23  N   UNL     1      -1.262  -1.890  -2.174  0.00  0.00    -0.315 N 
ATOM     24  C   UNL     1      -2.285  -2.445  -1.495  0.00  0.00    +0.218 C 
ATOM     25  O   UNL     1      -3.312  -1.821  -1.329  0.00  0.00    -0.275 OA
ATOM     26  H   UNL     1      -0.441  -2.388  -2.307  0.00  0.00    +0.149 HD
BRANCH  23  27
ATOM     27  C   UNL     1      -1.391  -0.533  -2.712  0.00  0.00    +0.104 C 
BRANCH  27  29
ATOM     28  C   UNL     1      -0.232   1.271  -3.994  0.00  0.00    +0.005 C 
ATOM     29  C   UNL     1      -0.098  -0.146  -3.433  0.00  0.00    +0.015 C 
ENDBRANCH  27  29
ENDBRANCH  23  27
ENDBRANCH   1  24
TORSDOF 5
