REMARK  Name = ZINC01243225
REMARK  12 active torsions:
REMARK  status: ('A' for Active; 'I' for Inactive)
REMARK    1  A    between atoms: C_1  and  C_2
REMARK    2  A    between atoms: C_2  and  C_3
REMARK    3  A    between atoms: C_3  and  C_33
REMARK    4  A    between atoms: C_10  and  N_30
REMARK    5  A    between atoms: C_12  and  S_14
REMARK    6  A    between atoms: S_14  and  C_15
REMARK    7  A    between atoms: C_15  and  C_16
REMARK    8  A    between atoms: N_18  and  C_19
REMARK    9  A    between atoms: C_19  and  C_21
REMARK   10  A    between atoms: C_19  and  C_22
REMARK   11  A    between atoms: C_22  and  C_23
REMARK   12  A    between atoms: C_23  and  C_24
REMARK                            x       y       z     vdW  Elec       q    Type
REMARK                         _______ _______ _______ _____ _____    ______ ____
ROOT
ATOM      1  C   UNL     1       5.266 -13.382   2.095  0.00  0.00    +0.071 C 
ATOM      2  C   UNL     1       5.007 -11.880   2.249  0.00  0.00    +0.071 C 
ATOM      3  C   UNL     1       6.358 -11.175   2.349  0.00  0.00    -0.020 A 
ATOM      4  C   UNL     1       7.462 -11.891   2.652  0.00  0.00    +0.021 A 
ATOM      5  S   UNL     1       8.786 -10.716   2.664  0.00  0.00    -0.071 S 
ATOM      6  C   UNL     1       7.854  -9.260   2.262  0.00  0.00    +0.115 A 
ATOM      7  C   UNL     1       6.534  -9.741   2.131  0.00  0.00    +0.051 A 
ATOM      8  C   UNL     1       5.555  -8.761   1.805  0.00  0.00    +0.129 A 
ATOM      9  N   UNL     1       5.926  -7.501   1.653  0.00  0.00    -0.207 NA
ATOM     10  C   UNL     1       7.190  -7.117   1.786  0.00  0.00    +0.191 A 
ATOM     11  N   UNL     1       8.145  -7.986   2.090  0.00  0.00    -0.214 NA
ATOM     12  C   UNL     1       7.518 -13.365   2.915  0.00  0.00    +0.203 C 
ATOM     13  O   UNL     1       6.173 -13.831   3.105  0.00  0.00    -0.368 OA
ATOM     14  C   UNL     1       5.871 -13.653   0.716  0.00  0.00    +0.042 C 
ENDROOT
BRANCH   8  15
ATOM     15  N   UNL     1       4.229  -9.122   1.653  0.00  0.00    -0.343 N 
ATOM     16  H   UNL     1       3.935 -10.009   1.913  0.00  0.00    +0.144 HD
ATOM     17  H   UNL     1       3.592  -8.488   1.287  0.00  0.00    +0.144 HD
ENDBRANCH   8  15
BRANCH   1  19
ATOM     18  C   UNL     1       4.199 -15.641   2.072  0.00  0.00    +0.007 C 
ATOM     19  C   UNL     1       3.943 -14.140   2.226  0.00  0.00    +0.032 C 
ENDBRANCH   1  19
BRANCH  10  20
ATOM     20  S   UNL     1       7.606  -5.419   1.561  0.00  0.00    -0.077 S 
BRANCH  20  21
ATOM     21  C   UNL     1       5.971  -4.743   1.180  0.00  0.00    +0.173 C 
BRANCH  21  22
ATOM     22  C   UNL     1       6.084  -3.259   0.943  0.00  0.00    +0.224 C 
ATOM     23  O   UNL     1       7.163  -2.713   1.023  0.00  0.00    -0.275 OA
ATOM     24  N   UNL     1       4.985  -2.539   0.641  0.00  0.00    -0.312 N 
ATOM     25  H   UNL     1       4.121  -2.977   0.576  0.00  0.00    +0.149 HD
BRANCH  24  26
ATOM     26  C   UNL     1       5.095  -1.097   0.410  0.00  0.00    +0.070 C 
ATOM     27  C   UNL     1       5.483  -0.842  -1.047  0.00  0.00    +0.028 C 
BRANCH  26  28
ATOM     28  C   UNL     1       3.749  -0.430   0.704  0.00  0.00    +0.026 C 
BRANCH  28  29
ATOM     29  C   UNL     1       3.421  -0.578   2.191  0.00  0.00    +0.037 C 
BRANCH  29  30
ATOM     30  C   UNL     1       2.096   0.079   2.480  0.00  0.00    -0.047 A 
ATOM     31  C   UNL     1       0.926  -0.652   2.386  0.00  0.00    +0.003 A 
ATOM     32  C   UNL     1      -0.289  -0.049   2.651  0.00  0.00    +0.000 A 
ATOM     33  C   UNL     1      -0.335   1.285   3.010  0.00  0.00    +0.000 A 
ATOM     34  C   UNL     1       0.835   2.016   3.106  0.00  0.00    +0.000 A 
ATOM     35  C   UNL     1       2.050   1.413   2.840  0.00  0.00    +0.003 A 
ENDBRANCH  29  30
ENDBRANCH  28  29
ENDBRANCH  26  28
ENDBRANCH  24  26
ENDBRANCH  21  22
ENDBRANCH  20  21
ENDBRANCH  10  20
TORSDOF 9
