REMARK  Name = ZINC17180783
REMARK  12 active torsions:
REMARK  status: ('A' for Active; 'I' for Inactive)
REMARK    1  A    between atoms: C_1  and  N_63
REMARK    2  A    between atoms: C_9  and  O_35
REMARK    3  A    between atoms: C_11  and  C_14
REMARK    4  A    between atoms: C_18  and  O_20
REMARK    5  A    between atoms: O_20  and  C_21
REMARK    6  A    between atoms: C_21  and  C_23
REMARK    7  A    between atoms: C_25  and  O_33
REMARK    8  A    between atoms: C_26  and  O_31
REMARK    9  A    between atoms: C_27  and  O_29
REMARK   10  A    between atoms: O_29  and  C_30
REMARK   11  A    between atoms: O_31  and  C_32
REMARK   12  A    between atoms: O_33  and  C_34
REMARK                            x       y       z     vdW  Elec       q    Type
REMARK                         _______ _______ _______ _____ _____    ______ ____
ROOT
ATOM      1  C   UNL     1       1.421   1.486  -0.032  0.00  0.00    -0.002 A 
ATOM      2  C   UNL     1       2.035   1.796   1.167  0.00  0.00    +0.007 A 
ATOM      3  C   UNL     1       3.303   2.348   1.175  0.00  0.00    +0.004 A 
ATOM      4  C   UNL     1       3.955   2.601  -0.016  0.00  0.00    +0.046 A 
ATOM      5  C   UNL     1       3.339   2.296  -1.221  0.00  0.00    +0.132 A 
ATOM      6  C   UNL     1       2.069   1.737  -1.226  0.00  0.00    +0.053 A 
ENDROOT
BRANCH   1  17
ATOM      7  C   UNL     1      -4.077   8.226   0.522  0.00  0.00    -0.096 C 
ATOM      8  C   UNL     1      -3.907   6.199  -0.793  0.00  0.00    -0.074 C 
ATOM      9  C   UNL     1      -2.910   5.148  -1.290  0.00  0.00    +0.018 C 
ATOM     10  C   UNL     1      -2.382   4.383  -0.081  0.00  0.00    -0.027 A 
ATOM     11  C   UNL     1      -2.524   4.903   1.162  0.00  0.00    -0.021 A 
ATOM     12  S   UNL     1      -1.794   3.702   2.242  0.00  0.00    -0.080 S 
ATOM     13  C   UNL     1      -1.318   2.547   1.072  0.00  0.00    +0.080 A 
ATOM     14  C   UNL     1      -1.719   3.095  -0.153  0.00  0.00    +0.067 A 
ATOM     15  C   UNL     1      -1.424   2.310  -1.379  0.00  0.00    +0.220 C 
ATOM     16  N   UNL     1      -0.646   1.271  -1.261  0.00  0.00    -0.223 NA
ATOM     17  C   UNL     1       0.042   0.879  -0.037  0.00  0.00    +0.224 C 
ATOM     18  N   UNL     1      -0.686   1.330   1.163  0.00  0.00    -0.313 N 
ATOM     19  C   UNL     1      -3.164   6.208   1.513  0.00  0.00    -0.036 C 
ATOM     20  H   UNL     1      -0.719   0.797   1.972  0.00  0.00    +0.149 HD
ATOM     21  N   UNL     1      -3.276   7.009   0.269  0.00  0.00    +0.381 N 
ATOM     22  H   UNL     1      -2.335   7.286  -0.036  0.00  0.00    -0.082 HD
BRANCH  15  23
ATOM     23  O   UNL     1      -1.947   2.660  -2.576  0.00  0.00    -0.492 OA
ATOM     24  H   UNL     1      -1.688   2.078  -3.304  0.00  0.00    +0.294 HD
ENDBRANCH  15  23
ENDBRANCH   1  17
BRANCH   5  25
ATOM     25  O   UNL     1       3.978   2.544  -2.394  0.00  0.00    -0.422 OA
BRANCH  25  26
ATOM     26  C   UNL     1       3.477   3.528  -3.168  0.00  0.00    +0.345 C 
ATOM     27  O   UNL     1       2.563   4.216  -2.759  0.00  0.00    -0.245 OA
BRANCH  26  28
ATOM     28  C   UNL     1       4.039   3.769  -4.510  0.00  0.00    +0.067 A 
ATOM     29  C   UNL     1       5.094   2.982  -4.979  0.00  0.00    +0.064 A 
ATOM     30  C   UNL     1       5.615   3.206  -6.239  0.00  0.00    +0.166 A 
ATOM     31  C   UNL     1       5.097   4.223  -7.037  0.00  0.00    +0.204 A 
ATOM     32  C   UNL     1       4.049   5.012  -6.570  0.00  0.00    +0.166 A 
ATOM     33  C   UNL     1       3.521   4.788  -5.313  0.00  0.00    +0.064 A 
BRANCH  32  34
ATOM     34  O   UNL     1       3.545   6.004  -7.352  0.00  0.00    -0.491 OA
ATOM     35  C   UNL     1       2.471   6.776  -6.810  0.00  0.00    +0.277 C 
ENDBRANCH  32  34
BRANCH  31  36
ATOM     36  O   UNL     1       5.614   4.445  -8.273  0.00  0.00    -0.488 OA
ATOM     37  C   UNL     1       6.700   5.369  -8.365  0.00  0.00    +0.277 C 
ENDBRANCH  31  36
BRANCH  30  38
ATOM     38  O   UNL     1       6.638   2.437  -6.698  0.00  0.00    -0.491 OA
ATOM     39  C   UNL     1       7.121   1.412  -5.827  0.00  0.00    +0.277 C 
ENDBRANCH  30  38
ENDBRANCH  26  28
ENDBRANCH  25  26
ENDBRANCH   5  25
TORSDOF 8
