REMARK  Name = ZINC21912435
REMARK  13 active torsions:
REMARK  status: ('A' for Active; 'I' for Inactive)
REMARK    1  A    between atoms: C_1  and  C_2
REMARK    2  A    between atoms: C_2  and  C_3
REMARK    3  A    between atoms: C_2  and  C_4
REMARK    4  A    between atoms: C_7  and  N_10
REMARK    5  A    between atoms: C_11  and  C_27
REMARK    6  A    between atoms: N_20  and  C_26
REMARK    7  A    between atoms: N_29  and  C_30
REMARK    8  A    between atoms: C_30  and  C_31
REMARK    9  A    between atoms: C_31  and  C_32
REMARK   10  A    between atoms: C_32  and  O_33
REMARK   11  A    between atoms: O_33  and  C_34
REMARK   12  A    between atoms: C_34  and  C_35
REMARK   13  A    between atoms: C_34  and  C_36
REMARK                            x       y       z     vdW  Elec       q    Type
REMARK                         _______ _______ _______ _____ _____    ______ ____
ROOT
ATOM      1  N   UNL     1       8.090  -1.936  -4.798  0.00  0.00    -0.255 N 
ATOM      2  C   UNL     1       6.936  -2.570  -4.206  0.00  0.00    +0.200 C 
ATOM      3  C   UNL     1       6.732  -4.044  -4.412  0.00  0.00    +0.021 A 
ATOM      4  C   UNL     1       5.480  -4.646  -3.881  0.00  0.00    +0.006 A 
ATOM      5  C   UNL     1       4.416  -4.124  -3.147  0.00  0.00    +0.010 A 
ATOM      6  C   UNL     1       3.376  -4.943  -2.798  0.00  0.00    +0.001 A 
ATOM      7  C   UNL     1       3.379  -6.280  -3.171  0.00  0.00    +0.002 A 
ATOM      8  C   UNL     1       4.426  -6.810  -3.897  0.00  0.00    +0.026 A 
ATOM      9  C   UNL     1       5.493  -5.993  -4.258  0.00  0.00    +0.050 A 
ATOM     10  N   UNL     1       6.657  -6.186  -4.954  0.00  0.00    -0.338 N 
ATOM     11  C   UNL     1       7.413  -5.007  -4.978  0.00  0.00    +0.083 A 
ATOM     12  S   UNL     1       9.034  -5.110  -5.728  0.00  0.00    -0.098 S 
ATOM     13  C   UNL     1       9.185  -3.498  -6.563  0.00  0.00    +0.172 C 
ATOM     14  C   UNL     1       8.927  -2.447  -5.537  0.00  0.00    +0.231 C 
ATOM     15  O   UNL     1       9.971  -1.855  -5.359  0.00  0.00    -0.274 OA
ATOM     16  C   UNL     1       7.056  -7.448  -5.583  0.00  0.00    +0.150 C 
ENDROOT
BRANCH   1  20
ATOM     17  C   UNL     1       8.640   2.095  -3.900  0.00  0.00    -0.045 A 
ATOM     18  C   UNL     1       9.298   1.128  -3.162  0.00  0.00    +0.006 A 
ATOM     19  C   UNL     1       9.117  -0.209  -3.457  0.00  0.00    +0.024 A 
ATOM     20  C   UNL     1       8.275  -0.582  -4.497  0.00  0.00    +0.037 A 
ATOM     21  C   UNL     1       7.621   0.392  -5.240  0.00  0.00    +0.024 A 
ATOM     22  C   UNL     1       7.801   1.727  -4.935  0.00  0.00    +0.006 A 
BRANCH  17  24
ATOM     23  C   UNL     1       9.418   4.273  -4.795  0.00  0.00    +0.012 C 
ATOM     24  C   UNL     1       8.839   3.553  -3.575  0.00  0.00    +0.013 C 
ATOM     25  C   UNL     1       7.495   4.181  -3.203  0.00  0.00    +0.012 C 
ENDBRANCH  17  24
ENDBRANCH   1  20
BRANCH   2  26
ATOM     26  C   UNL     1       6.995  -2.323  -2.721  0.00  0.00    +0.239 C 
ATOM     27  O   UNL     1       6.017  -1.907  -2.136  0.00  0.00    -0.273 OA
ATOM     28  N   UNL     1       8.134  -2.564  -2.042  0.00  0.00    -0.313 N 
ATOM     29  H   UNL     1       8.994  -3.018  -2.555  0.00  0.00    +0.149 HD
BRANCH  28  30
ATOM     30  C   UNL     1       8.226  -2.221  -0.620  0.00  0.00    +0.106 C 
BRANCH  30  31
ATOM     31  C   UNL     1       9.613  -2.594  -0.094  0.00  0.00    +0.047 C 
BRANCH  31  32
ATOM     32  C   UNL     1       9.709  -2.236   1.390  0.00  0.00    +0.161 C 
BRANCH  32  33
ATOM     33  O   UNL     1      11.005  -2.585   1.881  0.00  0.00    -0.377 OA
BRANCH  33  34
ATOM     34  C   UNL     1      11.200  -2.290   3.266  0.00  0.00    +0.112 C 
ATOM     35  C   UNL     1      10.784  -3.498   4.108  0.00  0.00    +0.037 C 
ATOM     36  C   UNL     1      12.677  -1.977   3.517  0.00  0.00    +0.037 C 
ENDBRANCH  33  34
ENDBRANCH  32  33
ENDBRANCH  31  32
ENDBRANCH  30  31
ENDBRANCH  28  30
ENDBRANCH   2  26
TORSDOF 8
