REMARK  Name = ZINC59859132
REMARK  8 active torsions:
REMARK  status: ('A' for Active; 'I' for Inactive)
REMARK    1  A    between atoms: C_1  and  N_2
REMARK    2  A    between atoms: N_2  and  C_3
REMARK    3  A    between atoms: N_2  and  N_9
REMARK    4  A    between atoms: C_20  and  N_33
REMARK    5  A    between atoms: C_21  and  N_22
REMARK    6  A    between atoms: N_22  and  C_23
REMARK    7  A    between atoms: C_26  and  O_32
REMARK    8  A    between atoms: C_27  and  C_29
REMARK                            x       y       z     vdW  Elec       q    Type
REMARK                         _______ _______ _______ _____ _____    ______ ____
ROOT
ATOM      1  N   UNL     1       0.337  -1.462  -0.775  0.00  0.00    -0.147 N 
ATOM      2  C   UNL     1      -0.186  -2.703  -0.788  0.00  0.00    +0.271 C 
ATOM      3  O   UNL     1      -0.699  -3.154   0.219  0.00  0.00    -0.268 OA
ATOM      4  C   UNL     1      -0.140  -3.515  -2.012  0.00  0.00    +0.047 A 
ATOM      5  C   UNL     1      -0.667  -4.798  -2.066  0.00  0.00    +0.014 A 
ATOM      6  C   UNL     1      -0.601  -5.530  -3.244  0.00  0.00    +0.001 A 
ATOM      7  C   UNL     1      -0.018  -5.010  -4.379  0.00  0.00    +0.010 A 
ATOM      8  C   UNL     1       0.524  -3.718  -4.359  0.00  0.00    +0.007 A 
ATOM      9  C   UNL     1       0.461  -2.967  -3.168  0.00  0.00    +0.008 A 
ATOM     10  C   UNL     1       1.000  -1.660  -3.117  0.00  0.00    +0.049 A 
ATOM     11  C   UNL     1       1.592  -1.122  -4.256  0.00  0.00    +0.048 A 
ATOM     12  C   UNL     1       1.653  -1.857  -5.426  0.00  0.00    +0.149 A 
ATOM     13  C   UNL     1       1.132  -3.141  -5.499  0.00  0.00    +0.070 A 
ATOM     14  C   UNL     1       0.911  -0.910  -1.860  0.00  0.00    +0.271 C 
ATOM     15  O   UNL     1       1.364   0.218  -1.796  0.00  0.00    -0.268 OA
ENDROOT
BRANCH  12  16
ATOM     16  N   UNL     1       2.286  -1.262  -6.624  0.00  0.00    +0.058 N 
ATOM     17  O   UNL     1       2.653  -0.110  -6.605  0.00  0.00    -0.126 OA
ATOM     18  O   UNL     1       2.437  -1.928  -7.622  0.00  0.00    -0.126 OA
ENDBRANCH  12  16
BRANCH   1  20
ATOM     19  C   UNL     1      -0.880   0.145   0.673  0.00  0.00    +0.154 C 
ATOM     20  N   UNL     1       0.275  -0.716   0.409  0.00  0.00    -0.244 N 
BRANCH  20  21
ATOM     21  C   UNL     1       1.316  -0.793   1.338  0.00  0.00    +0.048 A 
ATOM     22  C   UNL     1       2.415  -1.605   1.086  0.00  0.00    +0.025 A 
ATOM     23  C   UNL     1       3.442  -1.679   2.006  0.00  0.00    +0.002 A 
ATOM     24  C   UNL     1       3.377  -0.946   3.177  0.00  0.00    +0.000 A 
ATOM     25  C   UNL     1       2.284  -0.137   3.431  0.00  0.00    +0.002 A 
ATOM     26  C   UNL     1       1.256  -0.054   2.512  0.00  0.00    +0.025 A 
ENDBRANCH  20  21
ENDBRANCH   1  20
BRANCH  13  27
ATOM     27  N   UNL     1       1.208  -3.854  -6.681  0.00  0.00    -0.312 N 
ATOM     28  H   UNL     1       1.999  -4.379  -6.881  0.00  0.00    +0.152 HD
BRANCH  27  29
ATOM     29  C   UNL     1       0.143  -3.820  -7.589  0.00  0.00    +0.032 A 
ATOM     30  C   UNL     1      -0.932  -2.965  -7.365  0.00  0.00    +0.027 A 
ATOM     31  C   UNL     1      -1.986  -2.923  -8.254  0.00  0.00    +0.048 A 
ATOM     32  C   UNL     1      -1.982  -3.735  -9.379  0.00  0.00    +0.131 A 
ATOM     33  C   UNL     1      -0.902  -4.599  -9.612  0.00  0.00    +0.106 A 
ATOM     34  C   UNL     1       0.165  -4.631  -8.709  0.00  0.00    +0.042 A 
BRANCH  33  35
ATOM     35  C   UNL     1      -0.890  -5.463 -10.803  0.00  0.00    +0.390 C 
ATOM     36  O   UNL     1       0.053  -6.216 -11.003  0.00  0.00    -0.240 OA
ATOM     37  O   UNL     1      -1.824  -5.429 -11.593  0.00  0.00    -0.240 OA
ENDBRANCH  33  35
BRANCH  32  38
ATOM     38  O   UNL     1      -3.021  -3.693 -10.252  0.00  0.00    -0.506 OA
ATOM     39  H   UNL     1      -2.912  -3.045 -10.961  0.00  0.00    +0.292 HD
ENDBRANCH  32  38
ENDBRANCH  27  29
ENDBRANCH  13  27
TORSDOF 7
