REMARK  Name = ZINC15226180
REMARK  13 active torsions:
REMARK  status: ('A' for Active; 'I' for Inactive)
REMARK    1  A    between atoms: C_1  and  C_2
REMARK    2  A    between atoms: C_2  and  C_4
REMARK    3  A    between atoms: C_2  and  N_10
REMARK    4  A    between atoms: C_11  and  C_13
REMARK    5  A    between atoms: C_13  and  O_14
REMARK    6  A    between atoms: O_14  and  C_15
REMARK    7  A    between atoms: C_18  and  C_21
REMARK    8  A    between atoms: N_22  and  N_23
REMARK    9  A    between atoms: C_24  and  C_26
REMARK   10  A    between atoms: C_26  and  S_27
REMARK   11  A    between atoms: S_27  and  C_28
REMARK   12  A    between atoms: C_28  and  C_29
REMARK   13  A    between atoms: C_32  and  N_35
REMARK                            x       y       z     vdW  Elec       q    Type
REMARK                         _______ _______ _______ _____ _____    ______ ____
ROOT
ATOM      1  C   UNL     1      -2.178   4.300   0.036  0.00  0.00    +0.121 A 
ATOM      2  C   UNL     1      -3.453   3.750   0.033  0.00  0.00    +0.046 A 
ATOM      3  C   UNL     1      -4.560   4.570   0.048  0.00  0.00    +0.013 A 
ATOM      4  C   UNL     1      -4.398   5.958   0.055  0.00  0.00    -0.005 A 
ATOM      5  C   UNL     1      -3.113   6.508   0.052  0.00  0.00    +0.013 A 
ATOM      6  C   UNL     1      -2.012   5.679   0.043  0.00  0.00    +0.046 A 
ENDROOT
BRANCH   4   7
ATOM      7  C   UNL     1      -5.579   6.840   0.066  0.00  0.00    +0.138 C 
ATOM      8  N   UNL     1      -6.772   6.328   0.068  0.00  0.00    -0.188 NA
BRANCH   8   9
ATOM      9  N   UNL     1      -7.894   7.166   0.079  0.00  0.00    -0.206 N 
ATOM     10  C   UNL     1      -9.133   6.634   0.081  0.00  0.00    +0.242 C 
ATOM     11  O   UNL     1      -9.275   5.430   0.074  0.00  0.00    -0.273 OA
ATOM     12  H   UNL     1      -7.780   8.130   0.084  0.00  0.00    +0.177 HD
BRANCH  10  13
ATOM     13  C   UNL     1     -10.340   7.536   0.092  0.00  0.00    +0.166 C 
BRANCH  13  14
ATOM     14  S   UNL     1     -11.848   6.527   0.093  0.00  0.00    -0.147 S 
BRANCH  14  15
ATOM     15  C   UNL     1     -13.191   7.747   0.107  0.00  0.00    +0.104 C 
BRANCH  15  16
ATOM     16  C   UNL     1     -14.518   7.032   0.109  0.00  0.00    -0.037 A 
ATOM     17  C   UNL     1     -15.135   6.716  -1.088  0.00  0.00    +0.006 A 
ATOM     18  C   UNL     1     -16.350   6.057  -1.086  0.00  0.00    +0.033 A 
ATOM     19  C   UNL     1     -16.953   5.722   0.112  0.00  0.00    +0.126 A 
ATOM     20  C   UNL     1     -16.338   6.041   1.308  0.00  0.00    +0.033 A 
ATOM     21  C   UNL     1     -15.121   6.697   1.306  0.00  0.00    +0.006 A 
BRANCH  19  22
ATOM     22  N   UNL     1     -18.256   5.020   0.114  0.00  0.00    +0.056 N 
ATOM     23  O   UNL     1     -18.787   4.724   1.169  0.00  0.00    -0.126 OA
ATOM     24  O   UNL     1     -18.797   4.738  -0.940  0.00  0.00    -0.126 OA
ENDBRANCH  19  22
ENDBRANCH  15  16
ENDBRANCH  14  15
ENDBRANCH  13  14
ENDBRANCH  10  13
ENDBRANCH   8   9
ENDBRANCH   4   7
BRANCH   1  25
ATOM     25  O   UNL     1      -1.089   3.488   0.026  0.00  0.00    -0.483 OA
BRANCH  25  26
ATOM     26  C   UNL     1      -1.331   2.079   0.020  0.00  0.00    +0.324 C 
BRANCH  26  28
ATOM     27  N   UNL     1       0.002  -0.004   0.002  0.00  0.00    -0.306 N 
ATOM     28  C   UNL     1      -0.016   1.344   0.009  0.00  0.00    +0.251 C 
ATOM     29  O   UNL     1       1.026   1.964   0.003  0.00  0.00    -0.272 OA
ATOM     30  H   UNL     1      -0.831  -0.500   0.007  0.00  0.00    +0.149 HD
BRANCH  27  32
ATOM     31  C   UNL     1       1.801  -0.866   1.417  0.00  0.00    +0.033 C 
ATOM     32  C   UNL     1       1.281  -0.719  -0.014  0.00  0.00    +0.100 C 
BRANCH  32  33
ATOM     33  C   UNL     1       1.085  -2.085  -0.620  0.00  0.00    -0.027 A 
ATOM     34  C   UNL     1      -0.046  -2.820  -0.316  0.00  0.00    +0.005 A 
ATOM     35  C   UNL     1      -0.228  -4.071  -0.875  0.00  0.00    +0.000 A 
ATOM     36  C   UNL     1       0.725  -4.591  -1.731  0.00  0.00    +0.000 A 
ATOM     37  C   UNL     1       1.858  -3.858  -2.031  0.00  0.00    +0.000 A 
ATOM     38  C   UNL     1       2.038  -2.605  -1.476  0.00  0.00    +0.005 A 
ENDBRANCH  32  33
ENDBRANCH  27  32
ENDBRANCH  26  28
ENDBRANCH  25  26
ENDBRANCH   1  25
TORSDOF 12
