REMARK  Name = ZINC14996558
REMARK  5 active torsions:
REMARK  status: ('A' for Active; 'I' for Inactive)
REMARK    1  A    between atoms: C_3  and  C_8
REMARK    2  A    between atoms: C_8  and  C_9
REMARK    3  A    between atoms: C_9  and  N_10
REMARK    4  A    between atoms: C_21  and  N_54
REMARK    5  A    between atoms: C_25  and  N_54
REMARK                            x       y       z     vdW  Elec       q    Type
REMARK                         _______ _______ _______ _____ _____    ______ ____
ROOT
ATOM      1  N   UNL     1       1.602   1.360   4.185  0.00  0.00    -0.298 N 
ATOM      2  C   UNL     1       0.764   1.834   5.138  0.00  0.00    +0.203 A 
ATOM      3  N   UNL     1      -0.472   2.207   4.885  0.00  0.00    -0.230 NA
ATOM      4  C   UNL     1      -0.896   2.104   3.629  0.00  0.00    +0.116 A 
ATOM      5  C   UNL     1      -0.100   1.622   2.567  0.00  0.00    +0.076 A 
ATOM      6  C   UNL     1       1.243   1.227   2.886  0.00  0.00    +0.262 A 
ATOM      7  O   UNL     1       2.011   0.798   2.042  0.00  0.00    -0.267 OA
ATOM      8  C   UNL     1      -0.732   1.580   1.260  0.00  0.00    -0.023 A 
ATOM      9  C   UNL     1      -2.017   2.006   1.189  0.00  0.00    -0.006 A 
ATOM     10  S   UNL     1      -2.441   2.479   2.847  0.00  0.00    -0.073 S 
ATOM     11  C   UNL     1      -2.889   2.065  -0.027  0.00  0.00    +0.027 C 
ATOM     12  C   UNL     1      -2.239   1.220  -1.132  0.00  0.00    -0.066 C 
ATOM     13  C   UNL     1      -0.757   1.595  -1.227  0.00  0.00    -0.011 C 
ATOM     14  C   UNL     1      -0.013   1.086   0.008  0.00  0.00    +0.035 C 
ENDROOT
BRANCH  12  15
ATOM     15  N   UNL     1      -2.896   1.502  -2.423  0.00  0.00    +0.383 N 
ATOM     16  H   UNL     1      -2.237   1.312  -3.187  0.00  0.00    -0.085 HD
ATOM     17  H   UNL     1      -3.177   2.489  -2.451  0.00  0.00    -0.085 HD
BRANCH  15  18
ATOM     18  C   UNL     1      -4.089   0.651  -2.586  0.00  0.00    -0.071 C 
ATOM     19  C   UNL     1      -3.693  -0.700  -3.217  0.00  0.00    -0.016 C 
ATOM     20  C   UNL     1      -4.870  -1.033  -4.169  0.00  0.00    -0.002 C 
ATOM     21  C   UNL     1      -5.244   0.353  -4.750  0.00  0.00    -0.002 C 
ATOM     22  C   UNL     1      -5.075   1.320  -3.560  0.00  0.00    -0.016 C 
ENDBRANCH  15  18
ENDBRANCH  12  15
BRANCH   1  23
ATOM     23  C   UNL     1       2.959   0.974   4.578  0.00  0.00    +0.131 C 
BRANCH  23  24
ATOM     24  C   UNL     1       2.973  -0.503   4.979  0.00  0.00    +0.057 C 
BRANCH  24  27
ATOM     25  C   UNL     1       6.049  -1.143   7.072  0.00  0.00    +0.002 A 
ATOM     26  C   UNL     1       4.769  -0.777   6.700  0.00  0.00    +0.004 A 
ATOM     27  C   UNL     1       4.369  -0.900   5.383  0.00  0.00    -0.044 A 
ATOM     28  C   UNL     1       5.248  -1.394   4.437  0.00  0.00    +0.023 A 
ATOM     29  C   UNL     1       6.531  -1.754   4.807  0.00  0.00    +0.041 A 
ATOM     30  C   UNL     1       6.931  -1.632   6.126  0.00  0.00    +0.020 A 
ATOM     31 CL   UNL     1       7.638  -2.368   3.619  0.00  0.00    -0.084 Cl
ENDBRANCH  24  27
ENDBRANCH  23  24
ENDBRANCH   1  23
TORSDOF 5
