REMARK  Name = ZINC16042318
REMARK  7 active torsions:
REMARK  status: ('A' for Active; 'I' for Inactive)
REMARK    1  A    between atoms: C_1  and  O_2
REMARK    2  A    between atoms: O_2  and  C_3
REMARK    3  A    between atoms: C_6  and  C_9
REMARK    4  A    between atoms: C_9  and  N_10
REMARK    5  A    between atoms: C_30  and  C_32
REMARK    6  A    between atoms: C_32  and  C_33
REMARK    7  A    between atoms: C_33  and  C_34
REMARK                            x       y       z     vdW  Elec       q    Type
REMARK                         _______ _______ _______ _____ _____    ______ ____
ROOT
ATOM      1  N   UNL     1       1.716   2.432   0.024  0.00  0.00    -0.287 N 
ATOM      2  C   UNL     1       1.610   3.880   0.085  0.00  0.00    +0.204 C 
ATOM      3  C   UNL     1       0.193   4.344  -0.017  0.00  0.00    +0.234 C 
ATOM      4  O   UNL     1      -0.013   5.539  -0.004  0.00  0.00    -0.274 OA
ATOM      5  N   UNL     1      -0.860   3.532  -0.123  0.00  0.00    -0.280 N 
ATOM      6  C   UNL     1      -0.755   2.075  -0.081  0.00  0.00    +0.167 C 
ATOM      7  C   UNL     1       0.667   1.615  -0.051  0.00  0.00    +0.237 C 
ATOM      8  O   UNL     1       0.879   0.422  -0.102  0.00  0.00    -0.274 OA
ATOM      9  C   UNL     1      -1.491   1.556   1.163  0.00  0.00    +0.069 C 
ATOM     10  C   UNL     1      -2.824   2.253   1.266  0.00  0.00    -0.015 A 
ATOM     11  C   UNL     1      -3.982   1.866   2.045  0.00  0.00    +0.003 A 
ATOM     12  C   UNL     1      -4.231   0.788   2.901  0.00  0.00    +0.010 A 
ATOM     13  C   UNL     1      -5.472   0.735   3.486  0.00  0.00    +0.001 A 
ATOM     14  C   UNL     1      -6.439   1.698   3.249  0.00  0.00    +0.002 A 
ATOM     15  C   UNL     1      -6.220   2.775   2.407  0.00  0.00    +0.026 A 
ATOM     16  C   UNL     1      -4.969   2.854   1.798  0.00  0.00    +0.047 A 
ATOM     17  N   UNL     1      -4.428   3.760   0.932  0.00  0.00    -0.356 N 
ATOM     18  H   UNL     1      -4.884   4.545   0.590  0.00  0.00    +0.166 HD
ATOM     19  C   UNL     1      -3.147   3.393   0.618  0.00  0.00    +0.041 A 
ATOM     20  C   UNL     1      -2.204   4.121  -0.302  0.00  0.00    +0.124 C 
ENDROOT
BRANCH   1  21
ATOM     21  C   UNL     1       3.054   1.836   0.047  0.00  0.00    +0.143 C 
BRANCH  21  25
ATOM     22  C   UNL     1       4.503   1.436  -3.954  0.00  0.00    +0.120 A 
ATOM     23  C   UNL     1       4.754   2.597  -3.237  0.00  0.00    +0.046 A 
ATOM     24  C   UNL     1       4.284   2.724  -1.944  0.00  0.00    +0.009 A 
ATOM     25  C   UNL     1       3.565   1.695  -1.364  0.00  0.00    -0.030 A 
ATOM     26  C   UNL     1       3.318   0.535  -2.075  0.00  0.00    +0.009 A 
ATOM     27  C   UNL     1       3.780   0.406  -3.370  0.00  0.00    +0.046 A 
BRANCH  22  29
ATOM     28  C   UNL     1       4.668   0.086  -5.904  0.00  0.00    +0.277 C 
ATOM     29  O   UNL     1       4.964   1.309  -5.226  0.00  0.00    -0.495 OA
ENDBRANCH  22  29
ENDBRANCH  21  25
ENDBRANCH   1  21
BRANCH  20  30
ATOM     30  C   UNL     1      -2.171   5.610   0.049  0.00  0.00    +0.033 C 
BRANCH  30  31
ATOM     31  C   UNL     1      -1.761   5.779   1.513  0.00  0.00    +0.037 C 
BRANCH  31  32
ATOM     32  C   UNL     1      -1.597   7.245   1.822  0.00  0.00    -0.047 A 
ATOM     33  C   UNL     1      -0.368   7.854   1.654  0.00  0.00    +0.003 A 
ATOM     34  C   UNL     1      -0.218   9.199   1.934  0.00  0.00    +0.000 A 
ATOM     35  C   UNL     1      -1.296   9.934   2.390  0.00  0.00    +0.000 A 
ATOM     36  C   UNL     1      -2.525   9.325   2.563  0.00  0.00    +0.000 A 
ATOM     37  C   UNL     1      -2.675   7.980   2.280  0.00  0.00    +0.003 A 
ENDBRANCH  31  32
ENDBRANCH  30  31
ENDBRANCH  20  30
TORSDOF 6
