REMARK  Name = ZINC09503042
REMARK  8 active torsions:
REMARK  status: ('A' for Active; 'I' for Inactive)
REMARK    1  A    between atoms: C_1  and  C_2
REMARK    2  A    between atoms: C_5  and  N_13
REMARK    3  A    between atoms: C_7  and  S_8
REMARK    4  A    between atoms: S_8  and  N_11
REMARK    5  A    between atoms: N_11  and  C_12
REMARK    6  A    between atoms: C_14  and  C_16
REMARK    7  A    between atoms: C_16  and  N_53
REMARK    8  A    between atoms: C_24  and  C_26
REMARK                            x       y       z     vdW  Elec       q    Type
REMARK                         _______ _______ _______ _____ _____    ______ ____
ROOT
ATOM      1  N   UNL     1       3.176   3.060   4.635  0.00  0.00    -0.287 N 
ATOM      2  C   UNL     1       2.979   3.572   3.404  0.00  0.00    +0.201 C 
ATOM      3  O   UNL     1       3.859   4.206   2.863  0.00  0.00    -0.278 OA
ATOM      4  H   UNL     1       2.449   2.616   5.098  0.00  0.00    +0.155 HD
ENDROOT
BRANCH   1   9
ATOM      5  C   UNL     1       8.262   3.504   7.109  0.00  0.00    +0.046 C 
ATOM      6  C   UNL     1       6.911   3.386   6.452  0.00  0.00    -0.024 A 
ATOM      7  C   UNL     1       6.821   3.249   5.079  0.00  0.00    +0.007 A 
ATOM      8  C   UNL     1       5.585   3.134   4.474  0.00  0.00    +0.023 A 
ATOM      9  C   UNL     1       4.431   3.170   5.245  0.00  0.00    +0.035 A 
ATOM     10  C   UNL     1       4.524   3.308   6.624  0.00  0.00    +0.052 A 
ATOM     11  C   UNL     1       5.764   3.416   7.223  0.00  0.00    +0.110 A 
BRANCH  11  12
ATOM     12  S   UNL     1       5.884   3.592   8.972  0.00  0.00    +0.058 S 
ATOM     13  O   UNL     1       4.553   3.603   9.471  0.00  0.00    -0.153 OA
ATOM     14  O   UNL     1       6.854   2.650   9.410  0.00  0.00    -0.153 OA
BRANCH  12  15
ATOM     15  N   UNL     1       6.514   5.094   9.271  0.00  0.00    -0.193 NA
ATOM     16  C   UNL     1       5.751   6.292   8.915  0.00  0.00    +0.127 C 
ATOM     17  H   UNL     1       7.388   5.180   9.682  0.00  0.00    +0.148 HD
ENDBRANCH  12  15
ENDBRANCH  11  12
ENDBRANCH   1   9
BRANCH   2  18
ATOM     18  C   UNL     1       1.664   3.356   2.700  0.00  0.00    +0.020 C 
BRANCH  18  27
ATOM     19  C   UNL     1       1.822   5.466   1.518  0.00  0.00    -0.072 C 
ATOM     20  C   UNL     1       2.261   6.057   0.167  0.00  0.00    +0.024 C 
ATOM     21  C   UNL     1       1.411   5.442  -0.896  0.00  0.00    -0.010 A 
ATOM     22  C   UNL     1       0.612   4.346  -0.767  0.00  0.00    -0.046 A 
ATOM     23  C   UNL     1      -0.096   3.955  -1.901  0.00  0.00    +0.010 A 
ATOM     24  C   UNL     1       0.031   4.654  -3.053  0.00  0.00    +0.045 A 
ATOM     25  S   UNL     1       1.187   5.933  -2.583  0.00  0.00    -0.101 S 
ATOM     26  C   UNL     1       0.537   3.623   0.575  0.00  0.00    +0.002 C 
ATOM     27  N   UNL     1       1.731   3.993   1.370  0.00  0.00    +0.393 N 
ATOM     28  H   UNL     1       2.570   3.657   0.882  0.00  0.00    -0.080 HD
BRANCH  26  29
ATOM     29  C   UNL     1       0.548   2.134   0.348  0.00  0.00    -0.019 A 
ATOM     30  C   UNL     1      -0.491   1.262   0.348  0.00  0.00    +0.010 A 
ATOM     31  C   UNL     1      -0.242  -0.077   0.114  0.00  0.00    +0.008 A 
ATOM     32  C   UNL     1       1.033  -0.480  -0.110  0.00  0.00    +0.045 A 
ATOM     33  S   UNL     1       1.932   1.058   0.008  0.00  0.00    -0.103 S 
ENDBRANCH  26  29
ENDBRANCH  18  27
ENDBRANCH   2  18
TORSDOF 6
