REMARK  Name = ZINC39369756
REMARK  8 active torsions:
REMARK  status: ('A' for Active; 'I' for Inactive)
REMARK    1  A    between atoms: C_1  and  O_2
REMARK    2  A    between atoms: O_2  and  C_3
REMARK    3  A    between atoms: C_8  and  C_13
REMARK    4  A    between atoms: C_13  and  C_30
REMARK    5  A    between atoms: C_14  and  C_15
REMARK    6  A    between atoms: C_18  and  O_21
REMARK    7  A    between atoms: O_21  and  C_22
REMARK    8  A    between atoms: C_22  and  C_23
REMARK                            x       y       z     vdW  Elec       q    Type
REMARK                         _______ _______ _______ _____ _____    ______ ____
ROOT
ATOM      1  C   UNL     1       3.973  -4.445   4.005  0.00  0.00    +0.072 C 
ATOM      2  C   UNL     1       3.969  -5.765   4.283  0.00  0.00    +0.026 C 
ENDROOT
BRANCH   1   8
ATOM      3  C   UNL     1       1.951   0.751   3.485  0.00  0.00    +0.122 A 
ATOM      4  C   UNL     1       3.105   1.077   4.313  0.00  0.00    +0.048 A 
ATOM      5  C   UNL     1       3.817   0.126   4.947  0.00  0.00    +0.031 A 
ATOM      6  C   UNL     1       3.433  -1.287   4.811  0.00  0.00    +0.061 A 
ATOM      7  N   UNL     1       3.936  -2.382   5.304  0.00  0.00    -0.359 N 
ATOM      8  C   UNL     1       3.122  -3.501   4.815  0.00  0.00    +0.216 C 
ATOM      9  N   UNL     1       2.075  -2.914   3.970  0.00  0.00    -0.359 N 
ATOM     10  C   UNL     1       2.255  -1.621   3.966  0.00  0.00    +0.064 A 
ATOM     11  C   UNL     1       1.532  -0.527   3.315  0.00  0.00    +0.073 A 
ATOM     12  H   UNL     1       4.708  -2.447   5.887  0.00  0.00    +0.162 HD
ATOM     13  H   UNL     1       1.377  -3.398   3.501  0.00  0.00    +0.162 HD
BRANCH   3  15
ATOM     14  C   UNL     1       1.756   3.083   3.080  0.00  0.00    +0.277 C 
ATOM     15  O   UNL     1       1.275   1.754   2.871  0.00  0.00    -0.495 OA
ENDBRANCH   3  15
ENDBRANCH   1   8
BRANCH   2  16
ATOM     16  C   UNL     1       3.008  -6.309   5.255  0.00  0.00    -0.024 A 
ATOM     17  C   UNL     1       1.702  -5.808   5.306  0.00  0.00    +0.011 A 
ATOM     18  C   UNL     1       0.806  -6.321   6.217  0.00  0.00    +0.046 A 
ATOM     19  C   UNL     1       1.197  -7.334   7.085  0.00  0.00    +0.121 A 
ATOM     20  C   UNL     1       2.493  -7.834   7.039  0.00  0.00    +0.046 A 
ATOM     21  C   UNL     1       3.394  -7.332   6.127  0.00  0.00    +0.011 A 
BRANCH  19  22
ATOM     22  O   UNL     1       0.309  -7.836   7.982  0.00  0.00    -0.487 OA
BRANCH  22  23
ATOM     23  C   UNL     1       0.776  -8.875   8.845  0.00  0.00    +0.264 C 
BRANCH  23  24
ATOM     24  C   UNL     1      -0.338  -9.303   9.764  0.00  0.00    -0.010 A 
ATOM     25  C   UNL     1      -0.507  -8.675  10.984  0.00  0.00    +0.008 A 
ATOM     26  C   UNL     1      -1.529  -9.068  11.828  0.00  0.00    +0.015 A 
ATOM     27  C   UNL     1      -2.383 -10.088  11.451  0.00  0.00    +0.018 A 
ATOM     28  C   UNL     1      -2.214 -10.716  10.230  0.00  0.00    +0.015 A 
ATOM     29  C   UNL     1      -1.195 -10.320   9.385  0.00  0.00    +0.008 A 
ATOM     30 BR   UNL     1      -3.782 -10.626  12.605  0.00  0.00    -0.050 Br
ENDBRANCH  23  24
ENDBRANCH  22  23
ENDBRANCH  19  22
ENDBRANCH   2  16
BRANCH   1  31
ATOM     31  C   UNL     1       4.786  -3.940   2.940  0.00  0.00    +0.099 C 
ATOM     32  N   UNL     1       5.431  -3.540   2.095  0.00  0.00    -0.191 NA
ENDBRANCH   1  31
TORSDOF 7
