REMARK  Name = ZINC11297844
REMARK  10 active torsions:
REMARK  status: ('A' for Active; 'I' for Inactive)
REMARK    1  A    between atoms: C_1  and  N_2
REMARK    2  A    between atoms: N_2  and  C_3
REMARK    3  A    between atoms: C_6  and  C_11
REMARK    4  A    between atoms: C_11  and  C_31
REMARK    5  A    between atoms: C_12  and  C_13
REMARK    6  A    between atoms: C_16  and  O_21
REMARK    7  A    between atoms: C_17  and  O_19
REMARK    8  A    between atoms: O_19  and  C_20
REMARK    9  A    between atoms: O_21  and  C_22
REMARK   10  A    between atoms: C_22  and  C_24
REMARK                            x       y       z     vdW  Elec       q    Type
REMARK                         _______ _______ _______ _____ _____    ______ ____
ROOT
ATOM      1  C   UNL     1      -1.199   1.701  -0.003  0.00  0.00    -0.020 A 
ATOM      2  C   UNL     1      -0.011   0.960   0.015  0.00  0.00    +0.012 A 
ATOM      3  C   UNL     1       1.204   1.607  -0.010  0.00  0.00    +0.051 A 
ATOM      4  C   UNL     1       1.256   2.995  -0.047  0.00  0.00    +0.173 A 
ATOM      5  C   UNL     1       0.077   3.741  -0.060  0.00  0.00    +0.163 A 
ATOM      6  C   UNL     1      -1.146   3.101  -0.036  0.00  0.00    +0.057 A 
ENDROOT
BRANCH   1   8
ATOM      7  C   UNL     1      -2.630  -0.167   0.685  0.00  0.00    +0.097 C 
ATOM      8  C   UNL     1      -2.495   1.015   0.017  0.00  0.00    +0.030 C 
BRANCH   7  14
ATOM      9  C   UNL     1      -6.526  -4.752   1.679  0.00  0.00    +0.132 C 
ATOM     10  N   UNL     1      -5.283  -3.986   1.793  0.00  0.00    -0.306 N 
ATOM     11  C   UNL     1      -4.186  -4.488   2.625  0.00  0.00    +0.132 C 
ATOM     12  C   UNL     1      -5.145  -2.790   1.117  0.00  0.00    +0.222 A 
ATOM     13  N   UNL     1      -4.015  -2.097   1.217  0.00  0.00    -0.194 NA
ATOM     14  C   UNL     1      -3.884  -0.941   0.570  0.00  0.00    +0.177 A 
ATOM     15  N   UNL     1      -4.882  -0.486  -0.186  0.00  0.00    -0.194 NA
ATOM     16  C   UNL     1      -6.008  -1.183  -0.289  0.00  0.00    +0.217 A 
ATOM     17  N   UNL     1      -6.140  -2.335   0.363  0.00  0.00    -0.181 NA
ATOM     18  N   UNL     1      -7.043  -0.711  -1.071  0.00  0.00    -0.327 N 
ATOM     19  H   UNL     1      -6.947   0.129  -1.546  0.00  0.00    +0.145 HD
ATOM     20  H   UNL     1      -7.865  -1.220  -1.146  0.00  0.00    +0.145 HD
ENDBRANCH   7  14
BRANCH   7  21
ATOM     21  C   UNL     1      -1.558  -0.657   1.497  0.00  0.00    +0.103 C 
ATOM     22  N   UNL     1      -0.707  -1.045   2.142  0.00  0.00    -0.191 NA
ENDBRANCH   7  21
ENDBRANCH   1   8
BRANCH   5  23
ATOM     23  O   UNL     1       0.133   5.099  -0.097  0.00  0.00    -0.491 OA
ATOM     24  C   UNL     1      -1.113   5.800  -0.108  0.00  0.00    +0.277 C 
ENDBRANCH   5  23
BRANCH   4  25
ATOM     25  O   UNL     1       2.457   3.627  -0.071  0.00  0.00    -0.419 OA
BRANCH  25  26
ATOM     26  C   UNL     1       2.913   4.119   1.098  0.00  0.00    +0.345 C 
ATOM     27  O   UNL     1       2.216   4.067   2.092  0.00  0.00    -0.245 OA
BRANCH  26  28
ATOM     28  C   UNL     1       4.259   4.721   1.170  0.00  0.00    +0.060 A 
ATOM     29  C   UNL     1       5.065   4.777   0.030  0.00  0.00    +0.018 A 
ATOM     30  C   UNL     1       6.318   5.345   0.103  0.00  0.00    +0.039 A 
ATOM     31  C   UNL     1       6.785   5.850   1.307  0.00  0.00    +0.123 A 
ATOM     32  C   UNL     1       5.992   5.792   2.443  0.00  0.00    +0.039 A 
ATOM     33  C   UNL     1       4.734   5.231   2.381  0.00  0.00    +0.018 A 
ATOM     34  F   UNL     1       8.016   6.401   1.374  0.00  0.00    -0.205 F 
ENDBRANCH  26  28
ENDBRANCH  25  26
ENDBRANCH   4  25
TORSDOF 7
