REMARK  Name = ZINC13063480
REMARK  6 active torsions:
REMARK  status: ('A' for Active; 'I' for Inactive)
REMARK    1  A    between atoms: C_6  and  C_7
REMARK    2  A    between atoms: N_9  and  C_20
REMARK    3  A    between atoms: N_12  and  C_13
REMARK    4  A    between atoms: C_13  and  C_14
REMARK    5  A    between atoms: C_20  and  N_55
REMARK    6  A    between atoms: C_23  and  C_26
REMARK                            x       y       z     vdW  Elec       q    Type
REMARK                         _______ _______ _______ _____ _____    ______ ____
ROOT
ATOM      1  C   UNL     1       3.701  -0.678  -0.012  0.00  0.00    +0.163 A 
ATOM      2  N   UNL     1       3.885  -1.920   0.339  0.00  0.00    -0.152 NA
ATOM      3  N   UNL     1       5.238  -2.229   0.144  0.00  0.00    -0.257 N 
ATOM      4  C   UNL     1       5.845  -1.121  -0.327  0.00  0.00    +0.177 A 
ATOM      5  S   UNL     1       7.503  -0.967  -0.725  0.00  0.00    -0.011 S 
ATOM      6  N   UNL     1       4.909  -0.155  -0.429  0.00  0.00    -0.301 N 
ENDROOT
BRANCH   1  12
ATOM      7  C   UNL     1       1.210  -0.654   0.041  0.00  0.00    +0.013 A 
ATOM      8  C   UNL     1       0.013   0.031   0.084  0.00  0.00    +0.021 A 
ATOM      9  C   UNL     1       0.005   1.415   0.121  0.00  0.00    +0.041 A 
ATOM     10  C   UNL     1       1.197   2.120   0.114  0.00  0.00    +0.021 A 
ATOM     11  C   UNL     1       2.400   1.446   0.070  0.00  0.00    +0.013 A 
ATOM     12  C   UNL     1       2.414   0.051   0.034  0.00  0.00    +0.019 A 
ATOM     13 CL   UNL     1      -1.504   2.271   0.168  0.00  0.00    -0.084 Cl
ENDBRANCH   1  12
BRANCH   6  14
ATOM     14  C   UNL     1       5.136   1.213  -0.900  0.00  0.00    +0.157 C 
BRANCH  14  15
ATOM     15  C   UNL     1       5.588   2.088   0.271  0.00  0.00    +0.138 C 
ATOM     16  C   UNL     1       5.718   3.555  -0.191  0.00  0.00    +0.035 C 
ATOM     17  C   UNL     1       6.995   4.025   0.558  0.00  0.00    +0.031 C 
ATOM     18  C   UNL     1       7.832   2.721   0.557  0.00  0.00    +0.160 C 
ATOM     19  O   UNL     1       6.877   1.661   0.726  0.00  0.00    -0.375 OA
ENDBRANCH  14  15
ENDBRANCH   6  14
BRANCH   3  20
ATOM     20  C   UNL     1       5.878  -3.521   0.408  0.00  0.00    +0.072 C 
BRANCH  20  26
ATOM     21  C   UNL     1       7.443  -2.573   1.994  0.00  0.00    -0.075 C 
ATOM     22  C   UNL     1       7.824  -2.530   3.476  0.00  0.00    -0.006 C 
ATOM     23  C   UNL     1       8.283  -3.921   3.921  0.00  0.00    +0.071 C 
ATOM     24  C   UNL     1       7.160  -4.928   3.657  0.00  0.00    -0.006 C 
ATOM     25  C   UNL     1       6.798  -4.903   2.170  0.00  0.00    -0.075 C 
ATOM     26  N   UNL     1       6.342  -3.543   1.811  0.00  0.00    +0.393 N 
ATOM     27  H   UNL     1       5.561  -3.281   2.424  0.00  0.00    -0.079 HD
BRANCH  23  28
ATOM     28  C   UNL     1       8.603  -3.898   5.393  0.00  0.00    +0.213 C 
ATOM     29  O   UNL     1       7.994  -4.617   6.157  0.00  0.00    -0.276 OA
ATOM     30  N   UNL     1       9.566  -3.080   5.861  0.00  0.00    -0.329 N 
ATOM     31  H   UNL     1      10.053  -2.505   5.250  0.00  0.00    +0.145 HD
ATOM     32  H   UNL     1       9.772  -3.065   6.809  0.00  0.00    +0.145 HD
ENDBRANCH  23  28
ENDBRANCH  20  26
ENDBRANCH   3  20
TORSDOF 6
