REMARK  Name = ZINC35025272
REMARK  11 active torsions:
REMARK  status: ('A' for Active; 'I' for Inactive)
REMARK    1  A    between atoms: C_1  and  C_2
REMARK    2  A    between atoms: C_2  and  O_3
REMARK    3  A    between atoms: O_3  and  C_4
REMARK    4  A    between atoms: C_7  and  C_12
REMARK    5  A    between atoms: C_9  and  O_10
REMARK    6  A    between atoms: O_10  and  C_11
REMARK    7  A    between atoms: C_14  and  C_15
REMARK    8  A    between atoms: C_15  and  C_16
REMARK    9  A    between atoms: C_23  and  C_26
REMARK   10  A    between atoms: N_32  and  C_33
REMARK   11  A    between atoms: C_33  and  C_34
REMARK                            x       y       z     vdW  Elec       q    Type
REMARK                         _______ _______ _______ _____ _____    ______ ____
ROOT
ATOM      1  C   UNL     1       1.121  -6.301  -1.662  0.00  0.00    +0.145 C 
ATOM      2  C   UNL     1       2.251  -6.895  -0.854  0.00  0.00    +0.076 C 
ATOM      3  C   UNL     1       1.693  -7.776   0.009  0.00  0.00    +0.249 C 
ATOM      4  O   UNL     1       2.368  -8.522   0.913  0.00  0.00    -0.282 OA
ATOM      5  C   UNL     1       0.229  -7.791  -0.193  0.00  0.00    +0.288 C 
ATOM      6  O   UNL     1      -0.553  -8.480   0.432  0.00  0.00    -0.266 OA
ATOM      7  N   UNL     1      -0.109  -6.930  -1.169  0.00  0.00    -0.281 N 
ENDROOT
BRANCH   1  11
ATOM      8  C   UNL     1       0.950  -2.071  -1.056  0.00  0.00    +0.162 A 
ATOM      9  C   UNL     1       0.365  -2.929  -0.139  0.00  0.00    +0.050 A 
ATOM     10  C   UNL     1       0.421  -4.296  -0.338  0.00  0.00    +0.009 A 
ATOM     11  C   UNL     1       1.062  -4.810  -1.450  0.00  0.00    -0.019 A 
ATOM     12  C   UNL     1       1.649  -3.959  -2.368  0.00  0.00    +0.055 A 
ATOM     13  C   UNL     1       1.590  -2.587  -2.178  0.00  0.00    +0.162 A 
BRANCH  13  14
ATOM     14  O   UNL     1       2.162  -1.749  -3.083  0.00  0.00    -0.491 OA
ATOM     15  C   UNL     1       2.711  -2.342  -4.261  0.00  0.00    +0.277 C 
ENDBRANCH  13  14
BRANCH   8  16
ATOM     16  O   UNL     1       0.895  -0.726  -0.862  0.00  0.00    -0.489 OA
BRANCH  16  18
ATOM     17  C   UNL     1       0.262   1.262   0.359  0.00  0.00    +0.048 C 
ATOM     18  C   UNL     1       0.222  -0.267   0.312  0.00  0.00    +0.226 C 
ENDBRANCH  16  18
ENDBRANCH   8  16
ENDBRANCH   1  11
BRANCH   2  19
ATOM     19  C   UNL     1       3.678  -6.580  -0.981  0.00  0.00    +0.195 C 
ATOM     20  O   UNL     1       4.258  -6.010  -0.076  0.00  0.00    -0.287 OA
BRANCH  19  21
ATOM     21  C   UNL     1       4.410  -6.954  -2.207  0.00  0.00    +0.023 A 
ATOM     22  C   UNL     1       3.732  -7.530  -3.285  0.00  0.00    +0.015 A 
ATOM     23  C   UNL     1       4.414  -7.874  -4.428  0.00  0.00    +0.046 A 
ATOM     24  C   UNL     1       5.790  -7.653  -4.523  0.00  0.00    +0.124 A 
ATOM     25  C   UNL     1       6.461  -7.086  -3.443  0.00  0.00    -0.002 A 
ATOM     26  C   UNL     1       5.788  -6.728  -2.302  0.00  0.00    +0.019 A 
ATOM     27  C   UNL     1       7.925  -6.995  -3.830  0.00  0.00    +0.083 C 
ATOM     28  C   UNL     1       7.990  -7.934  -5.057  0.00  0.00    +0.175 C 
ATOM     29  O   UNL     1       6.641  -7.905  -5.553  0.00  0.00    -0.488 OA
ATOM     30  C   UNL     1       8.968  -7.393  -6.103  0.00  0.00    +0.052 C 
ENDBRANCH  19  21
ENDBRANCH   2  19
BRANCH   7  31
ATOM     31  C   UNL     1      -1.466  -6.666  -1.654  0.00  0.00    +0.140 C 
BRANCH  31  32
ATOM     32  C   UNL     1      -1.794  -7.625  -2.800  0.00  0.00    +0.136 C 
ATOM     33  C   UNL     1      -3.174  -7.275  -3.398  0.00  0.00    +0.035 C 
ATOM     34  C   UNL     1      -3.776  -8.679  -3.679  0.00  0.00    +0.031 C 
ATOM     35  C   UNL     1      -3.185  -9.494  -2.501  0.00  0.00    +0.160 C 
ATOM     36  O   UNL     1      -1.861  -8.968  -2.307  0.00  0.00    -0.375 OA
ENDBRANCH  31  32
ENDBRANCH   7  31
TORSDOF 8
