REMARK  Name = ZINC14748090
REMARK  6 active torsions:
REMARK  status: ('A' for Active; 'I' for Inactive)
REMARK    1  A    between atoms: C_1  and  N_2
REMARK    2  A    between atoms: C_5  and  C_7
REMARK    3  A    between atoms: C_16  and  N_58
REMARK    4  A    between atoms: C_20  and  C_21
REMARK    5  A    between atoms: C_20  and  N_58
REMARK    6  A    between atoms: C_21  and  O_27
REMARK                            x       y       z     vdW  Elec       q    Type
REMARK                         _______ _______ _______ _____ _____    ______ ____
ROOT
ATOM      1  C   UNL     1       1.266   6.972   0.293  0.00  0.00    +0.172 C 
ATOM      2  N   UNL     1       1.852   5.966   1.182  0.00  0.00    -0.270 N 
ATOM      3  C   UNL     1       2.525   6.236   2.313  0.00  0.00    +0.043 A 
ATOM      4  C   UNL     1       2.901   5.049   2.849  0.00  0.00    +0.004 A 
ATOM      5  C   UNL     1       2.418   4.060   1.975  0.00  0.00    +0.151 A 
ATOM      6  N   UNL     1       1.801   4.693   0.992  0.00  0.00    -0.166 NA
ATOM      7  C   UNL     1       3.677   4.897   4.128  0.00  0.00    +0.023 C 
ATOM      8  C   UNL     1       3.602   6.223   4.897  0.00  0.00    -0.067 C 
ATOM      9  C   UNL     1       3.961   7.379   3.959  0.00  0.00    -0.009 C 
ATOM     10  C   UNL     1       2.840   7.574   2.930  0.00  0.00    +0.054 C 
ENDROOT
BRANCH   5  11
ATOM     11  C   UNL     1       2.575   2.599   2.123  0.00  0.00    +0.267 C 
ATOM     12  O   UNL     1       3.080   2.141   3.130  0.00  0.00    -0.268 OA
ATOM     13  N   UNL     1       2.158   1.774   1.143  0.00  0.00    -0.295 N 
ATOM     14  C   UNL     1       1.448   2.325  -0.013  0.00  0.00    +0.119 C 
ATOM     15  C   UNL     1       0.005   1.808  -0.019  0.00  0.00    +0.088 C 
ATOM     16  S   UNL     1       0.038  -0.009  -0.034  0.00  0.00    -0.158 S 
ATOM     17  C   UNL     1       1.093  -0.415   1.389  0.00  0.00    +0.088 C 
ATOM     18  C   UNL     1       2.421   0.338   1.246  0.00  0.00    +0.119 C 
ENDBRANCH   5  11
BRANCH   8  19
ATOM     19  N   UNL     1       4.558   6.186   6.020  0.00  0.00    +0.383 N 
ATOM     20  H   UNL     1       5.487   6.467   5.684  0.00  0.00    -0.085 HD
ATOM     21  H   UNL     1       4.604   5.231   6.394  0.00  0.00    -0.085 HD
BRANCH  19  22
ATOM     22  C   UNL     1       4.128   7.107   7.089  0.00  0.00    -0.047 C 
BRANCH  22  23
ATOM     23  C   UNL     1       5.137   7.047   8.238  0.00  0.00    +0.051 C 
ATOM     24  C   UNL     1       5.295   5.598   8.703  0.00  0.00    +0.033 C 
ATOM     25  C   UNL     1       6.304   5.538   9.851  0.00  0.00    +0.003 C 
ATOM     26  C   UNL     1       5.802   6.395  11.016  0.00  0.00    +0.000 C 
ATOM     27  C   UNL     1       5.644   7.844  10.551  0.00  0.00    +0.003 C 
ATOM     28  C   UNL     1       4.635   7.904   9.402  0.00  0.00    +0.033 C 
BRANCH  23  29
ATOM     29  O   UNL     1       6.399   7.544   7.790  0.00  0.00    -0.390 OA
ATOM     30  H   UNL     1       6.778   7.048   7.052  0.00  0.00    +0.210 HD
ENDBRANCH  23  29
ENDBRANCH  22  23
ENDBRANCH  19  22
ENDBRANCH   8  19
TORSDOF 5
