REMARK  Name = ZINC18196174
REMARK  10 active torsions:
REMARK  status: ('A' for Active; 'I' for Inactive)
REMARK    1  A    between atoms: C_1  and  C_2
REMARK    2  A    between atoms: C_2  and  C_3
REMARK    3  A    between atoms: C_3  and  O_4
REMARK    4  A    between atoms: O_4  and  C_5
REMARK    5  A    between atoms: C_8  and  C_11
REMARK    6  A    between atoms: C_13  and  C_22
REMARK    7  A    between atoms: N_24  and  C_25
REMARK    8  A    between atoms: N_28  and  C_33
REMARK    9  A    between atoms: C_29  and  C_30
REMARK   10  A    between atoms: C_33  and  C_34
REMARK                            x       y       z     vdW  Elec       q    Type
REMARK                         _______ _______ _______ _____ _____    ______ ____
ROOT
ATOM      1  C   UNL     1       3.798  -0.432  -0.200  0.00  0.00    +0.072 A 
ATOM      2  C   UNL     1       2.560   0.229  -0.175  0.00  0.00    +0.042 A 
ATOM      3  C   UNL     1       1.394  -0.513  -0.056  0.00  0.00    +0.048 A 
ATOM      4  C   UNL     1       1.530  -1.967   0.044  0.00  0.00    +0.014 A 
ATOM      5  C   UNL     1       0.412  -2.799   0.160  0.00  0.00    +0.026 A 
ATOM      6  C   UNL     1       0.583  -4.150   0.243  0.00  0.00    +0.019 A 
ATOM      7  C   UNL     1       1.859  -4.711   0.209  0.00  0.00    +0.017 A 
ATOM      8  C   UNL     1       2.967  -3.930   0.091  0.00  0.00    +0.029 A 
ATOM      9  C   UNL     1       2.829  -2.532   0.002  0.00  0.00    +0.072 A 
ATOM     10  N   UNL     1       3.898  -1.742  -0.115  0.00  0.00    -0.247 NA
ATOM     11 BR   UNL     1      -0.928  -5.275   0.408  0.00  0.00    -0.050 Br
ENDROOT
BRANCH   1  15
ATOM     12  C   UNL     1       7.351   1.876  -0.567  0.00  0.00    +0.121 A 
ATOM     13  C   UNL     1       7.430   0.493  -0.474  0.00  0.00    +0.046 A 
ATOM     14  C   UNL     1       6.280  -0.258  -0.355  0.00  0.00    +0.013 A 
ATOM     15  C   UNL     1       5.036   0.373  -0.328  0.00  0.00    +0.001 A 
ATOM     16  C   UNL     1       4.960   1.762  -0.426  0.00  0.00    +0.013 A 
ATOM     17  C   UNL     1       6.114   2.507  -0.540  0.00  0.00    +0.046 A 
BRANCH  12  18
ATOM     18  O   UNL     1       8.485   2.614  -0.685  0.00  0.00    -0.492 OA
BRANCH  18  19
ATOM     19  C   UNL     1       8.331   4.031  -0.776  0.00  0.00    +0.229 C 
BRANCH  19  21
ATOM     20  C   UNL     1       9.543   6.205  -0.999  0.00  0.00    +0.007 C 
ATOM     21  C   UNL     1       9.708   4.687  -0.902  0.00  0.00    +0.038 C 
ENDBRANCH  19  21
ENDBRANCH  18  19
ENDBRANCH  12  18
ENDBRANCH   1  15
BRANCH   3  22
ATOM     22  C   UNL     1       0.068   0.139  -0.025  0.00  0.00    +0.249 C 
ATOM     23  O   UNL     1      -0.942  -0.537  -0.025  0.00  0.00    -0.270 OA
ATOM     24  N   UNL     1      -0.022   1.484   0.003  0.00  0.00    -0.278 N 
ATOM     25  H   UNL     1       0.784   2.023   0.003  0.00  0.00    +0.155 HD
BRANCH  24  26
ATOM     26  C   UNL     1      -1.274   2.099   0.026  0.00  0.00    +0.084 A 
ATOM     27  C   UNL     1      -2.532   1.475   0.025  0.00  0.00    +0.158 A 
ATOM     28  N   UNL     1      -3.444   2.410   0.052  0.00  0.00    -0.177 NA
ATOM     29  N   UNL     1      -2.912   3.579   0.071  0.00  0.00    -0.258 N 
ATOM     30  C   UNL     1      -1.545   3.464   0.062  0.00  0.00    +0.144 A 
BRANCH  30  31
ATOM     31  C   UNL     1      -0.568   4.557   0.082  0.00  0.00    +0.261 C 
ATOM     32  O   UNL     1      -0.022   4.865   1.125  0.00  0.00    -0.269 OA
ATOM     33  N   UNL     1      -0.275   5.220  -1.054  0.00  0.00    -0.324 N 
ATOM     34  H   UNL     1      -0.655   4.929  -1.897  0.00  0.00    +0.145 HD
ATOM     35  H   UNL     1       0.315   5.989  -1.027  0.00  0.00    +0.145 HD
ENDBRANCH  30  31
BRANCH  29  36
ATOM     36  C   UNL     1      -3.652   4.842   0.104  0.00  0.00    +0.141 C 
ATOM     37  C   UNL     1      -3.791   5.315   1.553  0.00  0.00    +0.029 C 
ENDBRANCH  29  36
ENDBRANCH  24  26
ENDBRANCH   3  22
TORSDOF 8
