REMARK  Name = ZINC39777148
REMARK  7 active torsions:
REMARK  status: ('A' for Active; 'I' for Inactive)
REMARK    1  A    between atoms: C_1  and  C_2
REMARK    2  A    between atoms: C_2  and  O_3
REMARK    3  A    between atoms: O_3  and  C_4
REMARK    4  A    between atoms: C_4  and  C_6
REMARK    5  A    between atoms: C_8  and  N_17
REMARK    6  A    between atoms: C_18  and  C_20
REMARK    7  A    between atoms: C_22  and  O_32
REMARK                            x       y       z     vdW  Elec       q    Type
REMARK                         _______ _______ _______ _____ _____    ______ ____
ROOT
ATOM      1  N   UNL     1      -5.060  -1.792   1.044  0.00  0.00    -0.301 N 
ATOM      2  C   UNL     1      -5.953  -2.269   1.933  0.00  0.00    +0.233 C 
ATOM      3  O   UNL     1      -5.569  -2.832   2.936  0.00  0.00    -0.274 OA
ATOM      4  H   UNL     1      -5.367  -1.341   0.242  0.00  0.00    +0.150 HD
ENDROOT
BRANCH   2   5
ATOM      5  C   UNL     1      -7.430  -2.102   1.681  0.00  0.00    +0.226 C 
ATOM      6  C   UNL     1      -8.172  -2.647   2.886  0.00  0.00    +0.124 C 
ATOM      7  C   UNL     1      -9.088  -3.675   2.655  0.00  0.00    +0.035 A 
ATOM      8  C   UNL     1      -9.821  -4.239   3.719  0.00  0.00    +0.013 A 
ATOM      9  C   UNL     1     -10.708  -5.240   3.467  0.00  0.00    +0.001 A 
ATOM     10  C   UNL     1     -10.908  -5.721   2.177  0.00  0.00    +0.002 A 
ATOM     11  C   UNL     1     -10.229  -5.216   1.109  0.00  0.00    +0.024 A 
ATOM     12  C   UNL     1      -9.297  -4.181   1.296  0.00  0.00    +0.044 A 
ATOM     13  N   UNL     1      -8.631  -3.685   0.245  0.00  0.00    -0.284 N 
ATOM     14  C   UNL     1      -7.744  -2.717   0.337  0.00  0.00    +0.237 C 
ATOM     15  O   UNL     1      -7.176  -2.317  -0.663  0.00  0.00    -0.274 OA
ATOM     16  H   UNL     1      -8.812  -4.061  -0.631  0.00  0.00    +0.155 HD
BRANCH   6  17
ATOM     17  O   UNL     1      -7.959  -2.164   4.115  0.00  0.00    -0.509 OA
ATOM     18  H   UNL     1      -8.490  -2.590   4.802  0.00  0.00    +0.292 HD
ENDBRANCH   6  17
ENDBRANCH   2   5
BRANCH   1  20
ATOM     19  C   UNL     1      -2.881  -2.427   0.017  0.00  0.00    +0.155 C 
ATOM     20  C   UNL     1      -3.624  -1.955   1.289  0.00  0.00    +0.153 C 
ATOM     21  S   UNL     1      -3.281  -3.407   2.369  0.00  0.00    -0.106 S 
ATOM     22  C   UNL     1      -2.940  -4.600   1.095  0.00  0.00    -0.013 C 
ATOM     23  C   UNL     1      -2.771  -3.930  -0.035  0.00  0.00    -0.044 C 
ATOM     24  C   UNL     1      -2.477  -4.661  -1.343  0.00  0.00    +0.032 C 
ATOM     25  C   UNL     1      -1.962  -6.065  -1.028  0.00  0.00    +0.005 C 
ATOM     26  C   UNL     1      -2.940  -6.767  -0.080  0.00  0.00    +0.005 C 
ATOM     27  C   UNL     1      -2.862  -6.089   1.285  0.00  0.00    +0.042 C 
BRANCH  19  28
ATOM     28  C   UNL     1      -1.496  -1.832   0.006  0.00  0.00    +0.317 C 
ATOM     29  O   UNL     1      -0.528  -2.555  -0.007  0.00  0.00    -0.250 OA
BRANCH  28  30
ATOM     30  O   UNL     1      -1.339  -0.499   0.012  0.00  0.00    -0.464 OA
BRANCH  30  32
ATOM     31  C   UNL     1      -0.019   1.526   0.010  0.00  0.00    +0.048 C 
ATOM     32  C   UNL     1       0.002  -0.004   0.002  0.00  0.00    +0.229 C 
ENDBRANCH  30  32
ENDBRANCH  28  30
ENDBRANCH  19  28
ENDBRANCH   1  20
TORSDOF 6
