REMARK  Name = ZINC10815081
REMARK  12 active torsions:
REMARK  status: ('A' for Active; 'I' for Inactive)
REMARK    1  A    between atoms: C_1  and  C_2
REMARK    2  A    between atoms: C_2  and  N_60
REMARK    3  A    between atoms: C_3  and  C_4
REMARK    4  A    between atoms: C_3  and  N_60
REMARK    5  A    between atoms: C_5  and  C_6
REMARK    6  A    between atoms: C_5  and  N_60
REMARK    7  A    between atoms: C_6  and  N_7
REMARK    8  A    between atoms: C_16  and  S_17
REMARK    9  A    between atoms: S_17  and  C_20
REMARK   10  A    between atoms: C_21  and  C_23
REMARK   11  A    between atoms: C_24  and  C_25
REMARK   12  A    between atoms: C_29  and  N_31
REMARK                            x       y       z     vdW  Elec       q    Type
REMARK                         _______ _______ _______ _____ _____    ______ ____
ROOT
ATOM      1  N   UNL     1      -2.443   8.094   0.071  0.00  0.00    -0.249 N 
ATOM      2  C   UNL     1      -2.453   9.477   0.099  0.00  0.00    +0.168 A 
ATOM      3  N   UNL     1      -1.437  10.308   0.106  0.00  0.00    -0.222 NA
ATOM      4  C   UNL     1      -1.595  11.649   0.131  0.00  0.00    +0.105 A 
ATOM      5  C   UNL     1      -2.932  12.107   0.161  0.00  0.00    +0.043 A 
ATOM      6  S   UNL     1      -3.853  10.587   0.144  0.00  0.00    -0.052 S 
ATOM      7  C   UNL     1      -3.258  13.439   0.195  0.00  0.00    +0.017 A 
ATOM      8  C   UNL     1      -2.252  14.388   0.199  0.00  0.00    +0.003 A 
ATOM      9  C   UNL     1      -0.928  13.975   0.170  0.00  0.00    +0.029 A 
ATOM     10  C   UNL     1      -0.593  12.646   0.137  0.00  0.00    +0.114 A 
ATOM     11  C   UNL     1      -1.272   7.428   0.039  0.00  0.00    +0.245 C 
ATOM     12  O   UNL     1      -0.222   8.044   0.035  0.00  0.00    -0.270 OA
ENDROOT
BRANCH  10  13
ATOM     13  S   UNL     1       1.105  12.176   0.101  0.00  0.00    -0.004 S 
ATOM     14  O   UNL     1       1.206  11.269  -0.988  0.00  0.00    -0.170 OA
ATOM     15  O   UNL     1       1.821  13.403   0.090  0.00  0.00    -0.170 OA
ATOM     16  C   UNL     1       1.381  11.305   1.668  0.00  0.00    +0.200 C 
ENDBRANCH  10  13
BRANCH  11  17
ATOM     17  C   UNL     1      -1.261   5.965   0.009  0.00  0.00    +0.068 C 
ATOM     18  C   UNL     1      -0.089   5.300  -0.023  0.00  0.00    +0.013 C 
BRANCH  18  19
ATOM     19  C   UNL     1      -0.079   3.828  -0.053  0.00  0.00    -0.023 A 
ATOM     20  C   UNL     1      -1.282   3.116  -0.048  0.00  0.00    +0.008 A 
ATOM     21  C   UNL     1      -1.265   1.738  -0.081  0.00  0.00    +0.003 A 
ATOM     22  C   UNL     1      -0.059   1.059  -0.108  0.00  0.00    +0.033 A 
ATOM     23  C   UNL     1       1.137   1.756  -0.113  0.00  0.00    +0.127 A 
ATOM     24  C   UNL     1       1.135   3.135  -0.086  0.00  0.00    +0.040 A 
BRANCH  23  25
ATOM     25  N   UNL     1       2.420   1.019  -0.148  0.00  0.00    +0.056 N 
ATOM     26  O   UNL     1       2.423  -0.198  -0.172  0.00  0.00    -0.126 OA
ATOM     27  O   UNL     1       3.473   1.631  -0.153  0.00  0.00    -0.126 OA
ENDBRANCH  23  25
ENDBRANCH  18  19
ENDBRANCH  11  17
BRANCH   1  28
ATOM     28  C   UNL     1      -3.707   7.352   0.075  0.00  0.00    +0.097 C 
BRANCH  28  29
ATOM     29  C   UNL     1      -4.124   7.064   1.519  0.00  0.00    -0.059 C 
BRANCH  29  30
ATOM     30  N   UNL     1      -5.466   6.445   1.510  0.00  0.00    +0.380 N 
ATOM     31  H   UNL     1      -6.055   6.936   0.826  0.00  0.00    -0.082 HD
BRANCH  30  33
ATOM     32  C   UNL     1      -6.773   4.468   0.902  0.00  0.00    -0.017 C 
ATOM     33  C   UNL     1      -5.364   5.023   1.121  0.00  0.00    -0.082 C 
ENDBRANCH  30  33
BRANCH  30  34
ATOM     34  C   UNL     1      -6.085   6.561   2.847  0.00  0.00    -0.082 C 
ATOM     35  C   UNL     1      -6.599   7.990   3.028  0.00  0.00    -0.017 C 
ENDBRANCH  30  34
ENDBRANCH  29  30
ENDBRANCH  28  29
ENDBRANCH   1  28
TORSDOF 9
