REMARK  Name = ZINC41586197
REMARK  10 active torsions:
REMARK  status: ('A' for Active; 'I' for Inactive)
REMARK    1  A    between atoms: C_1  and  C_2
REMARK    2  A    between atoms: C_2  and  O_3
REMARK    3  A    between atoms: O_3  and  C_4
REMARK    4  A    between atoms: C_4  and  C_6
REMARK    5  A    between atoms: N_9  and  C_12
REMARK    6  A    between atoms: C_12  and  C_13
REMARK    7  A    between atoms: C_14  and  O_33
REMARK    8  A    between atoms: C_16  and  C_32
REMARK    9  A    between atoms: C_21  and  C_22
REMARK   10  A    between atoms: C_23  and  C_24
REMARK                            x       y       z     vdW  Elec       q    Type
REMARK                         _______ _______ _______ _____ _____    ______ ____
ROOT
ATOM      1  C   UNL     1       1.703  -6.091  -6.098  0.00  0.00    +0.020 A 
ATOM      2  C   UNL     1       2.676  -6.890  -5.520  0.00  0.00    +0.122 A 
ATOM      3  C   UNL     1       2.517  -8.272  -5.466  0.00  0.00    +0.050 A 
ATOM      4  C   UNL     1       1.396  -8.855  -5.985  0.00  0.00    -0.033 A 
ATOM      5  C   UNL     1       0.408  -8.063  -6.570  0.00  0.00    +0.071 A 
ATOM      6  C   UNL     1       0.554  -6.667  -6.625  0.00  0.00    +0.145 A 
ATOM      7  O   UNL     1      -0.525  -6.121  -7.226  0.00  0.00    -0.451 OA
ATOM      8  C   UNL     1      -1.427  -7.061  -7.592  0.00  0.00    +0.176 C 
ATOM      9  C   UNL     1      -2.618  -6.834  -8.219  0.00  0.00    +0.050 C 
ATOM     10  C   UNL     1      -0.887  -8.370  -7.205  0.00  0.00    +0.232 C 
ATOM     11  O   UNL     1      -1.400  -9.465  -7.363  0.00  0.00    -0.283 OA
ATOM     12  C   UNL     1       1.227 -10.352  -5.927  0.00  0.00    +0.045 C 
ENDROOT
BRANCH   9  13
ATOM     13  C   UNL     1      -3.005  -5.519  -8.542  0.00  0.00    +0.004 C 
ATOM     14  C   UNL     1      -4.187  -5.294  -9.164  0.00  0.00    +0.008 C 
BRANCH  14  15
ATOM     15  C   UNL     1      -4.590  -3.922  -9.501  0.00  0.00    -0.025 A 
ATOM     16  C   UNL     1      -3.753  -2.845  -9.187  0.00  0.00    +0.008 A 
ATOM     17  C   UNL     1      -4.139  -1.561  -9.507  0.00  0.00    +0.001 A 
ATOM     18  C   UNL     1      -5.351  -1.335 -10.136  0.00  0.00    +0.000 A 
ATOM     19  C   UNL     1      -6.185  -2.394 -10.450  0.00  0.00    +0.001 A 
ATOM     20  C   UNL     1      -5.811  -3.685 -10.143  0.00  0.00    +0.008 A 
ENDBRANCH  14  15
ENDBRANCH   9  13
BRANCH   2  21
ATOM     21  O   UNL     1       3.794  -6.321  -5.002  0.00  0.00    -0.506 OA
ATOM     22  H   UNL     1       3.716  -6.079  -4.069  0.00  0.00    +0.292 HD
ENDBRANCH   2  21
BRANCH   1  23
ATOM     23  C   UNL     1       1.887  -4.596  -6.149  0.00  0.00    -0.036 C 
BRANCH  23  27
ATOM     24  C   UNL     1       1.468  -2.353  -2.550  0.00  0.00    +0.094 C 
ATOM     25  C   UNL     1       0.736  -1.893  -3.814  0.00  0.00    -0.004 C 
ATOM     26  C   UNL     1       1.396  -2.529  -5.039  0.00  0.00    -0.078 C 
ATOM     27  N   UNL     1       1.323  -3.992  -4.935  0.00  0.00    +0.383 N 
ATOM     28  C   UNL     1       2.084  -4.446  -3.764  0.00  0.00    -0.078 C 
ATOM     29  C   UNL     1       1.450  -3.884  -2.490  0.00  0.00    -0.004 C 
ATOM     30  H   UNL     1       0.359  -4.273  -4.838  0.00  0.00    -0.081 HD
BRANCH  24  31
ATOM     31  C   UNL     1       0.775  -1.794  -1.334  0.00  0.00    +0.310 C 
ATOM     32  O   UNL     1       0.314  -2.540  -0.504  0.00  0.00    -0.251 OA
BRANCH  31  33
ATOM     33  O   UNL     1       0.671  -0.465  -1.174  0.00  0.00    -0.465 OA
BRANCH  33  35
ATOM     34  C   UNL     1      -0.019   1.526   0.010  0.00  0.00    +0.048 C 
ATOM     35  C   UNL     1       0.002  -0.004   0.002  0.00  0.00    +0.229 C 
ENDBRANCH  33  35
ENDBRANCH  31  33
ENDBRANCH  24  31
ENDBRANCH  23  27
ENDBRANCH   1  23
TORSDOF 8
