REMARK  Name = ZINC12632159
REMARK  8 active torsions:
REMARK  status: ('A' for Active; 'I' for Inactive)
REMARK    1  A    between atoms: C_1  and  C_2
REMARK    2  A    between atoms: C_2  and  C_3
REMARK    3  A    between atoms: C_2  and  C_4
REMARK    4  A    between atoms: C_2  and  N_22
REMARK    5  A    between atoms: C_4  and  O_5
REMARK    6  A    between atoms: O_5  and  C_6
REMARK    7  A    between atoms: C_6  and  C_8
REMARK    8  A    between atoms: C_8  and  N_9
REMARK                            x       y       z     vdW  Elec       q    Type
REMARK                         _______ _______ _______ _____ _____    ______ ____
ROOT
ATOM      1  C   UNL     1      -0.048   1.521  -0.024  0.00  0.00    +0.035 C 
ATOM      2  C   UNL     1       0.007  -0.008   0.009  0.00  0.00    +0.064 C 
ATOM      3  C   UNL     1       0.763  -0.465   1.257  0.00  0.00    +0.035 C 
ENDROOT
BRANCH   2   4
ATOM      4  N   UNL     1       0.697  -0.498  -1.187  0.00  0.00    -0.290 N 
ATOM      5  C   UNL     1       1.972  -0.132  -1.427  0.00  0.00    +0.311 C 
ATOM      6  O   UNL     1       2.525   0.663  -0.692  0.00  0.00    -0.252 OA
ATOM      7  N   UNL     1       2.633  -0.647  -2.482  0.00  0.00    -0.222 N 
ATOM      8  C   UNL     1       3.997  -0.366  -2.634  0.00  0.00    +0.057 A 
ATOM      9  C   UNL     1       4.493   0.888  -2.312  0.00  0.00    +0.025 A 
ATOM     10  C   UNL     1       5.840   1.160  -2.467  0.00  0.00    +0.002 A 
ATOM     11  C   UNL     1       6.701   0.188  -2.942  0.00  0.00    +0.001 A 
ATOM     12  C   UNL     1       6.217  -1.068  -3.267  0.00  0.00    +0.017 A 
ATOM     13  C   UNL     1       4.871  -1.345  -3.114  0.00  0.00    +0.035 A 
ATOM     14  S   UNL     1       4.224  -2.937  -3.520  0.00  0.00    -0.086 S 
ATOM     15  C   UNL     1       2.558  -2.564  -3.970  0.00  0.00    +0.035 A 
ATOM     16  C   UNL     1       1.940  -1.455  -3.393  0.00  0.00    +0.057 A 
ATOM     17  C   UNL     1       0.630  -1.158  -3.736  0.00  0.00    +0.025 A 
ATOM     18  C   UNL     1      -0.047  -1.959  -4.638  0.00  0.00    +0.002 A 
ATOM     19  C   UNL     1       0.573  -3.058  -5.202  0.00  0.00    +0.001 A 
ATOM     20  C   UNL     1       1.875  -3.357  -4.874  0.00  0.00    +0.017 A 
ATOM     21  H   UNL     1       0.236  -1.086  -1.806  0.00  0.00    +0.151 HD
ENDBRANCH   2   4
BRANCH   2  22
ATOM     22  C   UNL     1      -1.417  -0.568   0.042  0.00  0.00    +0.257 C 
BRANCH  22  23
ATOM     23  O   UNL     1      -2.090  -0.090   1.208  0.00  0.00    -0.461 OA
BRANCH  23  24
ATOM     24  C   UNL     1      -3.358  -0.492   1.387  0.00  0.00    +0.325 C 
ATOM     25  O   UNL     1      -3.879  -1.226   0.581  0.00  0.00    -0.249 OA
BRANCH  24  26
ATOM     26  C   UNL     1      -4.132  -0.029   2.595  0.00  0.00    +0.236 C 
BRANCH  26  27
ATOM     27  N   UNL     1      -5.480  -0.602   2.561  0.00  0.00    -0.231 N 
ATOM     28  C   UNL     1      -6.518   0.005   1.960  0.00  0.00    +0.226 C 
ATOM     29  O   UNL     1      -6.461   0.994   1.261  0.00  0.00    -0.275 OA
ATOM     30  C   UNL     1      -7.784  -0.773   2.315  0.00  0.00    +0.087 C 
ATOM     31  C   UNL     1      -8.504  -0.018   3.414  0.00  0.00    +0.013 C 
ATOM     32  C   UNL     1      -9.377  -0.924   4.271  0.00  0.00    +0.001 C 
ATOM     33  C   UNL     1      -8.486  -1.999   4.904  0.00  0.00    +0.001 C 
ATOM     34  C   UNL     1      -7.946  -2.886   3.788  0.00  0.00    +0.013 C 
ATOM     35  C   UNL     1      -7.205  -2.124   2.715  0.00  0.00    +0.087 C 
ATOM     36  C   UNL     1      -5.788  -1.786   3.122  0.00  0.00    +0.226 C 
ATOM     37  O   UNL     1      -5.065  -2.456   3.827  0.00  0.00    -0.275 OA
ENDBRANCH  26  27
ENDBRANCH  24  26
ENDBRANCH  23  24
ENDBRANCH  22  23
ENDBRANCH   2  22
TORSDOF 6
