REMARK  Name = ZINC03366447
REMARK  10 active torsions:
REMARK  status: ('A' for Active; 'I' for Inactive)
REMARK    1  A    between atoms: C_1  and  C_2
REMARK    2  A    between atoms: N_4  and  C_5
REMARK    3  A    between atoms: C_8  and  C_11
REMARK    4  A    between atoms: N_15  and  C_27
REMARK    5  A    between atoms: C_17  and  C_18
REMARK    6  A    between atoms: C_17  and  C_20
REMARK    7  A    between atoms: C_20  and  C_22
REMARK    8  A    between atoms: C_22  and  C_23
REMARK    9  A    between atoms: C_22  and  C_24
REMARK   10  A    between atoms: C_22  and  C_25
REMARK                            x       y       z     vdW  Elec       q    Type
REMARK                         _______ _______ _______ _____ _____    ______ ____
ROOT
ATOM      1  C   UNL     1      -0.022   3.867  -0.466  0.00  0.00    +0.028 C 
ATOM      2  C   UNL     1      -0.890   4.876  -0.192  0.00  0.00    +0.079 A 
ATOM      3  C   UNL     1      -0.851   6.287  -0.619  0.00  0.00    +0.270 A 
ATOM      4  O   UNL     1       0.040   6.728  -1.322  0.00  0.00    -0.266 OA
ATOM      5  N   UNL     1      -1.850   7.043  -0.191  0.00  0.00    -0.269 N 
ATOM      6  C   UNL     1      -2.832   6.519   0.604  0.00  0.00    +0.109 A 
ATOM      7  C   UNL     1      -3.948   7.176   1.144  0.00  0.00    +0.125 C 
ATOM      8  S   UNL     1      -2.381   4.855   0.791  0.00  0.00    -0.064 S 
ENDROOT
BRANCH   5   9
ATOM      9  C   UNL     1      -1.899   8.396  -0.551  0.00  0.00    +0.051 A 
ATOM     10  C   UNL     1      -2.658   8.799  -1.642  0.00  0.00    +0.028 A 
ATOM     11  C   UNL     1      -2.709  10.134  -1.991  0.00  0.00    +0.022 A 
ATOM     12  C   UNL     1      -1.995  11.069  -1.263  0.00  0.00    +0.041 A 
ATOM     13  C   UNL     1      -1.233  10.669  -0.179  0.00  0.00    +0.022 A 
ATOM     14  C   UNL     1      -1.183   9.336   0.178  0.00  0.00    +0.028 A 
ATOM     15 CL   UNL     1      -2.057  12.745  -1.709  0.00  0.00    -0.084 Cl
ENDBRANCH   5   9
BRANCH   1  19
ATOM     16  C   UNL     1      -0.605   0.041   1.267  0.00  0.00    +0.033 A 
ATOM     17  C   UNL     1       0.683   0.483   0.978  0.00  0.00    +0.024 A 
ATOM     18  C   UNL     1       0.877   1.721   0.410  0.00  0.00    +0.010 A 
ATOM     19  C   UNL     1      -0.224   2.542   0.133  0.00  0.00    -0.024 A 
ATOM     20  C   UNL     1      -1.518   2.096   0.432  0.00  0.00    +0.010 A 
ATOM     21  C   UNL     1      -1.702   0.854   0.994  0.00  0.00    +0.024 A 
BRANCH  16  25
ATOM     22  C   UNL     1      -0.278  -3.629   2.012  0.00  0.00    +0.109 C 
ATOM     23  C   UNL     1       0.003  -2.244   1.489  0.00  0.00    +0.214 C 
ATOM     24  O   UNL     1       0.948  -2.054   0.753  0.00  0.00    -0.276 OA
ATOM     25  N   UNL     1      -0.797  -1.217   1.838  0.00  0.00    -0.286 N 
ATOM     26  H   UNL     1      -1.505  -1.353   2.487  0.00  0.00    +0.155 HD
ENDBRANCH  16  25
ENDBRANCH   1  19
BRANCH   7  27
ATOM     27  C   UNL     1      -4.093   8.591   0.982  0.00  0.00    +0.105 C 
ATOM     28  N   UNL     1      -4.207   9.714   0.854  0.00  0.00    -0.191 NA
ENDBRANCH   7  27
BRANCH   7  29
ATOM     29  C   UNL     1      -4.925   6.444   1.844  0.00  0.00    +0.181 C 
ATOM     30  O   UNL     1      -4.802   5.243   1.982  0.00  0.00    -0.291 OA
BRANCH  29  31
ATOM     31  C   UNL     1      -6.123   7.150   2.424  0.00  0.00    +0.026 C 
ATOM     32  C   UNL     1      -7.023   6.133   3.129  0.00  0.00    +0.019 C 
ATOM     33  C   UNL     1      -5.657   8.203   3.432  0.00  0.00    +0.019 C 
ATOM     34  C   UNL     1      -6.907   7.832   1.301  0.00  0.00    +0.019 C 
ENDBRANCH  29  31
ENDBRANCH   7  29
TORSDOF 6
