REMARK  Name = ZINC27586940
REMARK  5 active torsions:
REMARK  status: ('A' for Active; 'I' for Inactive)
REMARK    1  A    between atoms: C_1  and  C_2
REMARK    2  A    between atoms: C_9  and  N_11
REMARK    3  A    between atoms: N_12  and  N_13
REMARK    4  A    between atoms: N_15  and  N_16
REMARK    5  A    between atoms: C_17  and  C_19
REMARK                            x       y       z     vdW  Elec       q    Type
REMARK                         _______ _______ _______ _____ _____    ______ ____
ROOT
ATOM      1  N   UNL     1       1.087   3.442  -0.064  0.00  0.00    -0.227 N 
ATOM      2  C   UNL     1       2.284   4.135   0.013  0.00  0.00    +0.229 C 
ATOM      3  N   UNL     1       3.414   3.487  -0.011  0.00  0.00    -0.273 N 
ATOM      4  N   UNL     1       2.279   5.515   0.116  0.00  0.00    -0.266 NA
ATOM      5  H   UNL     1       1.091   2.354  -0.229  0.00  0.00    +0.194 HD
ATOM      6  H   UNL     1       3.230   6.065   0.177  0.00  0.00    +0.190 HD
ATOM      7  H   UNL     1       4.360   4.027   0.137  0.00  0.00    +0.188 HD
ENDROOT
BRANCH   3   8
ATOM      8  N   UNL     1       3.423   2.103  -0.227  0.00  0.00    -0.223 N 
ATOM      9  C   UNL     1       4.581   1.417  -0.149  0.00  0.00    +0.262 C 
ATOM     10  O   UNL     1       5.600   1.982   0.201  0.00  0.00    -0.269 OA
ATOM     11  H   UNL     1       2.486   1.576  -0.461  0.00  0.00    +0.175 HD
BRANCH   9  12
ATOM     12  C   UNL     1       4.612  -0.022  -0.487  0.00  0.00    +0.038 A 
ATOM     13  C   UNL     1       3.469  -0.649  -0.987  0.00  0.00    +0.013 A 
ATOM     14  C   UNL     1       3.506  -1.991  -1.305  0.00  0.00    +0.001 A 
ATOM     15  C   UNL     1       4.669  -2.717  -1.121  0.00  0.00    +0.000 A 
ATOM     16  C   UNL     1       5.803  -2.103  -0.621  0.00  0.00    +0.001 A 
ATOM     17  C   UNL     1       5.782  -0.760  -0.303  0.00  0.00    +0.013 A 
ENDBRANCH   9  12
ENDBRANCH   3   8
BRANCH   1  19
ATOM     18  N   UNL     1      -1.239   3.470   0.093  0.00  0.00    -0.104 NA
ATOM     19  N   UNL     1      -0.128   4.126   0.068  0.00  0.00    -0.063 NA
BRANCH  18  28
ATOM     20  C   UNL     1      -8.019   7.204   0.234  0.00  0.00    +0.044 C 
ATOM     21  C   UNL     1      -6.579   6.760   0.231  0.00  0.00    -0.049 A 
ATOM     22  C   UNL     1      -5.557   7.696   0.323  0.00  0.00    +0.005 A 
ATOM     23  C   UNL     1      -4.249   7.326   0.321  0.00  0.00    +0.029 A 
ATOM     24  C   UNL     1      -3.880   5.963   0.226  0.00  0.00    +0.081 A 
ATOM     25  C   UNL     1      -4.944   5.034   0.134  0.00  0.00    +0.041 A 
ATOM     26  C   UNL     1      -6.262   5.418   0.136  0.00  0.00    +0.020 A 
ATOM     27  S   UNL     1      -4.085   3.482   0.035  0.00  0.00    -0.046 S 
ATOM     28  C   UNL     1      -2.425   4.139   0.119  0.00  0.00    +0.216 A 
ATOM     29  N   UNL     1      -2.640   5.435   0.218  0.00  0.00    -0.220 NA
ENDBRANCH  18  28
ENDBRANCH   1  19
TORSDOF 4
