REMARK  Name = ZINC62740036
REMARK  9 active torsions:
REMARK  status: ('A' for Active; 'I' for Inactive)
REMARK    1  A    between atoms: C_1  and  C_2
REMARK    2  A    between atoms: C_2  and  O_3
REMARK    3  A    between atoms: O_3  and  C_4
REMARK    4  A    between atoms: C_4  and  C_6
REMARK    5  A    between atoms: C_4  and  C_8
REMARK    6  A    between atoms: C_6  and  N_7
REMARK    7  A    between atoms: C_8  and  N_9
REMARK    8  A    between atoms: C_13  and  C_21
REMARK    9  A    between atoms: C_18  and  C_20
REMARK                            x       y       z     vdW  Elec       q    Type
REMARK                         _______ _______ _______ _____ _____    ______ ____
ROOT
ATOM      1  N   UNL     1      -2.127  -2.448  -2.456  0.00  0.00    -0.222 N 
ATOM      2  C   UNL     1      -2.511  -1.333  -3.112  0.00  0.00    +0.247 C 
ATOM      3  O   UNL     1      -3.139  -0.398  -2.665  0.00  0.00    -0.273 OA
ATOM      4  C   UNL     1      -1.991  -1.496  -4.522  0.00  0.00    +0.118 C 
ATOM      5  C   UNL     1      -3.146  -1.509  -5.517  0.00  0.00    +0.019 C 
ATOM      6  C   UNL     1      -2.600  -1.704  -6.934  0.00  0.00    +0.006 C 
ATOM      7  C   UNL     1      -1.631  -0.568  -7.267  0.00  0.00    +0.001 C 
ATOM      8  C   UNL     1      -0.466  -0.583  -6.275  0.00  0.00    +0.006 C 
ATOM      9  C   UNL     1      -1.003  -0.383  -4.856  0.00  0.00    +0.019 C 
ATOM     10  C   UNL     1       0.159  -0.418  -3.861  0.00  0.00    +0.010 C 
ATOM     11  C   UNL     1      -4.099  -2.655  -5.175  0.00  0.00    +0.010 C 
ATOM     12  N   UNL     1      -1.312  -2.798  -4.504  0.00  0.00    -0.284 N 
ATOM     13  C   UNL     1      -1.440  -3.277  -3.252  0.00  0.00    +0.309 C 
ATOM     14  O   UNL     1      -0.986  -4.343  -2.886  0.00  0.00    -0.252 OA
ATOM     15  H   UNL     1      -0.858  -3.227  -5.247  0.00  0.00    +0.151 HD
ENDROOT
BRANCH   1  16
ATOM     16  C   UNL     1      -2.421  -2.716  -1.046  0.00  0.00    +0.147 C 
BRANCH  16  17
ATOM     17  C   UNL     1      -1.294  -2.156  -0.175  0.00  0.00    +0.119 C 
BRANCH  17  18
ATOM     18  O   UNL     1      -1.265  -0.732  -0.292  0.00  0.00    -0.377 OA
BRANCH  18  20
ATOM     19  C   UNL     1      -0.037   1.344  -0.435  0.00  0.00    +0.034 C 
ATOM     20  C   UNL     1       0.050  -0.173  -0.261  0.00  0.00    +0.157 C 
ENDBRANCH  18  20
ENDBRANCH  17  18
BRANCH  17  21
ATOM     21  C   UNL     1      -1.538  -2.543   1.285  0.00  0.00    -0.053 C 
BRANCH  21  22
ATOM     22  N   UNL     1      -0.402  -2.101   2.105  0.00  0.00    +0.380 N 
ATOM     23  H   UNL     1      -0.512  -2.445   3.046  0.00  0.00    -0.090 HD
ATOM     24  H   UNL     1       0.456  -2.461   1.713  0.00  0.00    -0.090 HD
ATOM     25  H   UNL     1      -0.369  -1.093   2.117  0.00  0.00    -0.090 HD
ENDBRANCH  21  22
ENDBRANCH  17  21
ENDBRANCH  16  17
ENDBRANCH   1  16
TORSDOF 6
