REMARK  Name = ZINC12561320
REMARK  9 active torsions:
REMARK  status: ('A' for Active; 'I' for Inactive)
REMARK    1  A    between atoms: C_1  and  C_2
REMARK    2  A    between atoms: C_5  and  N_9
REMARK    3  A    between atoms: C_6  and  C_8
REMARK    4  A    between atoms: N_9  and  S_10
REMARK    5  A    between atoms: S_10  and  C_13
REMARK    6  A    between atoms: C_16  and  N_22
REMARK    7  A    between atoms: C_17  and  N_19
REMARK    8  A    between atoms: N_22  and  N_23
REMARK    9  A    between atoms: C_24  and  C_25
REMARK                            x       y       z     vdW  Elec       q    Type
REMARK                         _______ _______ _______ _____ _____    ______ ____
ROOT
ATOM      1  C   UNL     1       1.417   2.982   1.224  0.00  0.00    +0.111 A 
ATOM      2  C   UNL     1       0.938   4.282   1.263  0.00  0.00    +0.031 A 
ATOM      3  C   UNL     1       1.081   5.038   2.407  0.00  0.00    +0.029 A 
ATOM      4  C   UNL     1       1.720   4.494   3.525  0.00  0.00    +0.079 A 
ATOM      5  C   UNL     1       2.205   3.184   3.476  0.00  0.00    +0.150 A 
ATOM      6  C   UNL     1       2.051   2.437   2.328  0.00  0.00    +0.063 A 
ENDROOT
BRANCH   1   7
ATOM      7  S   UNL     1       1.224   2.021  -0.241  0.00  0.00    +0.072 S 
ATOM      8  O   UNL     1       2.243   1.031  -0.213  0.00  0.00    -0.150 OA
ATOM      9  O   UNL     1       1.085   2.941  -1.315  0.00  0.00    -0.150 OA
BRANCH   7  10
ATOM     10  N   UNL     1      -0.219   1.219  -0.114  0.00  0.00    -0.216 N 
ATOM     11  H   UNL     1      -0.237   0.249  -0.127  0.00  0.00    +0.174 HD
BRANCH  10  16
ATOM     12  C   UNL     1      -5.055   4.140   0.371  0.00  0.00    +0.044 C 
ATOM     13  C   UNL     1      -3.770   3.364   0.243  0.00  0.00    -0.050 A 
ATOM     14  C   UNL     1      -2.745   3.852  -0.548  0.00  0.00    +0.005 A 
ATOM     15  C   UNL     1      -1.566   3.143  -0.668  0.00  0.00    +0.025 A 
ATOM     16  C   UNL     1      -1.410   1.939   0.006  0.00  0.00    +0.051 A 
ATOM     17  C   UNL     1      -2.442   1.449   0.795  0.00  0.00    -0.028 A 
ATOM     18  C   UNL     1      -3.617   2.165   0.915  0.00  0.00    +0.008 A 
ATOM     19  C   UNL     1      -2.280   0.140   1.524  0.00  0.00    +0.046 C 
ENDBRANCH  10  16
ENDBRANCH   7  10
ENDBRANCH   1   7
BRANCH   5  20
ATOM     20  N   UNL     1       2.883   2.600   4.655  0.00  0.00    +0.058 N 
ATOM     21  O   UNL     1       3.442   1.411   4.571  0.00  0.00    -0.126 OA
ATOM     22  O   UNL     1       2.926   3.270   5.789  0.00  0.00    -0.126 OA
ENDBRANCH   5  20
BRANCH   4  23
ATOM     23  N   UNL     1       1.871   5.246   4.669  0.00  0.00    -0.236 N 
ATOM     24  H   UNL     1       2.242   4.842   5.470  0.00  0.00    +0.174 HD
BRANCH  23  25
ATOM     25  N   UNL     1       1.521   6.487   4.676  0.00  0.00    -0.190 NA
ATOM     26  C   UNL     1       1.668   7.219   5.790  0.00  0.00    +0.140 C 
BRANCH  26  27
ATOM     27  C   UNL     1       1.291   8.553   5.798  0.00  0.00    +0.020 A 
ATOM     28  C   UNL     1       1.373   9.501   6.920  0.00  0.00    +0.093 A 
ATOM     29  N   UNL     1       0.915  10.675   6.507  0.00  0.00    -0.360 N 
ATOM     30  H   UNL     1       0.866  11.468   7.064  0.00  0.00    +0.165 HD
ATOM     31  C   UNL     1       0.505  10.627   5.180  0.00  0.00    +0.047 A 
ATOM     32  C   UNL     1       0.714   9.331   4.683  0.00  0.00    +0.008 A 
ATOM     33  C   UNL     1       0.382   9.019   3.367  0.00  0.00    +0.010 A 
ATOM     34  C   UNL     1      -0.157   9.994   2.547  0.00  0.00    +0.001 A 
ATOM     35  C   UNL     1      -0.365  11.272   3.035  0.00  0.00    +0.002 A 
ATOM     36  C   UNL     1      -0.038  11.591   4.342  0.00  0.00    +0.026 A 
ENDBRANCH  26  27
ENDBRANCH  23  25
ENDBRANCH   4  23
TORSDOF 7
