REMARK  Name = ZINC48600647
REMARK  2 active torsions:
REMARK  status: ('A' for Active; 'I' for Inactive)
REMARK    1  A    between atoms: C_1  and  C_2
REMARK    2  A    between atoms: C_6  and  C_7
REMARK                            x       y       z     vdW  Elec       q    Type
REMARK                         _______ _______ _______ _____ _____    ______ ____
ROOT
ATOM      1  C   UNL     1      -0.659   1.329  -0.021  0.00  0.00    +0.048 C 
ATOM      2  C   UNL     1      -0.135  -0.084  -0.004  0.00  0.00    +0.011 A 
ATOM      3  C   UNL     1       0.148  -0.891  -1.116  0.00  0.00    +0.062 A 
ATOM      4  C   UNL     1       0.607  -2.111  -0.631  0.00  0.00    +0.117 A 
ATOM      5  O   UNL     1       0.606  -2.047   0.693  0.00  0.00    -0.454 OA
ATOM      6  C   UNL     1       0.166  -0.833   1.097  0.00  0.00    +0.193 A 
ATOM      7  C   UNL     1       1.008  -3.250  -1.533  0.00  0.00    +0.075 C 
ATOM      8  C   UNL     1       0.371  -3.052  -2.912  0.00  0.00    +0.016 C 
ATOM      9  C   UNL     1       0.690  -1.658  -3.461  0.00  0.00    +0.080 C 
ATOM     10  C   UNL     1       0.031  -0.625  -2.558  0.00  0.00    +0.167 C 
ATOM     11  O   UNL     1      -0.548   0.347  -2.996  0.00  0.00    -0.292 OA
ENDROOT
BRANCH   6  12
ATOM     12  C   UNL     1       0.031  -0.394   2.491  0.00  0.00    +0.282 C 
ATOM     13  O   UNL     1      -0.010   0.793   2.754  0.00  0.00    -0.267 OA
ATOM     14  N   UNL     1      -0.049  -1.306   3.480  0.00  0.00    -0.293 N 
ATOM     15  C   UNL     1      -0.024  -2.732   3.152  0.00  0.00    +0.119 C 
ATOM     16  C   UNL     1       1.253  -3.365   3.716  0.00  0.00    +0.088 C 
ATOM     17  S   UNL     1       1.304  -3.070   5.509  0.00  0.00    -0.158 S 
ATOM     18  C   UNL     1       1.103  -1.268   5.638  0.00  0.00    +0.088 C 
ATOM     19  C   UNL     1      -0.152  -0.859   4.870  0.00  0.00    +0.119 C 
ENDBRANCH   6  12
TORSDOF 1
