REMARK  Name = ZINC09985929
REMARK  10 active torsions:
REMARK  status: ('A' for Active; 'I' for Inactive)
REMARK    1  A    between atoms: C_1  and  C_2
REMARK    2  A    between atoms: C_10  and  C_13
REMARK    3  A    between atoms: C_18  and  C_23
REMARK    4  A    between atoms: C_29  and  C_38
REMARK    5  A    between atoms: C_30  and  C_31
REMARK    6  A    between atoms: C_31  and  O_33
REMARK    7  A    between atoms: O_33  and  C_34
REMARK    8  A    between atoms: C_34  and  C_35
REMARK    9  A    between atoms: C_35  and  C_36
REMARK   10  A    between atoms: C_35  and  C_37
REMARK                            x       y       z     vdW  Elec       q    Type
REMARK                         _______ _______ _______ _____ _____    ______ ____
ROOT
ATOM      1  C   UNL     1      -5.104   7.508   0.000  0.00  0.00    +0.099 C 
ATOM      2  C   UNL     1      -3.991   6.494   0.092  0.00  0.00    +0.024 C 
ATOM      3  C   UNL     1      -3.432   5.981  -1.025  0.00  0.00    +0.016 C 
ATOM      4  C   UNL     1      -2.305   4.982  -0.944  0.00  0.00    +0.060 C 
ATOM      5  C   UNL     1      -2.449   4.148   0.331  0.00  0.00    +0.039 C 
ATOM      6  C   UNL     1      -2.449   5.093   1.538  0.00  0.00    +0.088 C 
ATOM      7  C   UNL     1      -3.550   6.104   1.368  0.00  0.00    +0.162 C 
ATOM      8  O   UNL     1      -4.067   6.592   2.353  0.00  0.00    -0.292 OA
ATOM      9  N   UNL     1      -3.880   6.359  -2.263  0.00  0.00    -0.321 N 
ATOM     10  C   UNL     1      -5.112   6.933  -2.413  0.00  0.00    +0.016 C 
ATOM     11  C   UNL     1      -5.736   7.491  -1.361  0.00  0.00    +0.065 C 
ATOM     12  C   UNL     1      -5.774   6.941  -3.766  0.00  0.00    +0.061 C 
ATOM     13  H   UNL     1      -3.248   6.200  -3.148  0.00  0.00    +0.152 HD
ENDROOT
BRANCH   1  23
ATOM     14  C   UNL     1      -4.721  13.960   3.875  0.00  0.00    +0.044 C 
ATOM     15  C   UNL     1      -4.277  13.056   2.754  0.00  0.00    -0.050 A 
ATOM     16  C   UNL     1      -3.285  13.476   1.880  0.00  0.00    +0.007 A 
ATOM     17  C   UNL     1      -2.866  12.664   0.848  0.00  0.00    +0.047 A 
ATOM     18  C   UNL     1      -3.440  11.410   0.676  0.00  0.00    +0.138 A 
ATOM     19  C   UNL     1      -4.444  10.987   1.561  0.00  0.00    +0.064 A 
ATOM     20  C   UNL     1      -4.859  11.817   2.601  0.00  0.00    +0.018 A 
ATOM     21  C   UNL     1      -5.038   9.651   1.358  0.00  0.00    +0.197 A 
ATOM     22  O   UNL     1      -5.913   9.226   2.092  0.00  0.00    -0.287 OA
ATOM     23  C   UNL     1      -4.546   8.881   0.270  0.00  0.00    +0.047 A 
ATOM     24  C   UNL     1      -3.575   9.384  -0.514  0.00  0.00    +0.204 A 
ATOM     25  O   UNL     1      -3.046  10.598  -0.326  0.00  0.00    -0.462 OA
ENDBRANCH   1  23
BRANCH   5  26
ATOM     26  C   UNL     1      -1.293   3.187   0.441  0.00  0.00    -0.006 A 
ATOM     27  C   UNL     1      -1.311   1.833   0.494  0.00  0.00    +0.011 A 
ATOM     28  C   UNL     1      -0.114   1.150   0.601  0.00  0.00    +0.008 A 
ATOM     29  C   UNL     1       1.044   1.855   0.637  0.00  0.00    +0.045 A 
ATOM     30  S   UNL     1       0.456   3.537   0.528  0.00  0.00    -0.101 S 
ENDBRANCH   5  26
BRANCH  11  31
ATOM     31  C   UNL     1      -7.012   8.074  -1.540  0.00  0.00    +0.338 C 
ATOM     32  O   UNL     1      -7.489   8.162  -2.656  0.00  0.00    -0.245 OA
BRANCH  31  33
ATOM     33  O   UNL     1      -7.701   8.531  -0.474  0.00  0.00    -0.461 OA
BRANCH  33  34
ATOM     34  C   UNL     1      -8.983   9.108  -0.729  0.00  0.00    +0.235 C 
BRANCH  34  35
ATOM     35  C   UNL     1      -9.608   9.566   0.591  0.00  0.00    +0.020 C 
ATOM     36  C   UNL     1     -10.923  10.294   0.307  0.00  0.00    +0.010 C 
ATOM     37  C   UNL     1      -9.880   8.348   1.477  0.00  0.00    +0.010 C 
ENDBRANCH  34  35
ENDBRANCH  33  34
ENDBRANCH  31  33
ENDBRANCH  11  31
TORSDOF 6
