REMARK  Name = ZINC09820113
REMARK  9 active torsions:
REMARK  status: ('A' for Active; 'I' for Inactive)
REMARK    1  A    between atoms: C_1  and  O_2
REMARK    2  A    between atoms: O_2  and  C_3
REMARK    3  A    between atoms: C_5  and  C_13
REMARK    4  A    between atoms: C_7  and  O_11
REMARK    5  A    between atoms: C_8  and  O_9
REMARK    6  A    between atoms: O_9  and  C_10
REMARK    7  A    between atoms: O_11  and  C_12
REMARK    8  A    between atoms: C_14  and  C_15
REMARK    9  A    between atoms: C_25  and  C_27
REMARK                            x       y       z     vdW  Elec       q    Type
REMARK                         _______ _______ _______ _____ _____    ______ ____
ROOT
ATOM      1  C   UNL     1      -2.776  -0.101  -0.898  0.00  0.00    +0.244 C 
ATOM      2  O   UNL     1      -3.858  -0.498  -1.290  0.00  0.00    -0.270 OA
ATOM      3  N   UNL     1      -2.494   1.217  -0.921  0.00  0.00    -0.255 N 
ATOM      4  C   UNL     1      -3.330   2.206  -1.445  0.00  0.00    +0.041 A 
ATOM      5  C   UNL     1      -4.583   2.077  -2.049  0.00  0.00    +0.024 A 
ATOM      6  C   UNL     1      -5.250   3.192  -2.511  0.00  0.00    +0.002 A 
ATOM      7  C   UNL     1      -4.680   4.446  -2.386  0.00  0.00    +0.000 A 
ATOM      8  C   UNL     1      -3.438   4.580  -1.795  0.00  0.00    +0.005 A 
ATOM      9  C   UNL     1      -2.766   3.466  -1.330  0.00  0.00    -0.024 A 
ATOM     10  C   UNL     1      -1.420   3.330  -0.655  0.00  0.00    +0.069 C 
ATOM     11  C   UNL     1      -1.268   1.822  -0.396  0.00  0.00    +0.171 C 
ENDROOT
BRANCH  11  12
ATOM     12  C   UNL     1      -0.065   1.285  -1.127  0.00  0.00    +0.232 C 
ATOM     13  O   UNL     1      -0.206   0.701  -2.180  0.00  0.00    -0.274 OA
ATOM     14  N   UNL     1       1.169   1.453  -0.610  0.00  0.00    -0.328 N 
ATOM     15  H   UNL     1       1.282   1.921   0.233  0.00  0.00    +0.145 HD
ATOM     16  H   UNL     1       1.943   1.107  -1.081  0.00  0.00    +0.145 HD
ENDBRANCH  11  12
BRANCH   1  18
ATOM     17  C   UNL     1      -2.114  -2.352  -0.245  0.00  0.00    +0.013 C 
ATOM     18  C   UNL     1      -1.783  -1.053  -0.403  0.00  0.00    +0.068 C 
BRANCH  17  21
ATOM     19  C   UNL     1      -5.204  -4.258  -1.193  0.00  0.00    +0.166 A 
ATOM     20  C   UNL     1      -3.881  -3.869  -1.116  0.00  0.00    +0.057 A 
ATOM     21  C   UNL     1      -3.521  -2.768  -0.330  0.00  0.00    -0.018 A 
ATOM     22  C   UNL     1      -4.504  -2.068   0.379  0.00  0.00    +0.057 A 
ATOM     23  C   UNL     1      -5.826  -2.460   0.293  0.00  0.00    +0.166 A 
ATOM     24  C   UNL     1      -6.180  -3.556  -0.490  0.00  0.00    +0.204 A 
BRANCH  19  26
ATOM     25  C   UNL     1      -4.503  -6.002  -2.650  0.00  0.00    +0.277 C 
ATOM     26  O   UNL     1      -5.555  -5.328  -1.956  0.00  0.00    -0.491 OA
ENDBRANCH  19  26
BRANCH  24  27
ATOM     27  O   UNL     1      -7.481  -3.941  -0.568  0.00  0.00    -0.488 OA
ATOM     28  C   UNL     1      -7.935  -4.894   0.395  0.00  0.00    +0.277 C 
ENDBRANCH  24  27
BRANCH  23  29
ATOM     29  O   UNL     1      -6.782  -1.777   0.978  0.00  0.00    -0.491 OA
ATOM     30  C   UNL     1      -6.365  -0.603   1.678  0.00  0.00    +0.277 C 
ENDBRANCH  23  29
ENDBRANCH  17  21
ENDBRANCH   1  18
TORSDOF 6
