REMARK  Name = ZINC09425068
REMARK  15 active torsions:
REMARK  status: ('A' for Active; 'I' for Inactive)
REMARK    1  A    between atoms: C_1  and  C_2
REMARK    2  A    between atoms: C_2  and  N_71
REMARK    3  A    between atoms: C_3  and  C_4
REMARK    4  A    between atoms: C_3  and  N_71
REMARK    5  A    between atoms: C_5  and  C_6
REMARK    6  A    between atoms: C_5  and  N_71
REMARK    7  A    between atoms: C_6  and  N_7
REMARK    8  A    between atoms: C_8  and  C_28
REMARK    9  A    between atoms: C_10  and  C_15
REMARK   10  A    between atoms: C_11  and  O_14
REMARK   11  A    between atoms: C_15  and  C_17
REMARK   12  A    between atoms: C_24  and  C_27
REMARK   13  A    between atoms: C_31  and  C_34
REMARK   14  A    between atoms: C_34  and  C_35
REMARK   15  A    between atoms: C_34  and  C_36
REMARK                            x       y       z     vdW  Elec       q    Type
REMARK                         _______ _______ _______ _____ _____    ______ ____
ROOT
ATOM      1  N   UNL     1      -0.595  -2.207   0.556  0.00  0.00    -0.285 N 
ATOM      2  C   UNL     1      -0.975  -0.789   0.572  0.00  0.00    +0.144 C 
ATOM      3  C   UNL     1       0.304  -0.008   0.386  0.00  0.00    +0.071 C 
ATOM      4  C   UNL     1       1.302  -0.914   0.271  0.00  0.00    +0.188 C 
ATOM      5  C   UNL     1       0.738  -2.275   0.383  0.00  0.00    +0.282 C 
ATOM      6  O   UNL     1       1.381  -3.304   0.324  0.00  0.00    -0.267 OA
ENDROOT
BRANCH   2   7
ATOM      7  C   UNL     1      -1.931  -0.495  -0.555  0.00  0.00    -0.022 A 
ATOM      8  C   UNL     1      -1.647  -0.936  -1.835  0.00  0.00    +0.006 A 
ATOM      9  C   UNL     1      -2.526  -0.670  -2.868  0.00  0.00    +0.004 A 
ATOM     10  C   UNL     1      -3.684   0.045  -2.624  0.00  0.00    -0.045 A 
ATOM     11  C   UNL     1      -3.965   0.491  -1.346  0.00  0.00    +0.004 A 
ATOM     12  C   UNL     1      -3.088   0.221  -0.312  0.00  0.00    +0.006 A 
BRANCH  10  13
ATOM     13  C   UNL     1      -4.639   0.340  -3.752  0.00  0.00    +0.013 C 
ATOM     14  C   UNL     1      -3.920   1.155  -4.829  0.00  0.00    +0.012 C 
ATOM     15  C   UNL     1      -5.138  -0.975  -4.355  0.00  0.00    +0.012 C 
ENDBRANCH  10  13
ENDBRANCH   2   7
BRANCH   4  16
ATOM     16  O   UNL     1       2.610  -0.621   0.085  0.00  0.00    -0.502 OA
ATOM     17  H   UNL     1       3.138  -1.469   0.033  0.00  0.00    +0.292 HD
ENDBRANCH   4  16
BRANCH   3  18
ATOM     18  C   UNL     1       0.438   1.452   0.333  0.00  0.00    +0.195 C 
ATOM     19  O   UNL     1       0.854   1.989  -0.677  0.00  0.00    -0.287 OA
BRANCH  18  20
ATOM     20  C   UNL     1       0.064   2.270   1.503  0.00  0.00    +0.023 A 
ATOM     21  C   UNL     1      -0.398   1.658   2.673  0.00  0.00    +0.015 A 
ATOM     22  C   UNL     1      -0.749   2.421   3.760  0.00  0.00    +0.046 A 
ATOM     23  C   UNL     1      -0.650   3.813   3.709  0.00  0.00    +0.124 A 
ATOM     24  C   UNL     1      -0.183   4.416   2.545  0.00  0.00    -0.002 A 
ATOM     25  C   UNL     1       0.172   3.664   1.453  0.00  0.00    +0.019 A 
ATOM     26  C   UNL     1      -0.163   5.912   2.797  0.00  0.00    +0.083 C 
ATOM     27  C   UNL     1      -0.295   5.977   4.337  0.00  0.00    +0.175 C 
ATOM     28  O   UNL     1      -0.958   4.742   4.654  0.00  0.00    -0.488 OA
ATOM     29  C   UNL     1      -1.151   7.174   4.758  0.00  0.00    +0.052 C 
ENDBRANCH  18  20
ENDBRANCH   3  18
BRANCH   1  30
ATOM     30  C   UNL     1      -1.505  -3.345   0.703  0.00  0.00    +0.090 C 
BRANCH  30  31
ATOM     31  C   UNL     1      -2.010  -3.776  -0.675  0.00  0.00    -0.060 C 
BRANCH  31  32
ATOM     32  N   UNL     1      -2.942  -4.910  -0.508  0.00  0.00    +0.380 N 
ATOM     33  H   UNL     1      -3.655  -4.657   0.186  0.00  0.00    -0.082 HD
BRANCH  32  35
ATOM     34  C   UNL     1      -4.710  -4.172  -2.027  0.00  0.00    -0.017 C 
ATOM     35  C   UNL     1      -3.610  -5.209  -1.793  0.00  0.00    -0.082 C 
ENDBRANCH  32  35
BRANCH  32  36
ATOM     36  C   UNL     1      -2.209  -6.101  -0.031  0.00  0.00    -0.082 C 
ATOM     37  C   UNL     1      -3.221  -7.177   0.368  0.00  0.00    -0.017 C 
ENDBRANCH  32  36
ENDBRANCH  31  32
ENDBRANCH  30  31
ENDBRANCH   1  30
TORSDOF 10
