REMARK  Name = ZINC02794401
REMARK  12 active torsions:
REMARK  status: ('A' for Active; 'I' for Inactive)
REMARK    1  A    between atoms: C_1  and  C_2
REMARK    2  A    between atoms: C_2  and  C_3
REMARK    3  A    between atoms: C_2  and  C_4
REMARK    4  A    between atoms: C_4  and  N_5
REMARK    5  A    between atoms: N_5  and  C_6
REMARK    6  A    between atoms: C_6  and  N_8
REMARK    7  A    between atoms: N_8  and  N_9
REMARK    8  A    between atoms: C_10  and  C_12
REMARK    9  A    between atoms: C_18  and  C_27
REMARK   10  A    between atoms: C_21  and  C_23
REMARK   11  A    between atoms: C_30  and  O_33
REMARK   12  A    between atoms: O_33  and  C_34
REMARK                            x       y       z     vdW  Elec       q    Type
REMARK                         _______ _______ _______ _____ _____    ______ ____
ROOT
ATOM      1  C   UNL     1       0.851  -0.707   0.092  0.00  0.00    +0.097 A 
ATOM      2  C   UNL     1       2.065   0.022   0.090  0.00  0.00    +0.149 A 
ATOM      3  N   UNL     1       3.052  -0.830   0.051  0.00  0.00    -0.177 NA
ATOM      4  N   UNL     1       2.537  -2.126   0.018  0.00  0.00    -0.238 N 
ATOM      5  C   UNL     1       1.188  -2.053   0.042  0.00  0.00    +0.130 A 
ATOM      6  N   UNL     1       0.333  -3.135   0.021  0.00  0.00    -0.322 N 
ATOM      7  C   UNL     1       1.042  -4.367   0.396  0.00  0.00    +0.104 C 
ATOM      8  C   UNL     1       2.319  -4.499  -0.440  0.00  0.00    +0.063 C 
ATOM      9  C   UNL     1       3.293  -3.384  -0.036  0.00  0.00    +0.215 C 
ATOM     10  H   UNL     1      -0.738  -3.170  -0.228  0.00  0.00    +0.148 HD
ENDROOT
BRANCH   7  11
ATOM     11  C   UNL     1       1.403  -4.314   1.858  0.00  0.00    -0.027 A 
ATOM     12  C   UNL     1       1.846  -5.454   2.502  0.00  0.00    +0.009 A 
ATOM     13  C   UNL     1       2.183  -5.407   3.841  0.00  0.00    +0.046 A 
ATOM     14  C   UNL     1       2.065  -4.215   4.542  0.00  0.00    +0.120 A 
ATOM     15  C   UNL     1       1.614  -3.074   3.895  0.00  0.00    +0.046 A 
ATOM     16  C   UNL     1       1.284  -3.126   2.555  0.00  0.00    +0.009 A 
BRANCH  14  17
ATOM     17  O   UNL     1       2.391  -4.167   5.861  0.00  0.00    -0.495 OA
ATOM     18  C   UNL     1       2.847  -5.381   6.461  0.00  0.00    +0.277 C 
ENDBRANCH  14  17
ENDBRANCH   7  11
BRANCH   1  20
ATOM     19  N   UNL     1      -0.682   1.188   0.179  0.00  0.00    -0.231 N 
ATOM     20  C   UNL     1      -0.505  -0.147   0.133  0.00  0.00    +0.265 C 
ATOM     21  O   UNL     1      -1.470  -0.888   0.124  0.00  0.00    -0.268 OA
ATOM     22  H   UNL     1       0.191   1.858   0.192  0.00  0.00    +0.173 HD
BRANCH  19  23
ATOM     23  N   UNL     1      -1.976   1.723   0.212  0.00  0.00    -0.246 N 
ATOM     24  H   UNL     1      -2.849   1.053   0.199  0.00  0.00    +0.172 HD
BRANCH  23  25
ATOM     25  C   UNL     1      -2.152   3.059   0.259  0.00  0.00    +0.147 C 
ATOM     26  S   UNL     1      -3.734   3.712   0.299  0.00  0.00    -0.017 S 
BRANCH  25  27
ATOM     27  N   UNL     1      -1.083   3.879   0.274  0.00  0.00    -0.325 N 
ATOM     28  H   UNL     1      -0.067   3.459   0.249  0.00  0.00    +0.148 HD
BRANCH  27  29
ATOM     29  C   UNL     1      -1.275   5.331   0.325  0.00  0.00    +0.106 C 
BRANCH  29  31
ATOM     30  C   UNL     1       0.804   5.758  -0.992  0.00  0.00    +0.009 C 
ATOM     31  C   UNL     1       0.088   6.025   0.333  0.00  0.00    -0.000 C 
ATOM     32  C   UNL     1      -0.108   7.532   0.512  0.00  0.00    +0.009 C 
ENDBRANCH  29  31
ENDBRANCH  27  29
ENDBRANCH  25  27
ENDBRANCH  23  25
ENDBRANCH  19  23
ENDBRANCH   1  20
BRANCH   9  33
ATOM     33  C   UNL     1       4.412  -3.272  -1.074  0.00  0.00    +0.412 C 
ATOM     34  F   UNL     1       3.861  -2.973  -2.324  0.00  0.00    -0.168 F 
ATOM     35  F   UNL     1       5.296  -2.254  -0.699  0.00  0.00    -0.168 F 
ATOM     36  F   UNL     1       5.104  -4.486  -1.147  0.00  0.00    -0.168 F 
ENDBRANCH   9  33
TORSDOF 9
