REMARK  Name = ZINC29334729
REMARK  6 active torsions:
REMARK  status: ('A' for Active; 'I' for Inactive)
REMARK    1  A    between atoms: C_1  and  O_2
REMARK    2  A    between atoms: O_2  and  C_3
REMARK    3  A    between atoms: C_3  and  C_5
REMARK    4  A    between atoms: C_11  and  C_13
REMARK    5  A    between atoms: C_13  and  S_14
REMARK    6  A    between atoms: S_14  and  C_15
REMARK                            x       y       z     vdW  Elec       q    Type
REMARK                         _______ _______ _______ _____ _____    ______ ____
ROOT
ATOM      1  C   UNL     1      -1.329   1.940   0.019  0.00  0.00    +0.101 C 
ATOM      2  C   UNL     1      -1.416   2.813   1.273  0.00  0.00    +0.033 C 
ATOM      3  C   UNL     1      -2.738   3.585   1.262  0.00  0.00    +0.108 C 
ATOM      4  N   UNL     1      -3.844   2.628   1.117  0.00  0.00    -0.301 N 
ATOM      5  C   UNL     1      -3.814   1.681  -0.006  0.00  0.00    +0.108 C 
ATOM      6  C   UNL     1      -2.479   0.929   0.019  0.00  0.00    +0.033 C 
ATOM      7  C   UNL     1      -4.865   2.620   1.995  0.00  0.00    +0.226 C 
ATOM      8  O   UNL     1      -5.772   1.825   1.864  0.00  0.00    -0.275 OA
ENDROOT
BRANCH   1   9
ATOM      9  C   UNL     1      -0.014   1.204   0.009  0.00  0.00    +0.310 C 
ATOM     10  O   UNL     1       0.002  -0.004   0.002  0.00  0.00    -0.251 OA
BRANCH   9  12
ATOM     11  C   UNL     1       2.367   1.117  -0.015  0.00  0.00    +0.280 C 
ATOM     12  O   UNL     1       1.139   1.891   0.001  0.00  0.00    -0.468 OA
ENDBRANCH   9  12
ENDBRANCH   1   9
BRANCH   7  13
ATOM     13  C   UNL     1      -4.882   3.599   3.141  0.00  0.00    +0.173 C 
BRANCH  13  14
ATOM     14  S   UNL     1      -6.371   3.338   4.136  0.00  0.00    -0.084 S 
BRANCH  14  15
ATOM     15  C   UNL     1      -6.138   4.578   5.366  0.00  0.00    +0.123 C 
ATOM     16  N   UNL     1      -5.082   5.342   5.330  0.00  0.00    -0.382 N 
ATOM     17  N   UNL     1      -7.071   4.740   6.365  0.00  0.00    -0.340 N 
ATOM     18  H   UNL     1      -4.936   6.115   6.099  0.00  0.00    +0.158 HD
ATOM     19  H   UNL     1      -6.925   5.514   7.133  0.00  0.00    +0.144 HD
ATOM     20  H   UNL     1      -7.962   4.096   6.395  0.00  0.00    +0.144 HD
ATOM     21  H   UNL     1      -4.336   5.212   4.532  0.00  0.00    +0.158 HD
ENDBRANCH  14  15
ENDBRANCH  13  14
ENDBRANCH   7  13
TORSDOF 5
