REMARK  Name = ZINC64600333
REMARK  7 active torsions:
REMARK  status: ('A' for Active; 'I' for Inactive)
REMARK    1  A    between atoms: C_1  and  C_2
REMARK    2  A    between atoms: C_5  and  S_8
REMARK    3  A    between atoms: S_8  and  N_11
REMARK    4  A    between atoms: C_20  and  C_22
REMARK    5  A    between atoms: N_24  and  C_25
REMARK    6  A    between atoms: C_25  and  C_26
REMARK    7  A    between atoms: C_26  and  C_27
REMARK                            x       y       z     vdW  Elec       q    Type
REMARK                         _______ _______ _______ _____ _____    ______ ____
ROOT
ATOM      1  N   UNL     1       1.760  -4.677  -0.025  0.00  0.00    -0.160 NA
ATOM      2  C   UNL     1       2.456  -4.935  -1.290  0.00  0.00    +0.145 C 
ATOM      3  C   UNL     1       3.916  -4.584  -1.147  0.00  0.00    -0.028 A 
ATOM      4  C   UNL     1       4.685  -4.530  -2.302  0.00  0.00    +0.005 A 
ATOM      5  C   UNL     1       6.029  -4.224  -2.235  0.00  0.00    +0.000 A 
ATOM      6  C   UNL     1       6.613  -3.972  -1.008  0.00  0.00    +0.000 A 
ATOM      7  C   UNL     1       5.850  -4.021   0.140  0.00  0.00    +0.004 A 
ATOM      8  C   UNL     1       4.495  -4.323   0.074  0.00  0.00    -0.041 A 
ATOM      9  C   UNL     1       3.718  -4.332   1.365  0.00  0.00    +0.065 C 
ATOM     10  C   UNL     1       2.423  -5.118   1.214  0.00  0.00    +0.170 C 
ENDROOT
BRANCH  10  11
ATOM     11  C   UNL     1       1.527  -4.849   2.395  0.00  0.00    +0.232 C 
ATOM     12  O   UNL     1       1.334  -3.710   2.763  0.00  0.00    -0.274 OA
ATOM     13  N   UNL     1       0.940  -5.875   3.043  0.00  0.00    -0.314 N 
ATOM     14  H   UNL     1       1.094  -6.787   2.748  0.00  0.00    +0.149 HD
BRANCH  13  15
ATOM     15  C   UNL     1       0.069  -5.614   4.191  0.00  0.00    +0.108 C 
BRANCH  15  16
ATOM     16  C   UNL     1      -0.465  -6.939   4.739  0.00  0.00    +0.052 C 
BRANCH  16  17
ATOM     17  C   UNL     1      -1.361  -6.671   5.920  0.00  0.00    -0.040 C 
ATOM     18  C   UNL     1      -2.708  -6.554   5.909  0.00  0.00    -0.001 A 
ATOM     19  C   UNL     1      -3.704  -6.639   4.835  0.00  0.00    +0.010 A 
ATOM     20  C   UNL     1      -5.012  -6.475   5.138  0.00  0.00    +0.001 A 
ATOM     21  C   UNL     1      -5.439  -6.226   6.450  0.00  0.00    +0.002 A 
ATOM     22  C   UNL     1      -4.583  -6.135   7.490  0.00  0.00    +0.026 A 
ATOM     23  C   UNL     1      -3.184  -6.292   7.286  0.00  0.00    +0.043 A 
ATOM     24  N   UNL     1      -2.171  -6.247   8.116  0.00  0.00    -0.380 N 
ATOM     25  C   UNL     1      -0.936  -6.483   7.359  0.00  0.00    +0.144 C 
ATOM     26  H   UNL     1      -2.228  -6.089   9.071  0.00  0.00    +0.160 HD
ENDBRANCH  16  17
ENDBRANCH  15  16
ENDBRANCH  13  15
ENDBRANCH  10  11
BRANCH   1  27
ATOM     27  S   UNL     1       0.290  -3.915   0.010  0.00  0.00    +0.062 S 
ATOM     28  O   UNL     1      -0.285  -4.199   1.278  0.00  0.00    -0.153 OA
ATOM     29  O   UNL     1      -0.362  -4.234  -1.212  0.00  0.00    -0.153 OA
BRANCH  27  34
ATOM     30  C   UNL     1       1.355   2.023  -0.106  0.00  0.00    +0.044 C 
ATOM     31  C   UNL     1       1.089   0.540  -0.077  0.00  0.00    -0.050 A 
ATOM     32  C   UNL     1       0.931  -0.157  -1.260  0.00  0.00    +0.005 A 
ATOM     33  C   UNL     1       0.688  -1.517  -1.234  0.00  0.00    +0.029 A 
ATOM     34  C   UNL     1       0.602  -2.181  -0.024  0.00  0.00    +0.106 A 
ATOM     35  C   UNL     1       0.761  -1.484   1.159  0.00  0.00    +0.029 A 
ATOM     36  C   UNL     1       1.008  -0.124   1.133  0.00  0.00    +0.005 A 
ENDBRANCH  27  34
ENDBRANCH   1  27
TORSDOF 6
