REMARK  Name = ZINC51993040
REMARK  3 active torsions:
REMARK  status: ('A' for Active; 'I' for Inactive)
REMARK    1  A    between atoms: C_2  and  C_10
REMARK    2  A    between atoms: N_12  and  C_13
REMARK    3  A    between atoms: C_19  and  O_21
REMARK                            x       y       z     vdW  Elec       q    Type
REMARK                         _______ _______ _______ _____ _____    ______ ____
ROOT
ATOM      1  C   UNL     1       1.721   3.444   0.004  0.00  0.00    +0.245 C 
ATOM      2  O   UNL     1       2.902   3.732  -0.006  0.00  0.00    -0.270 OA
ATOM      3  N   UNL     1       0.789   4.418   0.018  0.00  0.00    -0.306 N 
ATOM      4  H   UNL     1      -0.153   4.187   0.026  0.00  0.00    +0.149 HD
ENDROOT
BRANCH   1   6
ATOM      5  C   UNL     1      -0.021   1.675   0.011  0.00  0.00    +0.058 A 
ATOM      6  C   UNL     1       1.308   2.031   0.001  0.00  0.00    +0.047 A 
ATOM      7  C   UNL     1       2.288   0.961  -0.015  0.00  0.00    -0.025 A 
ATOM      8  C   UNL     1       1.749  -0.279  -0.017  0.00  0.00    -0.006 A 
ATOM      9  S   UNL     1       0.002  -0.004   0.002  0.00  0.00    -0.101 S 
ATOM     10  C   UNL     1       2.488  -1.581  -0.033  0.00  0.00    +0.043 C 
ATOM     11  C   UNL     1       3.946  -1.302  -0.427  0.00  0.00    +0.005 C 
ATOM     12  C   UNL     1       4.471  -0.133   0.411  0.00  0.00    +0.005 C 
ATOM     13  C   UNL     1       3.795   1.168  -0.027  0.00  0.00    +0.037 C 
ENDBRANCH   1   6
BRANCH   3  14
ATOM     14  C   UNL     1       1.199   5.824   0.022  0.00  0.00    +0.102 C 
ATOM     15  C   UNL     1       1.477   6.271   1.458  0.00  0.00    +0.025 C 
ATOM     16  C   UNL     1       0.208   6.108   2.297  0.00  0.00    +0.002 C 
ATOM     17  C   UNL     1      -0.910   6.967   1.703  0.00  0.00    +0.003 C 
ATOM     18  C   UNL     1      -1.188   6.520   0.267  0.00  0.00    +0.033 C 
ATOM     19  C   UNL     1       0.081   6.683  -0.572  0.00  0.00    +0.135 C 
BRANCH  19  20
ATOM     20  O   UNL     1      -0.178   6.266  -1.914  0.00  0.00    -0.390 OA
ATOM     21  H   UNL     1      -0.878   6.768  -2.354  0.00  0.00    +0.210 HD
ENDBRANCH  19  20
ENDBRANCH   3  14
TORSDOF 3
