REMARK  Name = ZINC59017012
REMARK  8 active torsions:
REMARK  status: ('A' for Active; 'I' for Inactive)
REMARK    1  A    between atoms: C_1  and  C_2
REMARK    2  A    between atoms: C_2  and  C_3
REMARK    3  A    between atoms: C_2  and  C_4
REMARK    4  A    between atoms: C_4  and  S_5
REMARK    5  A    between atoms: S_5  and  C_6
REMARK    6  A    between atoms: N_12  and  N_13
REMARK    7  A    between atoms: C_14  and  C_15
REMARK    8  A    between atoms: C_20  and  O_21
REMARK                            x       y       z     vdW  Elec       q    Type
REMARK                         _______ _______ _______ _____ _____    ______ ____
ROOT
ATOM      1  C   UNL     1      -3.116  -2.791  -0.118  0.00  0.00    +0.190 A 
ATOM      2  N   UNL     1      -3.612  -4.060  -0.203  0.00  0.00    -0.303 N 
ATOM      3  H   UNL     1      -3.089  -4.872  -0.290  0.00  0.00    +0.171 HD
ATOM      4  C   UNL     1      -4.976  -3.986  -0.144  0.00  0.00    +0.235 A 
ATOM      5  N   UNL     1      -5.308  -2.723  -0.027  0.00  0.00    -0.111 NA
ATOM      6  N   UNL     1      -4.129  -1.966  -0.005  0.00  0.00    -0.121 NA
ATOM      7  N   UNL     1      -5.854  -5.058  -0.199  0.00  0.00    -0.205 N 
ATOM      8  H   UNL     1      -5.512  -5.961  -0.288  0.00  0.00    +0.177 HD
ENDROOT
BRANCH   7   9
ATOM      9  N   UNL     1      -7.236  -4.836  -0.127  0.00  0.00    -0.187 NA
ATOM     10  C   UNL     1      -8.058  -5.840  -0.179  0.00  0.00    +0.142 C 
BRANCH  10  11
ATOM     11  C   UNL     1      -9.511  -5.607  -0.103  0.00  0.00    +0.037 A 
ATOM     12  C   UNL     1     -10.399  -6.684  -0.152  0.00  0.00    +0.028 A 
ATOM     13  C   UNL     1     -11.759  -6.459  -0.081  0.00  0.00    +0.019 A 
ATOM     14  C   UNL     1     -12.247  -5.168   0.040  0.00  0.00    +0.019 A 
ATOM     15  C   UNL     1     -11.377  -4.094   0.089  0.00  0.00    +0.047 A 
ATOM     16  C   UNL     1     -10.010  -4.303   0.025  0.00  0.00    +0.126 A 
ATOM     17 BR   UNL     1     -12.960  -7.918  -0.148  0.00  0.00    -0.050 Br
BRANCH  16  18
ATOM     18  O   UNL     1      -9.155  -3.249   0.080  0.00  0.00    -0.506 OA
ATOM     19  H   UNL     1      -8.942  -2.870  -0.783  0.00  0.00    +0.292 HD
ENDBRANCH  16  18
ENDBRANCH  10  11
ENDBRANCH   7   9
BRANCH   1  20
ATOM     20  S   UNL     1      -1.412  -2.341  -0.146  0.00  0.00    -0.086 S 
BRANCH  20  21
ATOM     21  C   UNL     1      -1.433  -0.534   0.013  0.00  0.00    +0.080 C 
BRANCH  21  23
ATOM     22  C   UNL     1      -0.019   1.526   0.010  0.00  0.00    +0.008 C 
ATOM     23  C   UNL     1       0.002  -0.004   0.002  0.00  0.00    -0.007 C 
ATOM     24  C   UNL     1       0.742  -0.511   1.242  0.00  0.00    +0.008 C 
ENDBRANCH  21  23
ENDBRANCH  20  21
ENDBRANCH   1  20
TORSDOF 6
