REMARK  Name = ZINC57833968
REMARK  9 active torsions:
REMARK  status: ('A' for Active; 'I' for Inactive)
REMARK    1  A    between atoms: C_1  and  C_2
REMARK    2  A    between atoms: C_2  and  C_4
REMARK    3  A    between atoms: C_2  and  C_18
REMARK    4  A    between atoms: C_4  and  N_5
REMARK    5  A    between atoms: C_6  and  C_14
REMARK    6  A    between atoms: C_9  and  C_12
REMARK    7  A    between atoms: C_14  and  C_15
REMARK    8  A    between atoms: C_14  and  C_16
REMARK    9  A    between atoms: C_14  and  C_17
REMARK                            x       y       z     vdW  Elec       q    Type
REMARK                         _______ _______ _______ _____ _____    ______ ____
ROOT
ATOM      1  N   UNL     1      -1.393   0.121  -2.133  0.00  0.00    -0.310 N 
ATOM      2  C   UNL     1      -1.641  -1.081  -2.707  0.00  0.00    +0.027 A 
ATOM      3  C   UNL     1      -2.200  -1.170  -3.940  0.00  0.00    +0.023 A 
ATOM      4  C   UNL     1      -2.533  -0.011  -4.643  0.00  0.00    +0.026 A 
ATOM      5  C   UNL     1      -2.282   1.228  -4.059  0.00  0.00    +0.116 A 
ATOM      6  C   UNL     1      -1.699   1.269  -2.766  0.00  0.00    +0.269 A 
ATOM      7  O   UNL     1      -1.474   2.341  -2.231  0.00  0.00    -0.266 OA
ENDROOT
BRANCH   2   8
ATOM      8  C   UNL     1      -1.288  -2.343  -1.963  0.00  0.00    +0.003 C 
ATOM      9  C   UNL     1      -1.833  -3.553  -2.723  0.00  0.00    +0.017 C 
ATOM     10  C   UNL     1       0.233  -2.458  -1.845  0.00  0.00    +0.017 C 
ATOM     11  C   UNL     1      -1.905  -2.300  -0.564  0.00  0.00    +0.017 C 
ENDBRANCH   2   8
BRANCH   5  12
ATOM     12  C   UNL     1      -2.609   2.438  -4.750  0.00  0.00    +0.105 C 
ATOM     13  N   UNL     1      -2.869   3.399  -5.298  0.00  0.00    -0.191 NA
ENDBRANCH   5  12
BRANCH   1  14
ATOM     14  C   UNL     1      -0.786   0.172  -0.800  0.00  0.00    +0.143 C 
BRANCH  14  16
ATOM     15  C   UNL     1      -2.514   1.747   0.082  0.00  0.00    +0.025 C 
ATOM     16  C   UNL     1      -1.881   0.364   0.251  0.00  0.00    +0.108 C 
BRANCH  16  17
ATOM     17  C   UNL     1      -1.295   0.254   1.597  0.00  0.00    +0.067 C 
ATOM     18  N   UNL     1      -0.842   0.169   2.635  0.00  0.00    -0.196 NA
ENDBRANCH  16  17
ENDBRANCH  14  16
ENDBRANCH   1  14
TORSDOF 5
