REMARK  Name = ZINC04264788
REMARK  8 active torsions:
REMARK  status: ('A' for Active; 'I' for Inactive)
REMARK    1  A    between atoms: C_1  and  C_2
REMARK    2  A    between atoms: C_2  and  C_4
REMARK    3  A    between atoms: C_2  and  O_30
REMARK    4  A    between atoms: C_4  and  O_29
REMARK    5  A    between atoms: C_12  and  C_28
REMARK    6  A    between atoms: C_14  and  O_27
REMARK    7  A    between atoms: C_18  and  C_26
REMARK    8  A    between atoms: C_23  and  C_25
REMARK                            x       y       z     vdW  Elec       q    Type
REMARK                         _______ _______ _______ _____ _____    ______ ____
ROOT
ATOM      1  C   UNL     1       0.775  -0.592   1.235  0.00  0.00    +0.092 C 
ATOM      2  C   UNL     1       0.128  -0.044   2.518  0.00  0.00    +0.041 C 
ATOM      3  C   UNL     1      -0.275  -1.269   3.375  0.00  0.00    +0.001 C 
ATOM      4  C   UNL     1       0.797  -1.507   4.425  0.00  0.00    -0.004 C 
ATOM      5  C   UNL     1       2.206  -1.255   3.894  0.00  0.00    +0.004 C 
ATOM      6  C   UNL     1       3.164  -1.268   5.086  0.00  0.00    +0.007 C 
ATOM      7  C   UNL     1       3.166  -2.635   5.772  0.00  0.00    -0.024 C 
ATOM      8  C   UNL     1       3.927  -3.626   4.898  0.00  0.00    +0.038 C 
ATOM      9  C   UNL     1       4.002  -4.993   5.573  0.00  0.00    +0.115 C 
ATOM     10  C   UNL     1       2.588  -5.521   5.799  0.00  0.00    +0.032 C 
ATOM     11  C   UNL     1       1.747  -4.556   6.609  0.00  0.00    +0.010 C 
ATOM     12  C   UNL     1       1.767  -3.109   6.120  0.00  0.00    -0.023 C 
ATOM     13  C   UNL     1       0.732  -2.908   5.021  0.00  0.00    -0.001 C 
ATOM     14  C   UNL     1       0.872  -3.939   3.903  0.00  0.00    +0.005 C 
ATOM     15  C   UNL     1      -0.312  -3.790   2.948  0.00  0.00    +0.007 C 
ATOM     16  C   UNL     1      -0.419  -2.404   2.358  0.00  0.00    -0.026 C 
ATOM     17  C   UNL     1       0.644  -2.128   1.285  0.00  0.00    +0.044 C 
ATOM     18  C   UNL     1      -1.811  -2.297   1.708  0.00  0.00    +0.011 C 
ATOM     19  C   UNL     1       1.297  -2.259   7.335  0.00  0.00    +0.012 C 
ATOM     20  C   UNL     1       3.950  -2.459   7.094  0.00  0.00    +0.012 C 
ENDROOT
BRANCH   1  22
ATOM     21  C   UNL     1       0.772  -0.513  -1.264  0.00  0.00    +0.040 C 
ATOM     22  C   UNL     1       0.059  -0.032   0.002  0.00  0.00    +0.143 C 
BRANCH  22  23
ATOM     23  O   UNL     1       0.079   1.396   0.046  0.00  0.00    -0.389 OA
ATOM     24  H   UNL     1       0.964   1.779  -0.021  0.00  0.00    +0.210 HD
ENDBRANCH  22  23
ENDBRANCH   1  22
BRANCH   9  25
ATOM     25  O   UNL     1       4.706  -5.899   4.713  0.00  0.00    -0.392 OA
ATOM     26  H   UNL     1       4.796  -6.792   5.072  0.00  0.00    +0.210 HD
ENDBRANCH   9  25
BRANCH   1  27
ATOM     27  O   UNL     1       2.157  -0.221   1.179  0.00  0.00    -0.386 OA
ATOM     28  H   UNL     1       2.307   0.734   1.153  0.00  0.00    +0.210 HD
ENDBRANCH   1  27
TORSDOF 4
