REMARK  Name = ZINC13046563
REMARK  13 active torsions:
REMARK  status: ('A' for Active; 'I' for Inactive)
REMARK    1  A    between atoms: C_1  and  C_2
REMARK    2  A    between atoms: C_2  and  C_3
REMARK    3  A    between atoms: C_3  and  C_4
REMARK    4  A    between atoms: C_3  and  C_5
REMARK    5  A    between atoms: C_3  and  C_6
REMARK    6  A    between atoms: C_9  and  N_12
REMARK    7  A    between atoms: C_13  and  C_15
REMARK    8  A    between atoms: C_15  and  S_16
REMARK    9  A    between atoms: S_16  and  C_17
REMARK   10  A    between atoms: C_21  and  C_31
REMARK   11  A    between atoms: N_27  and  C_28
REMARK   12  A    between atoms: C_28  and  C_29
REMARK   13  A    between atoms: C_29  and  O_30
REMARK                            x       y       z     vdW  Elec       q    Type
REMARK                         _______ _______ _______ _____ _____    ______ ____
ROOT
ATOM      1  C   UNL     1      -1.687   0.799   1.772  0.00  0.00    +0.173 A 
ATOM      2  N   UNL     1      -2.342   1.159   2.848  0.00  0.00    -0.223 NA
ATOM      3  C   UNL     1      -2.076   2.324   3.484  0.00  0.00    +0.080 A 
ATOM      4  C   UNL     1      -2.776   2.705   4.632  0.00  0.00    +0.043 A 
ATOM      5  C   UNL     1      -2.468   3.909   5.251  0.00  0.00    +0.065 A 
ATOM      6  C   UNL     1      -1.465   4.739   4.733  0.00  0.00    +0.016 A 
ATOM      7  C   UNL     1      -0.774   4.377   3.612  0.00  0.00    +0.016 A 
ATOM      8  C   UNL     1      -1.067   3.172   2.974  0.00  0.00    +0.065 A 
ATOM      9  C   UNL     1      -0.344   2.740   1.767  0.00  0.00    +0.262 A 
ATOM     10  O   UNL     1       0.539   3.424   1.283  0.00  0.00    -0.267 OA
ATOM     11  N   UNL     1      -0.698   1.558   1.213  0.00  0.00    -0.285 N 
ENDROOT
BRANCH   5  12
ATOM     12  C   UNL     1      -3.205   4.320   6.467  0.00  0.00    +0.387 C 
ATOM     13  O   UNL     1      -4.075   3.604   6.920  0.00  0.00    -0.241 OA
ATOM     14  O   UNL     1      -2.910   5.487   7.071  0.00  0.00    -0.241 OA
ENDBRANCH   5  12
BRANCH   1  15
ATOM     15  S   UNL     1      -2.100  -0.735   1.009  0.00  0.00    -0.078 S 
BRANCH  15  16
ATOM     16  C   UNL     1      -3.415  -1.294   2.121  0.00  0.00    +0.173 C 
BRANCH  16  18
ATOM     17  N   UNL     1      -4.926  -3.241   2.330  0.00  0.00    -0.312 N 
ATOM     18  C   UNL     1      -3.936  -2.627   1.651  0.00  0.00    +0.224 C 
ATOM     19  O   UNL     1      -3.465  -3.148   0.662  0.00  0.00    -0.275 OA
ATOM     20  H   UNL     1      -5.302  -2.824   3.121  0.00  0.00    +0.149 HD
BRANCH  17  24
ATOM     21  C   UNL     1      -7.642  -6.427   1.508  0.00  0.00    -0.005 C 
ATOM     22  C   UNL     1      -6.572  -6.646   2.580  0.00  0.00    +0.006 C 
ATOM     23  C   UNL     1      -6.043  -5.292   3.056  0.00  0.00    +0.022 C 
ATOM     24  C   UNL     1      -5.433  -4.537   1.873  0.00  0.00    +0.073 C 
ATOM     25  C   UNL     1      -6.503  -4.318   0.802  0.00  0.00    +0.022 C 
ATOM     26  C   UNL     1      -7.032  -5.672   0.325  0.00  0.00    +0.006 C 
BRANCH  21  27
ATOM     27  C   UNL     1      -8.171  -7.781   1.031  0.00  0.00    -0.032 C 
ATOM     28  C   UNL     1      -7.021  -8.600   0.443  0.00  0.00    +0.011 C 
ATOM     29  C   UNL     1      -8.781  -8.535   2.214  0.00  0.00    +0.011 C 
BRANCH  27  31
ATOM     30  C   UNL     1      -9.771  -8.915  -0.517  0.00  0.00    +0.004 C 
ATOM     31  C   UNL     1      -9.241  -7.561  -0.040  0.00  0.00    +0.003 C 
ENDBRANCH  27  31
ENDBRANCH  21  27
ENDBRANCH  17  24
ENDBRANCH  16  18
ENDBRANCH  15  16
ENDBRANCH   1  15
BRANCH  11  32
ATOM     32  C   UNL     1      -0.013   1.086   0.008  0.00  0.00    +0.155 C 
BRANCH  32  33
ATOM     33  C   UNL     1      -0.753   1.593  -1.232  0.00  0.00    +0.177 C 
BRANCH  33  34
ATOM     34  O   UNL     1      -0.672   3.018  -1.285  0.00  0.00    -0.393 OA
ATOM     35  H   UNL     1      -1.120   3.410  -2.047  0.00  0.00    +0.209 HD
ENDBRANCH  33  34
ENDBRANCH  32  33
ENDBRANCH  11  32
TORSDOF 10
