REMARK  Name = ZINC35747101
REMARK  16 active torsions:
REMARK  status: ('A' for Active; 'I' for Inactive)
REMARK    1  A    between atoms: C_1  and  C_2
REMARK    2  A    between atoms: C_8  and  C_19
REMARK    3  A    between atoms: C_12  and  C_13
REMARK    4  A    between atoms: C_13  and  O_15
REMARK    5  A    between atoms: O_15  and  C_16
REMARK    6  A    between atoms: C_16  and  C_17
REMARK    7  A    between atoms: C_16  and  C_18
REMARK    8  A    between atoms: C_19  and  N_20
REMARK    9  A    between atoms: N_20  and  C_21
REMARK   10  A    between atoms: N_20  and  C_33
REMARK   11  A    between atoms: C_21  and  C_22
REMARK   12  A    between atoms: C_22  and  C_24
REMARK   13  A    between atoms: C_22  and  O_32
REMARK   14  A    between atoms: C_24  and  O_25
REMARK   15  A    between atoms: O_25  and  C_26
REMARK   16  A    between atoms: C_26  and  C_27
REMARK                            x       y       z     vdW  Elec       q    Type
REMARK                         _______ _______ _______ _____ _____    ______ ____
ROOT
ATOM      1  C   UNL     1      -1.032   2.378  -1.752  0.00  0.00    +0.046 C 
ATOM      2  C   UNL     1      -0.692   0.955  -1.391  0.00  0.00    -0.015 A 
ATOM      3  C   UNL     1      -0.598  -0.017  -2.389  0.00  0.00    +0.076 A 
ATOM      4  C   UNL     1      -0.789   0.122  -3.851  0.00  0.00    +0.260 A 
ATOM      5  O   UNL     1      -1.071   1.199  -4.345  0.00  0.00    -0.267 OA
ATOM      6  N   UNL     1      -0.643  -0.975  -4.621  0.00  0.00    -0.312 N 
ATOM      7  H   UNL     1      -0.765  -0.901  -5.581  0.00  0.00    +0.170 HD
ATOM      8  C   UNL     1      -0.330  -2.178  -4.082  0.00  0.00    +0.094 A 
ATOM      9  N   UNL     1      -0.154  -2.335  -2.798  0.00  0.00    -0.229 NA
ATOM     10  C   UNL     1      -0.274  -1.322  -1.951  0.00  0.00    +0.116 A 
ATOM     11  S   UNL     1      -0.119  -1.134  -0.192  0.00  0.00    -0.062 S 
ATOM     12  C   UNL     1      -0.470   0.614  -0.088  0.00  0.00    +0.102 A 
ENDROOT
BRANCH  12  13
ATOM     13  C   UNL     1      -0.511   1.468   1.100  0.00  0.00    +0.346 C 
ATOM     14  O   UNL     1      -0.772   2.651   0.990  0.00  0.00    -0.244 OA
BRANCH  13  15
ATOM     15  O   UNL     1      -0.260   0.944   2.317  0.00  0.00    -0.458 OA
BRANCH  15  16
ATOM     16  C   UNL     1      -0.318   1.835   3.432  0.00  0.00    +0.171 C 
ATOM     17  C   UNL     1      -1.741   1.859   3.993  0.00  0.00    +0.052 C 
ATOM     18  C   UNL     1       0.650   1.358   4.518  0.00  0.00    +0.052 C 
ENDBRANCH  15  16
ENDBRANCH  13  15
ENDBRANCH  12  13
BRANCH   8  19
ATOM     19  C   UNL     1      -0.179  -3.370  -4.992  0.00  0.00    -0.003 C 
BRANCH  19  20
ATOM     20  N   UNL     1       0.159  -4.556  -4.194  0.00  0.00    +0.388 N 
ATOM     21  H   UNL     1       0.981  -4.366  -3.641  0.00  0.00    -0.081 HD
BRANCH  20  22
ATOM     22  C   UNL     1      -0.963  -4.885  -3.305  0.00  0.00    -0.068 C 
ATOM     23  C   UNL     1      -0.718  -4.800  -1.797  0.00  0.00    -0.017 C 
ATOM     24  C   UNL     1      -0.856  -6.165  -2.474  0.00  0.00    -0.017 C 
ENDBRANCH  20  22
BRANCH  20  25
ATOM     25  C   UNL     1       0.423  -5.690  -5.089  0.00  0.00    -0.044 C 
BRANCH  25  26
ATOM     26  C   UNL     1      -0.771  -5.890  -6.025  0.00  0.00    +0.124 C 
BRANCH  26  27
ATOM     27  O   UNL     1      -1.923  -6.245  -5.258  0.00  0.00    -0.391 OA
ATOM     28  H   UNL     1      -1.821  -7.061  -4.749  0.00  0.00    +0.210 HD
ENDBRANCH  26  27
BRANCH  26  29
ATOM     29  C   UNL     1      -0.457  -7.007  -7.022  0.00  0.00    +0.189 C 
BRANCH  29  30
ATOM     30  O   UNL     1      -1.523  -7.115  -7.968  0.00  0.00    -0.370 OA
BRANCH  30  31
ATOM     31  C   UNL     1      -1.328  -8.135  -8.949  0.00  0.00    +0.234 C 
BRANCH  31  32
ATOM     32  C   UNL     1      -2.505  -8.159  -9.889  0.00  0.00    +0.130 A 
ATOM     33  C   UNL     1      -2.615  -7.457 -11.031  0.00  0.00    +0.047 A 
ATOM     34  C   UNL     1      -3.872  -7.779 -11.592  0.00  0.00    +0.041 A 
ATOM     35  C   UNL     1      -4.456  -8.659 -10.759  0.00  0.00    +0.195 A 
ATOM     36  O   UNL     1      -3.621  -8.891  -9.733  0.00  0.00    -0.465 OA
ENDBRANCH  31  32
ENDBRANCH  30  31
ENDBRANCH  29  30
ENDBRANCH  26  29
ENDBRANCH  25  26
ENDBRANCH  20  25
ENDBRANCH  19  20
ENDBRANCH   8  19
TORSDOF 13
