REMARK  Name = ZINC02432497
REMARK  4 active torsions:
REMARK  status: ('A' for Active; 'I' for Inactive)
REMARK    1  A    between atoms: C_1  and  C_2
REMARK    2  A    between atoms: C_2  and  C_25
REMARK    3  A    between atoms: C_4  and  C_23
REMARK    4  A    between atoms: C_4  and  C_24
REMARK                            x       y       z     vdW  Elec       q    Type
REMARK                         _______ _______ _______ _____ _____    ______ ____
ROOT
ATOM      1  C   UNL     1       0.226   1.521   0.095  0.00  0.00    +0.021 C 
ATOM      2  C   UNL     1       0.006   0.015  -0.062  0.00  0.00    +0.022 C 
ATOM      3  C   UNL     1      -1.495  -0.284  -0.042  0.00  0.00    +0.041 C 
ATOM      4  C   UNL     1      -2.144   0.117   1.288  0.00  0.00    +0.038 C 
ATOM      5  N   UNL     1      -1.439  -0.579   2.377  0.00  0.00    -0.262 N 
ATOM      6  C   UNL     1      -0.094  -0.948   2.202  0.00  0.00    +0.047 A 
ATOM      7  C   UNL     1       0.684  -0.711   1.069  0.00  0.00    -0.015 A 
ATOM      8  C   UNL     1       1.986  -1.141   1.052  0.00  0.00    +0.006 A 
ATOM      9  C   UNL     1       2.501  -1.798   2.161  0.00  0.00    +0.001 A 
ATOM     10  C   UNL     1       1.722  -2.023   3.285  0.00  0.00    +0.009 A 
ATOM     11  C   UNL     1       0.413  -1.595   3.311  0.00  0.00    +0.017 A 
ATOM     12  C   UNL     1      -0.727  -1.631   4.277  0.00  0.00    +0.188 C 
ATOM     13  C   UNL     1      -1.880  -0.951   3.586  0.00  0.00    +0.259 C 
ATOM     14  O   UNL     1      -2.992  -0.774   4.037  0.00  0.00    -0.272 OA
ATOM     15  N   UNL     1      -0.416  -1.041   5.574  0.00  0.00    -0.318 N 
ATOM     16  C   UNL     1      -0.536  -1.866   6.682  0.00  0.00    +0.042 A 
ATOM     17  C   UNL     1      -0.287  -1.459   8.007  0.00  0.00    +0.024 A 
ATOM     18  C   UNL     1      -0.446  -2.392   9.014  0.00  0.00    +0.002 A 
ATOM     19  C   UNL     1      -0.837  -3.694   8.776  0.00  0.00    +0.001 A 
ATOM     20  C   UNL     1      -1.093  -4.130   7.478  0.00  0.00    +0.016 A 
ATOM     21  C   UNL     1      -0.936  -3.202   6.476  0.00  0.00    +0.032 A 
ATOM     22  S   UNL     1      -1.165  -3.351   4.726  0.00  0.00    -0.084 S 
ATOM     23  C   UNL     1      -3.619  -0.290   1.286  0.00  0.00    +0.032 C 
ATOM     24  C   UNL     1      -2.027   1.631   1.482  0.00  0.00    +0.032 C 
ATOM     25  H   UNL     1      -0.139  -0.115   5.657  0.00  0.00    +0.148 HD
ENDROOT
BRANCH   2  26
ATOM     26  C   UNL     1       0.590  -0.443  -1.374  0.00  0.00    -0.037 A 
ATOM     27  C   UNL     1       0.617  -1.790  -1.685  0.00  0.00    +0.004 A 
ATOM     28  C   UNL     1       1.153  -2.210  -2.888  0.00  0.00    +0.000 A 
ATOM     29  C   UNL     1       1.661  -1.284  -3.780  0.00  0.00    +0.000 A 
ATOM     30  C   UNL     1       1.633   0.063  -3.468  0.00  0.00    +0.000 A 
ATOM     31  C   UNL     1       1.094   0.483  -2.267  0.00  0.00    +0.004 A 
ENDBRANCH   2  26
TORSDOF 1
