REMARK  Name = ZINC03236442
REMARK  5 active torsions:
REMARK  status: ('A' for Active; 'I' for Inactive)
REMARK    1  A    between atoms: C_1  and  C_2
REMARK    2  A    between atoms: C_2  and  O_3
REMARK    3  A    between atoms: O_3  and  C_4
REMARK    4  A    between atoms: C_7  and  C_26
REMARK    5  A    between atoms: C_8  and  N_21
REMARK                            x       y       z     vdW  Elec       q    Type
REMARK                         _______ _______ _______ _____ _____    ______ ____
ROOT
ATOM      1  C   UNL     1       0.803   5.317  -3.813  0.00  0.00    +0.194 A 
ATOM      2  C   UNL     1       1.900   6.060  -3.413  0.00  0.00    +0.075 A 
ATOM      3  C   UNL     1       2.889   5.433  -2.654  0.00  0.00    +0.014 A 
ATOM      4  C   UNL     1       4.093   6.103  -2.167  0.00  0.00    +0.100 A 
ATOM      5  C   UNL     1       4.998   5.341  -1.410  0.00  0.00    +0.142 A 
ATOM      6  N   UNL     1       4.775   4.058  -1.146  0.00  0.00    -0.215 NA
ATOM      7  C   UNL     1       3.707   3.407  -1.563  0.00  0.00    +0.133 A 
ATOM      8  C   UNL     1       2.722   4.066  -2.330  0.00  0.00    +0.061 A 
ATOM      9  C   UNL     1       1.571   3.389  -2.779  0.00  0.00    +0.112 A 
ATOM     10  N   UNL     1       1.430   2.048  -2.450  0.00  0.00    -0.309 N 
ATOM     11  C   UNL     1       2.134   1.557  -1.254  0.00  0.00    +0.099 C 
ATOM     12  N   UNL     1       3.513   2.068  -1.269  0.00  0.00    -0.308 N 
ATOM     13  C   UNL     1       1.417   2.055  -0.000  0.00  0.00    +0.045 C 
ATOM     14  C   UNL     1      -0.019   1.526   0.010  0.00  0.00    +0.004 C 
ATOM     15  C   UNL     1       0.002  -0.004   0.002  0.00  0.00    +0.000 C 
ATOM     16  C   UNL     1       0.717  -0.499  -1.257  0.00  0.00    +0.004 C 
ATOM     17  C   UNL     1       2.154   0.029  -1.268  0.00  0.00    +0.045 C 
ATOM     18  H   UNL     1       0.886   1.454  -2.990  0.00  0.00    +0.149 HD
ATOM     19  H   UNL     1       4.264   1.484  -1.078  0.00  0.00    +0.150 HD
ATOM     20  N   UNL     1       0.602   3.991  -3.518  0.00  0.00    -0.314 N 
ATOM     21  H   UNL     1      -0.232   3.484  -3.838  0.00  0.00    +0.170 HD
ENDROOT
BRANCH   5  22
ATOM     22  N   UNL     1       6.147   5.939  -0.929  0.00  0.00    -0.314 N 
ATOM     23  C   UNL     1       5.820   7.036   0.017  0.00  0.00    +0.106 C 
ATOM     24  C   UNL     1       7.132   7.213   0.822  0.00  0.00    +0.020 C 
ATOM     25  C   UNL     1       7.642   5.761   0.976  0.00  0.00    +0.020 C 
ATOM     26  C   UNL     1       6.965   4.974  -0.162  0.00  0.00    +0.106 C 
ENDBRANCH   5  22
BRANCH   4  27
ATOM     27  C   UNL     1       4.340   7.485  -2.450  0.00  0.00    +0.103 C 
ATOM     28  N   UNL     1       4.537   8.581  -2.674  0.00  0.00    -0.191 NA
ENDBRANCH   4  27
BRANCH   1  29
ATOM     29  O   UNL     1      -0.165   5.916  -4.551  0.00  0.00    -0.478 OA
BRANCH  29  31
ATOM     30  C   UNL     1      -2.257   5.950  -5.760  0.00  0.00    +0.048 C 
ATOM     31  C   UNL     1      -1.278   5.108  -4.939  0.00  0.00    +0.227 C 
ENDBRANCH  29  31
ENDBRANCH   1  29
TORSDOF 4
