REMARK  Name = ZINC35363897
REMARK  7 active torsions:
REMARK  status: ('A' for Active; 'I' for Inactive)
REMARK    1  A    between atoms: C_1  and  C_2
REMARK    2  A    between atoms: C_18  and  C_20
REMARK    3  A    between atoms: C_20  and  N_21
REMARK    4  A    between atoms: C_26  and  O_33
REMARK    5  A    between atoms: C_27  and  O_31
REMARK    6  A    between atoms: O_31  and  C_32
REMARK    7  A    between atoms: O_33  and  C_34
REMARK                            x       y       z     vdW  Elec       q    Type
REMARK                         _______ _______ _______ _____ _____    ______ ____
ROOT
ATOM      1  C   UNL     1      -0.019   1.526   0.010  0.00  0.00    +0.011 C 
ATOM      2  C   UNL     1       0.002  -0.004   0.002  0.00  0.00    -0.023 C 
ATOM      3  C   UNL     1      -1.432  -0.529   0.023  0.00  0.00    +0.007 C 
ATOM      4  C   UNL     1      -2.175   0.057   1.226  0.00  0.00    +0.003 C 
ATOM      5  C   UNL     1      -1.500  -0.403   2.522  0.00  0.00    +0.037 C 
ATOM      6  C   UNL     1      -0.020  -0.019   2.483  0.00  0.00    +0.096 C 
ATOM      7  C   UNL     1       0.745  -0.508   1.247  0.00  0.00    +0.030 C 
ATOM      8  C   UNL     1       0.704  -2.038   1.236  0.00  0.00    +0.014 C 
ATOM      9  C   UNL     1       1.325  -2.612  -0.010  0.00  0.00    +0.042 C 
ATOM     10  C   UNL     1       0.769  -2.008  -1.315  0.00  0.00    +0.181 C 
ATOM     11  C   UNL     1       0.725  -0.490  -1.245  0.00  0.00    +0.052 C 
ATOM     12  O   UNL     1       1.831  -2.345  -2.253  0.00  0.00    -0.461 OA
ATOM     13  C   UNL     1       3.008  -2.097  -1.638  0.00  0.00    +0.309 C 
ATOM     14  O   UNL     1       4.035  -1.776  -2.187  0.00  0.00    -0.251 OA
ATOM     15  C   UNL     1       2.822  -2.277  -0.148  0.00  0.00    +0.088 C 
ATOM     16  C   UNL     1       0.393   1.318   3.093  0.00  0.00    +0.196 C 
ATOM     17  O   UNL     1       0.688   0.066   3.717  0.00  0.00    -0.368 OA
ENDROOT
BRANCH  15  18
ATOM     18  C   UNL     1       3.684  -3.436   0.355  0.00  0.00    -0.063 C 
BRANCH  18  19
ATOM     19  N   UNL     1       5.099  -3.044   0.324  0.00  0.00    +0.383 N 
ATOM     20  C   UNL     1       5.937  -4.191   0.704  0.00  0.00    -0.074 C 
ATOM     21  C   UNL     1       7.393  -3.863   0.372  0.00  0.00    +0.017 C 
ATOM     22  C   UNL     1       7.761  -2.523   0.956  0.00  0.00    -0.044 A 
ATOM     23  C   UNL     1       9.104  -2.196   1.071  0.00  0.00    +0.053 A 
ATOM     24  C   UNL     1       9.483  -0.975   1.600  0.00  0.00    +0.162 A 
ATOM     25  C   UNL     1       8.509  -0.073   2.017  0.00  0.00    +0.162 A 
ATOM     26  C   UNL     1       7.171  -0.404   1.901  0.00  0.00    +0.051 A 
ATOM     27  C   UNL     1       6.795  -1.631   1.372  0.00  0.00    -0.057 A 
ATOM     28  C   UNL     1       5.327  -1.951   1.274  0.00  0.00    -0.043 C 
ATOM     29  H   UNL     1       5.344  -2.739  -0.607  0.00  0.00    -0.081 HD
BRANCH  25  30
ATOM     30  O   UNL     1       8.871   1.131   2.537  0.00  0.00    -0.491 OA
ATOM     31  C   UNL     1       7.816   2.006   2.943  0.00  0.00    +0.277 C 
ENDBRANCH  25  30
BRANCH  24  32
ATOM     32  O   UNL     1      10.801  -0.658   1.712  0.00  0.00    -0.491 OA
ATOM     33  C   UNL     1      11.743  -1.634   1.263  0.00  0.00    +0.277 C 
ENDBRANCH  24  32
ENDBRANCH  18  19
ENDBRANCH  15  18
TORSDOF 4
