REMARK  Name = ZINC02473148
REMARK  3 active torsions:
REMARK  status: ('A' for Active; 'I' for Inactive)
REMARK    1  A    between atoms: C_2  and  C_3
REMARK    2  A    between atoms: C_3  and  S_4
REMARK    3  A    between atoms: S_4  and  C_5
REMARK                            x       y       z     vdW  Elec       q    Type
REMARK                         _______ _______ _______ _____ _____    ______ ____
ROOT
ATOM      1  C   UNL     1       3.597   6.455   0.001  0.00  0.00    +0.211 A 
ATOM      2  N   UNL     1       2.274   6.554   0.014  0.00  0.00    -0.201 NA
ATOM      3  C   UNL     1       1.539   5.447   0.015  0.00  0.00    +0.162 A 
ATOM      4  C   UNL     1       2.204   4.203   0.003  0.00  0.00    +0.137 A 
ATOM      5  C   UNL     1       1.152   3.172   0.008  0.00  0.00    +0.029 A 
ATOM      6  C   UNL     1       1.173   1.779   0.000  0.00  0.00    +0.012 A 
ATOM      7  C   UNL     1      -0.013   1.076   0.008  0.00  0.00    +0.001 A 
ATOM      8  C   UNL     1      -1.224   1.750   0.017  0.00  0.00    +0.002 A 
ATOM      9  C   UNL     1      -1.259   3.128   0.030  0.00  0.00    +0.026 A 
ATOM     10  C   UNL     1      -0.073   3.856   0.022  0.00  0.00    +0.050 A 
ATOM     11  N   UNL     1       0.185   5.217   0.027  0.00  0.00    -0.338 N 
ATOM     12  H   UNL     1      -0.516   6.064   0.038  0.00  0.00    +0.167 HD
ATOM     13  N   UNL     1       3.528   4.172  -0.010  0.00  0.00    -0.143 NA
ATOM     14  N   UNL     1       4.200   5.271  -0.011  0.00  0.00    -0.122 NA
ENDROOT
BRANCH   1  15
ATOM     15  S   UNL     1       4.573   7.922  -0.002  0.00  0.00    -0.080 S 
BRANCH  15  16
ATOM     16  C   UNL     1       6.231   7.197  -0.021  0.00  0.00    +0.104 C 
BRANCH  16  18
ATOM     17  C   UNL     1       8.069   8.442   0.995  0.00  0.00    +0.005 C 
ATOM     18  C   UNL     1       7.261   8.297  -0.026  0.00  0.00    -0.023 C 
ENDBRANCH  16  18
ENDBRANCH  15  16
ENDBRANCH   1  15
TORSDOF 3
