REMARK  Name = ZINC36796503
REMARK  11 active torsions:
REMARK  status: ('A' for Active; 'I' for Inactive)
REMARK    1  A    between atoms: C_1  and  C_2
REMARK    2  A    between atoms: C_2  and  C_3
REMARK    3  A    between atoms: C_3  and  C_4
REMARK    4  A    between atoms: C_4  and  C_6
REMARK    5  A    between atoms: C_4  and  C_27
REMARK    6  A    between atoms: C_6  and  N_7
REMARK    7  A    between atoms: C_8  and  C_10
REMARK    8  A    between atoms: C_10  and  N_11
REMARK    9  A    between atoms: C_14  and  C_18
REMARK   10  A    between atoms: C_14  and  C_19
REMARK   11  A    between atoms: C_22  and  C_25
REMARK                            x       y       z     vdW  Elec       q    Type
REMARK                         _______ _______ _______ _____ _____    ______ ____
ROOT
ATOM      1  C   UNL     1      -5.240  -2.166  -3.065  0.00  0.00    +0.213 C 
ENDROOT
BRANCH   1   2
ATOM      2  N   UNL     1      -6.610  -2.672  -3.175  0.00  0.00    -0.215 N 
ATOM      3  C   UNL     1      -6.933  -3.881  -3.676  0.00  0.00    +0.251 C 
ATOM      4  O   UNL     1      -6.172  -4.723  -4.104  0.00  0.00    -0.272 OA
ATOM      5  C   UNL     1      -8.443  -3.970  -3.592  0.00  0.00    +0.135 C 
ATOM      6  N   UNL     1      -8.833  -2.680  -2.998  0.00  0.00    -0.281 N 
ATOM      7  C   UNL     1      -7.696  -1.994  -2.786  0.00  0.00    +0.310 C 
ATOM      8  O   UNL     1      -7.658  -0.881  -2.298  0.00  0.00    -0.252 OA
ATOM      9  C   UNL     1      -8.865  -5.129  -2.686  0.00  0.00    +0.047 C 
ATOM     10  H   UNL     1      -9.735  -2.383  -2.796  0.00  0.00    +0.152 HD
BRANCH   5  11
ATOM     11  C   UNL     1      -9.043  -4.124  -4.966  0.00  0.00    -0.015 A 
ATOM     12  C   UNL     1      -8.330  -4.771  -5.960  0.00  0.00    +0.007 A 
ATOM     13  C   UNL     1      -8.873  -4.915  -7.220  0.00  0.00    +0.019 A 
ATOM     14  C   UNL     1     -10.145  -4.407  -7.491  0.00  0.00    +0.052 A 
ATOM     15  C   UNL     1     -10.859  -3.755  -6.483  0.00  0.00    +0.019 A 
ATOM     16  C   UNL     1     -10.306  -3.622  -5.226  0.00  0.00    +0.007 A 
BRANCH  14  17
ATOM     17  C   UNL     1     -10.715  -4.552  -8.796  0.00  0.00    +0.099 C 
ATOM     18  N   UNL     1     -11.166  -4.668  -9.832  0.00  0.00    -0.191 NA
ENDBRANCH  14  17
ENDBRANCH   5  11
ENDBRANCH   1   2
BRANCH   1  20
ATOM     19  N   UNL     1      -3.405  -2.205  -1.407  0.00  0.00    -0.313 N 
ATOM     20  C   UNL     1      -4.663  -2.564  -1.731  0.00  0.00    +0.231 C 
ATOM     21  O   UNL     1      -5.330  -3.208  -0.950  0.00  0.00    -0.274 OA
ATOM     22  H   UNL     1      -2.871  -1.691  -2.033  0.00  0.00    +0.149 HD
BRANCH  19  23
ATOM     23  C   UNL     1      -2.844  -2.592  -0.110  0.00  0.00    +0.112 C 
BRANCH  23  24
ATOM     24  C   UNL     1      -1.413  -2.063   0.004  0.00  0.00    +0.038 C 
BRANCH  24  25
ATOM     25  C   UNL     1      -0.793  -2.564   1.284  0.00  0.00    -0.024 A 
ATOM     26  C   UNL     1      -1.369  -2.250   2.500  0.00  0.00    +0.007 A 
ATOM     27  C   UNL     1      -0.802  -2.709   3.674  0.00  0.00    +0.020 A 
ATOM     28  C   UNL     1       0.344  -3.484   3.631  0.00  0.00    +0.042 A 
ATOM     29  C   UNL     1       0.920  -3.800   2.415  0.00  0.00    +0.040 A 
ATOM     30  C   UNL     1       0.349  -3.344   1.240  0.00  0.00    +0.046 A 
ATOM     31 CL   UNL     1       1.069  -3.745  -0.288  0.00  0.00    -0.083 Cl
ATOM     32 CL   UNL     1       1.057  -4.061   5.106  0.00  0.00    -0.083 Cl
ENDBRANCH  24  25
BRANCH  24  33
ATOM     33  C   UNL     1      -1.433  -0.534   0.013  0.00  0.00    +0.009 C 
BRANCH  33  35
ATOM     34  C   UNL     1      -0.019   1.526   0.010  0.00  0.00    +0.004 C 
ATOM     35  C   UNL     1       0.002  -0.004   0.002  0.00  0.00    -0.003 C 
ENDBRANCH  33  35
ENDBRANCH  24  33
ENDBRANCH  23  24
ENDBRANCH  19  23
ENDBRANCH   1  20
TORSDOF 9
