REMARK  Name = ZINC39545565
REMARK  6 active torsions:
REMARK  status: ('A' for Active; 'I' for Inactive)
REMARK    1  A    between atoms: C_1  and  C_2
REMARK    2  A    between atoms: C_2  and  O_3
REMARK    3  A    between atoms: O_3  and  C_4
REMARK    4  A    between atoms: C_6  and  C_18
REMARK    5  A    between atoms: N_20  and  C_21
REMARK    6  A    between atoms: C_26  and  O_27
REMARK                            x       y       z     vdW  Elec       q    Type
REMARK                         _______ _______ _______ _____ _____    ______ ____
ROOT
ATOM      1  C   UNL     1       0.871  -1.805  -1.287  0.00  0.00    +0.134 C 
ATOM      2  C   UNL     1       1.653  -2.485  -2.388  0.00  0.00    +0.107 C 
ATOM      3  C   UNL     1       1.558  -3.984  -2.047  0.00  0.00    +0.153 C 
ATOM      4  N   UNL     1       0.780  -4.019  -0.798  0.00  0.00    -0.367 NA
ATOM      5  C   UNL     1       0.418  -2.709  -0.453  0.00  0.00    +0.113 C 
ATOM      6  N   UNL     1      -0.387  -2.465   0.686  0.00  0.00    -0.301 N 
ATOM      7  C   UNL     1      -1.359  -3.446   0.943  0.00  0.00    +0.037 A 
ATOM      8  C   UNL     1      -2.274  -3.259   1.969  0.00  0.00    +0.023 A 
ATOM      9  C   UNL     1      -3.224  -4.227   2.228  0.00  0.00    +0.002 A 
ATOM     10  C   UNL     1      -3.258  -5.379   1.462  0.00  0.00    +0.000 A 
ATOM     11  C   UNL     1      -2.349  -5.564   0.439  0.00  0.00    +0.007 A 
ATOM     12  C   UNL     1      -1.395  -4.596   0.167  0.00  0.00    -0.010 A 
ATOM     13  C   UNL     1      -0.437  -4.817  -0.979  0.00  0.00    +0.124 C 
ATOM     14  H   UNL     1      -0.275  -1.681   1.246  0.00  0.00    +0.153 HD
ATOM     15  H   UNL     1       1.341  -4.415  -0.059  0.00  0.00    +0.129 HD
ENDROOT
BRANCH   3  16
ATOM     16  C   UNL     1       0.838  -4.730  -3.141  0.00  0.00    +0.253 C 
ATOM     17  O   UNL     1       0.054  -4.146  -3.858  0.00  0.00    -0.272 OA
ATOM     18  N   UNL     1       1.066  -6.046  -3.322  0.00  0.00    -0.177 N 
ATOM     19 CL   UNL     1       2.172  -6.869  -2.310  0.00  0.00    +0.009 Cl
BRANCH  18  20
ATOM     20  C   UNL     1       0.398  -6.740  -4.339  0.00  0.00    +0.094 A 
ATOM     21  C   UNL     1       0.906  -6.742  -5.630  0.00  0.00    +0.028 A 
ATOM     22  C   UNL     1       0.245  -7.428  -6.631  0.00  0.00    +0.002 A 
ATOM     23  C   UNL     1      -0.924  -8.111  -6.351  0.00  0.00    +0.004 A 
ATOM     24  C   UNL     1      -1.437  -8.113  -5.067  0.00  0.00    +0.047 A 
ATOM     25  C   UNL     1      -0.777  -7.433  -4.056  0.00  0.00    +0.139 A 
BRANCH  25  26
ATOM     26  O   UNL     1      -1.277  -7.439  -2.792  0.00  0.00    -0.505 OA
ATOM     27  H   UNL     1      -1.894  -6.716  -2.610  0.00  0.00    +0.292 HD
ENDBRANCH  25  26
ENDBRANCH  18  20
ENDBRANCH   3  16
BRANCH   1  28
ATOM     28  O   UNL     1       0.673  -0.464  -1.176  0.00  0.00    -0.493 OA
BRANCH  28  30
ATOM     29  C   UNL     1      -0.015   1.530   0.003  0.00  0.00    +0.048 C 
ATOM     30  C   UNL     1       0.025   0.001   0.010  0.00  0.00    +0.225 C 
ENDBRANCH  28  30
ENDBRANCH   1  28
TORSDOF 5
