REMARK  Name = ZINC40362133
REMARK  12 active torsions:
REMARK  status: ('A' for Active; 'I' for Inactive)
REMARK    1  A    between atoms: C_1  and  C_2
REMARK    2  A    between atoms: C_2  and  O_3
REMARK    3  A    between atoms: O_3  and  C_4
REMARK    4  A    between atoms: C_4  and  C_6
REMARK    5  A    between atoms: C_7  and  C_30
REMARK    6  A    between atoms: C_9  and  C_29
REMARK    7  A    between atoms: C_11  and  C_12
REMARK    8  A    between atoms: C_18  and  C_21
REMARK    9  A    between atoms: C_22  and  C_24
REMARK   10  A    between atoms: C_24  and  C_25
REMARK   11  A    between atoms: C_24  and  C_26
REMARK   12  A    between atoms: C_24  and  C_27
REMARK                            x       y       z     vdW  Elec       q    Type
REMARK                         _______ _______ _______ _____ _____    ______ ____
ROOT
ATOM      1  C   UNL     1      -2.537  -2.930   2.705  0.00  0.00    +0.266 C 
ATOM      2  O   UNL     1      -1.391  -2.538   2.802  0.00  0.00    -0.268 OA
ATOM      3  N   UNL     1      -3.317  -3.010   3.801  0.00  0.00    -0.293 N 
ATOM      4  C   UNL     1      -4.660  -3.602   3.722  0.00  0.00    +0.127 C 
ATOM      5  C   UNL     1      -5.675  -2.585   4.258  0.00  0.00    +0.127 C 
ATOM      6  N   UNL     1      -5.197  -2.082   5.554  0.00  0.00    -0.295 N 
ATOM      7  C   UNL     1      -3.854  -1.491   5.633  0.00  0.00    +0.090 C 
ATOM      8  C   UNL     1      -2.837  -2.513   5.098  0.00  0.00    +0.130 C 
ATOM      9  C   UNL     1      -3.528  -1.152   7.089  0.00  0.00    +0.029 C 
ATOM     10  C   UNL     1      -5.978  -2.162   6.650  0.00  0.00    +0.223 C 
ATOM     11  O   UNL     1      -5.618  -1.650   7.689  0.00  0.00    -0.275 OA
ENDROOT
BRANCH   1  17
ATOM     12  C   UNL     1      -2.323  -3.121   0.208  0.00  0.00    +0.110 A 
ATOM     13  C   UNL     1      -2.884  -3.516  -1.013  0.00  0.00    +0.056 A 
ATOM     14  N   UNL     1      -4.090  -4.054  -1.018  0.00  0.00    -0.237 NA
ATOM     15  C   UNL     1      -4.767  -4.223   0.101  0.00  0.00    +0.127 A 
ATOM     16  N   UNL     1      -4.285  -3.868   1.274  0.00  0.00    -0.227 NA
ATOM     17  C   UNL     1      -3.078  -3.323   1.378  0.00  0.00    +0.143 A 
ATOM     18  C   UNL     1      -6.140  -4.841   0.035  0.00  0.00    +0.088 C 
ATOM     19  C   UNL     1      -2.123  -3.330  -2.300  0.00  0.00    +0.066 C 
BRANCH  12  20
ATOM     20  C   UNL     1      -0.976  -2.514   0.266  0.00  0.00    +0.343 C 
ATOM     21  O   UNL     1       0.003  -3.220   0.399  0.00  0.00    -0.245 OA
BRANCH  20  22
ATOM     22  O   UNL     1      -0.835  -1.178   0.172  0.00  0.00    -0.461 OA
BRANCH  22  24
ATOM     23  C   UNL     1       0.456   0.864   0.112  0.00  0.00    +0.048 C 
ATOM     24  C   UNL     1       0.496  -0.660   0.236  0.00  0.00    +0.229 C 
ENDBRANCH  22  24
ENDBRANCH  20  22
ENDBRANCH  12  20
ENDBRANCH   1  17
BRANCH  10  25
ATOM     25  C   UNL     1      -7.297  -2.888   6.585  0.00  0.00    +0.055 C 
ATOM     26  C   UNL     1      -8.223  -2.174   5.599  0.00  0.00    +0.022 C 
ATOM     27  C   UNL     1      -7.065  -4.326   6.118  0.00  0.00    +0.022 C 
BRANCH  25  28
ATOM     28  C   UNL     1      -7.941  -2.900   7.973  0.00  0.00    +0.124 C 
ATOM     29 CL   UNL     1      -9.519  -3.768   7.895  0.00  0.00    -0.124 Cl
ENDBRANCH  25  28
ENDBRANCH  10  25
TORSDOF 6
