REMARK  Name = ZINC14008419
REMARK  5 active torsions:
REMARK  status: ('A' for Active; 'I' for Inactive)
REMARK    1  A    between atoms: C_1  and  C_2
REMARK    2  A    between atoms: C_7  and  N_8
REMARK    3  A    between atoms: C_9  and  C_11
REMARK    4  A    between atoms: C_11  and  C_12
REMARK    5  A    between atoms: N_23  and  C_26
REMARK                            x       y       z     vdW  Elec       q    Type
REMARK                         _______ _______ _______ _____ _____    ______ ____
ROOT
ATOM      1  C   UNL     1      -4.919   2.583   0.081  0.00  0.00    +0.112 C 
ATOM      2  C   UNL     1      -5.590   3.955   0.225  0.00  0.00    +0.103 C 
ATOM      3  S   UNL     1      -4.134   5.064   0.214  0.00  0.00    -0.085 S 
ATOM      4  C   UNL     1      -2.845   3.847   0.041  0.00  0.00    +0.174 A 
ATOM      5  N   UNL     1      -3.460   2.628  -0.010  0.00  0.00    -0.283 N 
ATOM      6  C   UNL     1      -2.657   1.523  -0.143  0.00  0.00    +0.266 A 
ATOM      7  O   UNL     1      -3.152   0.411  -0.194  0.00  0.00    -0.267 OA
ATOM      8  C   UNL     1      -1.256   1.677  -0.222  0.00  0.00    +0.103 A 
ATOM      9  C   UNL     1      -0.174   0.781  -0.358  0.00  0.00    +0.150 A 
ATOM     10  N   UNL     1       0.932   1.470  -0.383  0.00  0.00    -0.172 NA
ATOM     11  N   UNL     1       0.639   2.834  -0.261  0.00  0.00    -0.214 N 
ATOM     12  C   UNL     1      -0.712   2.971  -0.157  0.00  0.00    +0.171 A 
ATOM     13  N   UNL     1      -1.543   4.009  -0.021  0.00  0.00    -0.203 NA
ENDROOT
BRANCH  11  14
ATOM     14  C   UNL     1       1.573   3.878  -0.249  0.00  0.00    +0.068 A 
ATOM     15  C   UNL     1       1.261   5.098  -0.834  0.00  0.00    +0.028 A 
ATOM     16  C   UNL     1       2.183   6.126  -0.817  0.00  0.00    +0.002 A 
ATOM     17  C   UNL     1       3.419   5.939  -0.226  0.00  0.00    +0.000 A 
ATOM     18  C   UNL     1       3.734   4.723   0.353  0.00  0.00    +0.002 A 
ATOM     19  C   UNL     1       2.815   3.692   0.344  0.00  0.00    +0.028 A 
ENDBRANCH  11  14
BRANCH   1  20
ATOM     20  C   UNL     1      -5.303   1.724   1.287  0.00  0.00    +0.122 C 
BRANCH  20  22
ATOM     21  N   UNL     1      -7.381   0.911   2.354  0.00  0.00    -0.285 N 
ATOM     22  C   UNL     1      -6.798   1.529   1.309  0.00  0.00    +0.219 C 
ATOM     23  O   UNL     1      -7.475   1.929   0.386  0.00  0.00    -0.275 OA
ATOM     24  H   UNL     1      -6.848   0.647   3.121  0.00  0.00    +0.155 HD
BRANCH  21  31
ATOM     25  C   UNL     1      -8.318  -1.454   3.630  0.00  0.00    +0.046 C 
ATOM     26  C   UNL     1      -9.256  -0.493   2.945  0.00  0.00    -0.028 A 
ATOM     27  C   UNL     1     -10.613  -0.748   2.925  0.00  0.00    +0.020 A 
ATOM     28  C   UNL     1     -11.474   0.133   2.296  0.00  0.00    +0.018 A 
ATOM     29  C   UNL     1     -10.979   1.273   1.686  0.00  0.00    +0.017 A 
ATOM     30  C   UNL     1      -9.623   1.535   1.708  0.00  0.00    +0.024 A 
ATOM     31  C   UNL     1      -8.756   0.649   2.334  0.00  0.00    +0.036 A 
ATOM     32 BR   UNL     1     -13.332  -0.220   2.269  0.00  0.00    -0.050 Br
ENDBRANCH  21  31
ENDBRANCH  20  22
ENDBRANCH   1  20
TORSDOF 4
