REMARK  Name = ZINC39836276
REMARK  12 active torsions:
REMARK  status: ('A' for Active; 'I' for Inactive)
REMARK    1  A    between atoms: C_1  and  C_2
REMARK    2  A    between atoms: C_2  and  C_3
REMARK    3  A    between atoms: C_3  and  C_4
REMARK    4  A    between atoms: C_4  and  C_5
REMARK    5  A    between atoms: C_5  and  C_6
REMARK    6  A    between atoms: C_6  and  O_7
REMARK    7  A    between atoms: O_7  and  C_8
REMARK    8  A    between atoms: C_11  and  C_14
REMARK    9  A    between atoms: N_16  and  C_17
REMARK   10  A    between atoms: C_18  and  C_28
REMARK   11  A    between atoms: C_23  and  C_27
REMARK   12  A    between atoms: N_30  and  C_31
REMARK                            x       y       z     vdW  Elec       q    Type
REMARK                         _______ _______ _______ _____ _____    ______ ____
ROOT
ATOM      1  C   UNL     1       3.314 -11.930  -5.628  0.00  0.00    +0.085 A 
ATOM      2  C   UNL     1       3.921 -12.617  -6.667  0.00  0.00    +0.069 A 
ATOM      3  C   UNL     1       3.899 -14.068  -6.605  0.00  0.00    -0.023 A 
ATOM      4  C   UNL     1       3.275 -14.566  -5.516  0.00  0.00    -0.004 A 
ATOM      5  S   UNL     1       2.747 -13.140  -4.611  0.00  0.00    -0.077 S 
ATOM      6  C   UNL     1       3.088 -16.010  -5.166  0.00  0.00    +0.046 C 
ATOM      7  C   UNL     1       4.040 -16.843  -6.037  0.00  0.00    -0.009 C 
ATOM      8  C   UNL     1       3.910 -16.384  -7.492  0.00  0.00    +0.008 C 
ATOM      9  C   UNL     1       4.511 -14.986  -7.653  0.00  0.00    +0.037 C 
ATOM     10  C   UNL     1       3.669 -18.324  -5.929  0.00  0.00    +0.008 C 
ENDROOT
BRANCH   1  13
ATOM     11  C   UNL     1       2.581 -10.057  -4.378  0.00  0.00    +0.249 C 
ATOM     12  O   UNL     1       2.113 -10.809  -3.544  0.00  0.00    -0.270 OA
ATOM     13  N   UNL     1       3.206 -10.558  -5.462  0.00  0.00    -0.275 N 
ATOM     14  H   UNL     1       3.579  -9.959  -6.127  0.00  0.00    +0.156 HD
BRANCH  11  18
ATOM     15  C   UNL     1       2.250  -5.855  -3.870  0.00  0.00    +0.121 A 
ATOM     16  C   UNL     1       1.714  -6.712  -2.917  0.00  0.00    +0.046 A 
ATOM     17  C   UNL     1       1.819  -8.076  -3.078  0.00  0.00    +0.016 A 
ATOM     18  C   UNL     1       2.466  -8.597  -4.202  0.00  0.00    +0.037 A 
ATOM     19  C   UNL     1       3.004  -7.731  -5.158  0.00  0.00    +0.016 A 
ATOM     20  C   UNL     1       2.889  -6.369  -4.992  0.00  0.00    +0.046 A 
BRANCH  15  21
ATOM     21  O   UNL     1       2.145  -4.511  -3.708  0.00  0.00    -0.492 OA
BRANCH  21  22
ATOM     22  C   UNL     1       1.476  -4.051  -2.532  0.00  0.00    +0.229 C 
BRANCH  22  23
ATOM     23  C   UNL     1       1.455  -2.521  -2.524  0.00  0.00    +0.041 C 
BRANCH  23  24
ATOM     24  C   UNL     1       0.739  -2.027  -1.265  0.00  0.00    +0.003 C 
BRANCH  24  25
ATOM     25  C   UNL     1       0.718  -0.497  -1.257  0.00  0.00    -0.000 C 
BRANCH  25  27
ATOM     26  C   UNL     1      -0.019   1.526   0.010  0.00  0.00    +0.004 C 
ATOM     27  C   UNL     1       0.002  -0.004   0.002  0.00  0.00    -0.003 C 
ENDBRANCH  25  27
ENDBRANCH  24  25
ENDBRANCH  23  24
ENDBRANCH  22  23
ENDBRANCH  21  22
ENDBRANCH  15  21
ENDBRANCH  11  18
ENDBRANCH   1  13
BRANCH   2  28
ATOM     28  C   UNL     1       4.557 -11.910  -7.782  0.00  0.00    +0.247 C 
ATOM     29  O   UNL     1       5.735 -11.608  -7.718  0.00  0.00    -0.270 OA
ATOM     30  N   UNL     1       3.839 -11.594  -8.878  0.00  0.00    -0.307 N 
ATOM     31  H   UNL     1       2.901 -11.835  -8.929  0.00  0.00    +0.149 HD
BRANCH  30  32
ATOM     32  C   UNL     1       4.476 -10.887  -9.992  0.00  0.00    +0.096 C 
ATOM     33  C   UNL     1       4.423  -9.371  -9.743  0.00  0.00    +0.046 C 
ATOM     34  C   UNL     1       4.795  -8.610 -11.038  0.00  0.00    +0.168 C 
ATOM     35  S   UNL     1       4.273  -9.780 -12.358  0.00  0.00    -0.029 S 
ATOM     36  O   UNL     1       5.417 -10.184 -13.097  0.00  0.00    -0.174 OA
ATOM     37  O   UNL     1       3.154  -9.235 -13.043  0.00  0.00    -0.174 OA
ATOM     38  C   UNL     1       3.708 -11.188 -11.312  0.00  0.00    +0.188 C 
ENDBRANCH  30  32
ENDBRANCH   2  28
TORSDOF 10
