REMARK  Name = ZINC21076948
REMARK  7 active torsions:
REMARK  status: ('A' for Active; 'I' for Inactive)
REMARK    1  A    between atoms: C_4  and  N_8
REMARK    2  A    between atoms: C_9  and  C_11
REMARK    3  A    between atoms: C_11  and  C_12
REMARK    4  A    between atoms: C_12  and  S_13
REMARK    5  A    between atoms: S_13  and  C_14
REMARK    6  A    between atoms: N_19  and  N_20
REMARK    7  A    between atoms: C_21  and  C_22
REMARK                            x       y       z     vdW  Elec       q    Type
REMARK                         _______ _______ _______ _____ _____    ______ ____
ROOT
ATOM      1  C   UNL     1      -3.488   3.133  -4.470  0.00  0.00    +0.210 A 
ATOM      2  N   UNL     1      -4.654   3.570  -5.033  0.00  0.00    -0.186 NA
ATOM      3  C   UNL     1      -4.621   3.260  -6.365  0.00  0.00    +0.232 A 
ATOM      4  N   UNL     1      -3.484   2.658  -6.613  0.00  0.00    -0.245 N 
ATOM      5  N   UNL     1      -2.763   2.582  -5.414  0.00  0.00    -0.144 NA
ATOM      6  N   UNL     1      -5.618   3.535  -7.290  0.00  0.00    -0.205 N 
ATOM      7  H   UNL     1      -6.538   4.048  -6.972  0.00  0.00    +0.177 HD
ATOM      8  H   UNL     1      -3.253   2.318  -7.634  0.00  0.00    +0.192 HD
ENDROOT
BRANCH   6   9
ATOM      9  N   UNL     1      -5.452   3.160  -8.630  0.00  0.00    -0.188 NA
ATOM     10  C   UNL     1      -6.385   3.417  -9.496  0.00  0.00    +0.139 C 
BRANCH  10  11
ATOM     11  C   UNL     1      -6.211   3.022 -10.906  0.00  0.00    +0.013 A 
ATOM     12  C   UNL     1      -7.212   3.298 -11.841  0.00  0.00    +0.012 A 
ATOM     13  C   UNL     1      -7.043   2.926 -13.158  0.00  0.00    +0.021 A 
ATOM     14  C   UNL     1      -5.884   2.280 -13.555  0.00  0.00    +0.042 A 
ATOM     15  C   UNL     1      -4.887   2.004 -12.635  0.00  0.00    +0.040 A 
ATOM     16  C   UNL     1      -5.040   2.376 -11.315  0.00  0.00    +0.051 A 
ATOM     17 CL   UNL     1      -3.786   2.036 -10.164  0.00  0.00    -0.083 Cl
ATOM     18 CL   UNL     1      -5.680   1.816 -15.216  0.00  0.00    -0.083 Cl
ENDBRANCH  10  11
ENDBRANCH   6   9
BRANCH   1  19
ATOM     19  S   UNL     1      -3.035   3.290  -2.775  0.00  0.00    -0.084 S 
BRANCH  19  20
ATOM     20  C   UNL     1      -1.395   2.520  -2.686  0.00  0.00    +0.086 C 
BRANCH  20  21
ATOM     21  C   UNL     1      -0.877   2.588  -1.248  0.00  0.00    +0.107 C 
BRANCH  21  23
ATOM     22  N   UNL     1       1.143   1.898   0.001  0.00  0.00    -0.283 N 
ATOM     23  C   UNL     1       0.486   1.949  -1.174  0.00  0.00    +0.218 C 
ATOM     24  O   UNL     1       0.992   1.484  -2.173  0.00  0.00    -0.275 OA
ATOM     25  H   UNL     1       0.722   2.392   0.889  0.00  0.00    +0.155 HD
BRANCH  22  29
ATOM     26  C   UNL     1       4.777  -0.126   0.271  0.00  0.00    +0.003 A 
ATOM     27  C   UNL     1       4.760   1.223  -0.033  0.00  0.00    +0.022 A 
ATOM     28  C   UNL     1       3.557   1.897  -0.123  0.00  0.00    +0.064 A 
ATOM     29  C   UNL     1       2.364   1.218   0.092  0.00  0.00    +0.070 A 
ATOM     30  C   UNL     1       2.385  -0.136   0.402  0.00  0.00    +0.064 A 
ATOM     31  C   UNL     1       3.592  -0.805   0.486  0.00  0.00    +0.022 A 
ATOM     32 CL   UNL     1       0.898  -0.988   0.678  0.00  0.00    -0.082 Cl
ATOM     33 CL   UNL     1       3.537   3.591  -0.504  0.00  0.00    -0.082 Cl
ENDBRANCH  22  29
ENDBRANCH  21  23
ENDBRANCH  20  21
ENDBRANCH  19  20
ENDBRANCH   1  19
TORSDOF 7
