REMARK  Name = ZINC36801351
REMARK  8 active torsions:
REMARK  status: ('A' for Active; 'I' for Inactive)
REMARK    1  A    between atoms: C_1  and  C_2
REMARK    2  A    between atoms: C_2  and  C_3
REMARK    3  A    between atoms: C_7  and  C_14
REMARK    4  A    between atoms: C_14  and  S_15
REMARK    5  A    between atoms: S_15  and  C_16
REMARK    6  A    between atoms: C_19  and  C_22
REMARK    7  A    between atoms: N_20  and  C_21
REMARK    8  A    between atoms: C_26  and  C_27
REMARK                            x       y       z     vdW  Elec       q    Type
REMARK                         _______ _______ _______ _____ _____    ______ ____
ROOT
ATOM      1  C   UNL     1       1.959  -2.129  -6.019  0.00  0.00    +0.113 C 
ENDROOT
BRANCH   1   6
ATOM      2  C   UNL     1       0.941  -0.910  -1.089  0.00  0.00    -0.044 A 
ATOM      3  C   UNL     1       0.158  -1.107  -2.217  0.00  0.00    +0.004 A 
ATOM      4  C   UNL     1       0.734  -1.430  -3.414  0.00  0.00    +0.012 A 
ATOM      5  C   UNL     1       2.123  -1.561  -3.501  0.00  0.00    +0.022 A 
ATOM      6  C   UNL     1       2.772  -1.905  -4.770  0.00  0.00    -0.020 A 
ATOM      7  C   UNL     1       4.124  -2.018  -4.789  0.00  0.00    +0.097 A 
ATOM      8  C   UNL     1       4.862  -1.804  -3.604  0.00  0.00    +0.338 A 
ATOM      9  O   UNL     1       6.075  -1.907  -3.634  0.00  0.00    -0.245 OA
ATOM     10  O   UNL     1       4.262  -1.488  -2.447  0.00  0.00    -0.422 OA
ATOM     11  C   UNL     1       2.920  -1.362  -2.361  0.00  0.00    +0.140 A 
ATOM     12  C   UNL     1       2.314  -1.030  -1.156  0.00  0.00    +0.050 A 
BRANCH   2  14
ATOM     13  C   UNL     1       0.171   0.967   0.338  0.00  0.00    +0.009 C 
ATOM     14  C   UNL     1       0.286  -0.554   0.221  0.00  0.00    +0.032 C 
ENDBRANCH   2  14
ENDBRANCH   1   6
BRANCH   1  15
ATOM     15  S   UNL     1       1.135  -3.742  -5.924  0.00  0.00    -0.081 S 
BRANCH  15  16
ATOM     16  C   UNL     1       0.238  -3.852  -7.436  0.00  0.00    +0.192 A 
ATOM     17  N   UNL     1       0.207  -2.952  -8.391  0.00  0.00    -0.122 NA
ATOM     18  N   UNL     1      -0.545  -3.353  -9.353  0.00  0.00    -0.128 NA
ATOM     19  C   UNL     1      -1.041  -4.535  -9.071  0.00  0.00    +0.168 A 
ATOM     20  N   UNL     1      -0.551  -4.895  -7.837  0.00  0.00    -0.305 N 
ATOM     21  C   UNL     1      -0.821  -6.134  -7.104  0.00  0.00    +0.153 C 
BRANCH  19  22
ATOM     22  C   UNL     1      -1.950  -5.333  -9.922  0.00  0.00    +0.060 A 
ATOM     23  C   UNL     1      -3.179  -6.020  -9.506  0.00  0.00    +0.053 A 
ATOM     24  C   UNL     1      -3.667  -6.609 -10.610  0.00  0.00    +0.196 A 
ATOM     25  O   UNL     1      -2.854  -6.344 -11.643  0.00  0.00    -0.467 OA
ATOM     26  C   UNL     1      -1.825  -5.577 -11.255  0.00  0.00    +0.112 A 
ATOM     27  C   UNL     1      -0.715  -5.075 -12.142  0.00  0.00    +0.087 C 
ENDBRANCH  19  22
ENDBRANCH  15  16
ENDBRANCH   1  15
TORSDOF 5
