REMARK  Name = ZINC12140158
REMARK  11 active torsions:
REMARK  status: ('A' for Active; 'I' for Inactive)
REMARK    1  A    between atoms: C_1  and  C_2
REMARK    2  A    between atoms: C_2  and  O_3
REMARK    3  A    between atoms: O_3  and  C_4
REMARK    4  A    between atoms: C_4  and  C_6
REMARK    5  A    between atoms: C_11  and  C_12
REMARK    6  A    between atoms: C_11  and  N_71
REMARK    7  A    between atoms: C_12  and  C_14
REMARK    8  A    between atoms: C_12  and  O_32
REMARK    9  A    between atoms: C_14  and  O_15
REMARK   10  A    between atoms: O_15  and  C_16
REMARK   11  A    between atoms: C_19  and  C_22
REMARK                            x       y       z     vdW  Elec       q    Type
REMARK                         _______ _______ _______ _____ _____    ______ ____
ROOT
ATOM      1  C   UNL     1      -1.150   3.537   0.444  0.00  0.00    +0.258 C 
ENDROOT
BRANCH   1   2
ATOM      2  C   UNL     1      -2.570   4.090   0.312  0.00  0.00    +0.135 C 
BRANCH   2   3
ATOM      3  O   UNL     1      -3.251   3.958   1.561  0.00  0.00    -0.390 OA
ATOM      4  H   UNL     1      -2.827   4.429   2.292  0.00  0.00    +0.210 HD
ENDBRANCH   2   3
BRANCH   2   5
ATOM      5  C   UNL     1      -2.508   5.567  -0.082  0.00  0.00    -0.044 C 
BRANCH   5  11
ATOM      6  C   UNL     1      -6.088   7.471  -1.439  0.00  0.00    +0.094 C 
ATOM      7  C   UNL     1      -6.050   5.947  -1.303  0.00  0.00    -0.004 C 
ATOM      8  C   UNL     1      -4.594   5.475  -1.307  0.00  0.00    -0.078 C 
ATOM      9  C   UNL     1      -3.854   7.564  -0.326  0.00  0.00    -0.078 C 
ATOM     10  C   UNL     1      -5.288   8.098  -0.293  0.00  0.00    -0.004 C 
ATOM     11  N   UNL     1      -3.885   6.095  -0.167  0.00  0.00    +0.381 N 
ATOM     12  H   UNL     1      -4.385   5.864   0.700  0.00  0.00    -0.082 HD
BRANCH   6  13
ATOM     13  C   UNL     1      -7.516   7.947  -1.375  0.00  0.00    +0.310 C 
ATOM     14  O   UNL     1      -8.413   7.150  -1.236  0.00  0.00    -0.251 OA
BRANCH  13  15
ATOM     15  O   UNL     1      -7.792   9.257  -1.473  0.00  0.00    -0.465 OA
BRANCH  15  17
ATOM     16  C   UNL     1      -9.306  11.164  -1.533  0.00  0.00    +0.048 C 
ATOM     17  C   UNL     1      -9.190   9.643  -1.404  0.00  0.00    +0.229 C 
ENDBRANCH  15  17
ENDBRANCH  13  15
ENDBRANCH   6  13
ENDBRANCH   5  11
ENDBRANCH   2   5
ENDBRANCH   1   2
BRANCH   1  18
ATOM     18  O   UNL     1      -1.207   2.131   0.696  0.00  0.00    -0.489 OA
BRANCH  18  19
ATOM     19  C   UNL     1      -0.022   1.481   0.840  0.00  0.00    +0.121 A 
ATOM     20  C   UNL     1       1.171   2.181   0.735  0.00  0.00    +0.046 A 
ATOM     21  C   UNL     1       2.374   1.517   0.875  0.00  0.00    +0.008 A 
ATOM     22  C   UNL     1       2.390   0.157   1.122  0.00  0.00    -0.041 A 
ATOM     23  C   UNL     1       1.202  -0.543   1.228  0.00  0.00    +0.008 A 
ATOM     24  C   UNL     1      -0.004   0.116   1.087  0.00  0.00    +0.046 A 
BRANCH  22  25
ATOM     25  C   UNL     1       3.704  -0.565   1.276  0.00  0.00    -0.003 C 
ATOM     26  C   UNL     1       3.817  -1.652   0.204  0.00  0.00    +0.015 C 
ATOM     27  C   UNL     1       5.151  -2.384   0.360  0.00  0.00    -0.010 C 
ATOM     28  C   UNL     1       6.302  -1.389   0.200  0.00  0.00    +0.007 C 
ATOM     29  C   UNL     1       6.188  -0.302   1.272  0.00  0.00    -0.010 C 
ATOM     30  C   UNL     1       4.854   0.431   1.116  0.00  0.00    +0.015 C 
ATOM     31  C   UNL     1       6.258  -0.944   2.659  0.00  0.00    +0.007 C 
ATOM     32  C   UNL     1       5.108  -1.940   2.818  0.00  0.00    -0.010 C 
ATOM     33  C   UNL     1       5.221  -3.026   1.747  0.00  0.00    +0.007 C 
ATOM     34  C   UNL     1       3.774  -1.207   2.663  0.00  0.00    +0.015 C 
ENDBRANCH  22  25
ENDBRANCH  18  19
ENDBRANCH   1  18
TORSDOF 10
