REMARK  Name = ZINC67053580
REMARK  8 active torsions:
REMARK  status: ('A' for Active; 'I' for Inactive)
REMARK    1  A    between atoms: C_1  and  C_2
REMARK    2  A    between atoms: N_4  and  C_5
REMARK    3  A    between atoms: C_5  and  C_6
REMARK    4  A    between atoms: C_9  and  C_11
REMARK    5  A    between atoms: N_13  and  C_14
REMARK    6  A    between atoms: C_19  and  N_20
REMARK    7  A    between atoms: N_20  and  C_21
REMARK    8  A    between atoms: N_20  and  C_22
REMARK                            x       y       z     vdW  Elec       q    Type
REMARK                         _______ _______ _______ _____ _____    ______ ____
ROOT
ATOM      1  C   UNL     1      -6.394  -3.491   1.201  0.00  0.00    +0.255 C 
ATOM      2  O   UNL     1      -7.433  -3.311   0.593  0.00  0.00    -0.269 OA
ATOM      3  N   UNL     1      -6.412  -4.112   2.397  0.00  0.00    -0.280 N 
ATOM      4  H   UNL     1      -5.579  -4.314   2.851  0.00  0.00    +0.155 HD
ENDROOT
BRANCH   3   5
ATOM      5  C   UNL     1      -7.633  -4.468   2.983  0.00  0.00    +0.055 A 
ATOM      6  C   UNL     1      -8.696  -4.869   2.187  0.00  0.00    +0.025 A 
ATOM      7  C   UNL     1      -9.901  -5.218   2.768  0.00  0.00    +0.002 A 
ATOM      8  C   UNL     1     -10.051  -5.170   4.142  0.00  0.00    +0.002 A 
ATOM      9  C   UNL     1      -8.997  -4.772   4.943  0.00  0.00    +0.025 A 
ATOM     10  C   UNL     1      -7.782  -4.425   4.369  0.00  0.00    +0.055 A 
BRANCH  10  11
ATOM     11  N   UNL     1      -6.712  -4.028   5.178  0.00  0.00    -0.302 N 
ATOM     12  C   UNL     1      -5.764  -5.025   5.681  0.00  0.00    +0.135 C 
BRANCH  11  13
ATOM     13  C   UNL     1      -6.548  -2.680   5.507  0.00  0.00    +0.034 A 
ATOM     14  C   UNL     1      -7.449  -1.734   5.036  0.00  0.00    +0.023 A 
ATOM     15  C   UNL     1      -7.284  -0.402   5.363  0.00  0.00    +0.002 A 
ATOM     16  C   UNL     1      -6.222  -0.010   6.157  0.00  0.00    +0.000 A 
ATOM     17  C   UNL     1      -5.322  -0.950   6.628  0.00  0.00    +0.002 A 
ATOM     18  C   UNL     1      -5.486  -2.284   6.310  0.00  0.00    +0.023 A 
ENDBRANCH  11  13
ENDBRANCH  10  11
ENDBRANCH   3   5
BRANCH   1  22
ATOM     19  C   UNL     1      -2.623  -2.414   0.070  0.00  0.00    +0.008 A 
ATOM     20  C   UNL     1      -3.575  -2.071  -0.832  0.00  0.00    +0.013 A 
ATOM     21  C   UNL     1      -4.888  -2.379  -0.568  0.00  0.00    +0.021 A 
ATOM     22  C   UNL     1      -5.124  -3.032   0.633  0.00  0.00    +0.074 A 
ATOM     23  S   UNL     1      -3.477  -3.171   1.302  0.00  0.00    -0.087 S 
BRANCH  19  24
ATOM     24  C   UNL     1      -1.137  -2.175  -0.015  0.00  0.00    +0.146 C 
BRANCH  24  28
ATOM     25  C   UNL     1       0.796   0.873   1.259  0.00  0.00    +0.109 C 
ATOM     26  C   UNL     1       0.464  -0.456   0.632  0.00  0.00    +0.210 C 
ATOM     27  O   UNL     1       1.346  -1.143   0.162  0.00  0.00    -0.276 OA
ATOM     28  N   UNL     1      -0.815  -0.883   0.594  0.00  0.00    -0.311 N 
ATOM     29  H   UNL     1      -1.520  -0.334   0.970  0.00  0.00    +0.149 HD
ENDBRANCH  24  28
ENDBRANCH  19  24
ENDBRANCH   1  22
TORSDOF 6
