REMARK  Name = ZINC01899650
REMARK  11 active torsions:
REMARK  status: ('A' for Active; 'I' for Inactive)
REMARK    1  A    between atoms: C_1  and  C_2
REMARK    2  A    between atoms: C_2  and  C_3
REMARK    3  A    between atoms: C_3  and  C_4
REMARK    4  A    between atoms: C_3  and  C_6
REMARK    5  A    between atoms: C_4  and  C_5
REMARK    6  A    between atoms: C_6  and  O_7
REMARK    7  A    between atoms: O_7  and  C_8
REMARK    8  A    between atoms: C_8  and  C_10
REMARK    9  A    between atoms: N_21  and  C_24
REMARK   10  A    between atoms: C_22  and  N_23
REMARK   11  A    between atoms: C_28  and  N_30
REMARK                            x       y       z     vdW  Elec       q    Type
REMARK                         _______ _______ _______ _____ _____    ______ ____
ROOT
ATOM      1  C   UNL     1      -0.554  -2.182  -0.763  0.00  0.00    +0.126 A 
ATOM      2  C   UNL     1      -0.227  -3.046  -1.910  0.00  0.00    +0.125 A 
ATOM      3  C   UNL     1      -0.315  -4.418  -1.402  0.00  0.00    +0.167 A 
ATOM      4  N   UNL     1      -0.072  -5.425  -2.212  0.00  0.00    -0.225 NA
ATOM      5  C   UNL     1       0.253  -5.189  -3.490  0.00  0.00    +0.092 A 
ATOM      6  C   UNL     1       0.515  -6.261  -4.364  0.00  0.00    +0.030 A 
ATOM      7  C   UNL     1       0.844  -6.012  -5.660  0.00  0.00    +0.002 A 
ATOM      8  C   UNL     1       0.927  -4.707  -6.141  0.00  0.00    +0.002 A 
ATOM      9  C   UNL     1       0.681  -3.645  -5.327  0.00  0.00    +0.030 A 
ATOM     10  C   UNL     1       0.338  -3.862  -3.979  0.00  0.00    +0.090 A 
ATOM     11  N   UNL     1       0.093  -2.825  -3.169  0.00  0.00    -0.241 NA
ATOM     12  N   UNL     1      -0.665  -4.332  -0.068  0.00  0.00    -0.280 N 
ATOM     13  C   UNL     1      -0.801  -3.030   0.312  0.00  0.00    +0.119 A 
ENDROOT
BRANCH  12  14
ATOM     14  C   UNL     1      -0.849  -5.433   0.780  0.00  0.00    +0.052 A 
ATOM     15  C   UNL     1       0.223  -6.258   1.091  0.00  0.00    +0.028 A 
ATOM     16  C   UNL     1       0.039  -7.342   1.927  0.00  0.00    +0.024 A 
ATOM     17  C   UNL     1      -1.213  -7.607   2.453  0.00  0.00    +0.071 A 
ATOM     18  C   UNL     1      -2.284  -6.786   2.144  0.00  0.00    +0.146 A 
ATOM     19  C   UNL     1      -2.103  -5.697   1.314  0.00  0.00    +0.060 A 
ATOM     20 CL   UNL     1      -1.442  -8.971   3.502  0.00  0.00    -0.081 Cl
BRANCH  18  21
ATOM     21  N   UNL     1      -3.622  -7.072   2.709  0.00  0.00    +0.058 N 
ATOM     22  O   UNL     1      -4.564  -6.349   2.438  0.00  0.00    -0.126 OA
ATOM     23  O   UNL     1      -3.780  -8.029   3.445  0.00  0.00    -0.126 OA
ENDBRANCH  18  21
ENDBRANCH  12  14
BRANCH  13  24
ATOM     24  N   UNL     1      -1.137  -2.615   1.574  0.00  0.00    -0.343 N 
ATOM     25  H   UNL     1      -1.217  -1.669   1.768  0.00  0.00    +0.144 HD
ATOM     26  H   UNL     1      -1.294  -3.269   2.274  0.00  0.00    +0.144 HD
ENDBRANCH  13  24
BRANCH   1  27
ATOM     27  C   UNL     1      -0.602  -0.767  -0.754  0.00  0.00    +0.345 C 
ATOM     28  O   UNL     1      -1.642  -0.192  -1.017  0.00  0.00    -0.245 OA
BRANCH  27  29
ATOM     29  O   UNL     1       0.506  -0.056  -0.456  0.00  0.00    -0.461 OA
BRANCH  29  30
ATOM     30  C   UNL     1       0.386   1.367  -0.466  0.00  0.00    +0.236 C 
BRANCH  30  31
ATOM     31  C   UNL     1       1.733   1.996  -0.105  0.00  0.00    +0.026 C 
BRANCH  31  33
ATOM     32  C   UNL     1       3.029   4.131  -0.033  0.00  0.00    +0.004 C 
ATOM     33  C   UNL     1       1.649   3.514  -0.272  0.00  0.00    +0.003 C 
ENDBRANCH  31  33
BRANCH  31  34
ATOM     34  C   UNL     1       2.080   1.661   1.347  0.00  0.00    +0.003 C 
ATOM     35  C   UNL     1       2.322   0.156   1.479  0.00  0.00    +0.004 C 
ENDBRANCH  31  34
ENDBRANCH  30  31
ENDBRANCH  29  30
ENDBRANCH  27  29
ENDBRANCH   1  27
TORSDOF 9
