REMARK  Name = ZINC33616323
REMARK  7 active torsions:
REMARK  status: ('A' for Active; 'I' for Inactive)
REMARK    1  A    between atoms: C_1  and  C_2
REMARK    2  A    between atoms: C_2  and  C_3
REMARK    3  A    between atoms: C_4  and  C_28
REMARK    4  A    between atoms: C_5  and  N_10
REMARK    5  A    between atoms: C_7  and  C_9
REMARK    6  A    between atoms: C_16  and  C_18
REMARK    7  A    between atoms: C_28  and  C_29
REMARK                            x       y       z     vdW  Elec       q    Type
REMARK                         _______ _______ _______ _____ _____    ______ ____
ROOT
ATOM      1  N   UNL     1      -7.202   2.110   3.005  0.00  0.00    -0.312 N 
ATOM      2  C   UNL     1      -7.713   1.227   1.948  0.00  0.00    +0.125 C 
ATOM      3  C   UNL     1      -6.801   0.002   1.825  0.00  0.00    +0.126 C 
ATOM      4  N   UNL     1      -5.419   0.465   1.634  0.00  0.00    -0.298 N 
ATOM      5  C   UNL     1      -4.879   1.453   2.580  0.00  0.00    +0.126 C 
ATOM      6  C   UNL     1      -5.868   2.626   2.670  0.00  0.00    +0.125 C 
ATOM      7  C   UNL     1      -4.665  -0.007   0.622  0.00  0.00    +0.222 C 
ATOM      8  O   UNL     1      -5.154  -0.746  -0.206  0.00  0.00    -0.275 OA
ENDROOT
BRANCH   7   9
ATOM      9  C   UNL     1      -3.213   0.384   0.518  0.00  0.00    +0.048 C 
ATOM     10  C   UNL     1      -2.546  -0.425  -0.596  0.00  0.00    +0.019 C 
ATOM     11  C   UNL     1      -1.071  -0.029  -0.702  0.00  0.00    -0.009 C 
ATOM     12  C   UNL     1      -0.370  -0.316   0.627  0.00  0.00    +0.007 C 
ATOM     13  C   UNL     1      -1.037   0.492   1.742  0.00  0.00    -0.009 C 
ATOM     14  C   UNL     1      -2.511   0.096   1.847  0.00  0.00    +0.019 C 
ATOM     15  C   UNL     1      -0.932   1.985   1.421  0.00  0.00    +0.007 C 
ATOM     16  C   UNL     1      -1.633   2.272   0.092  0.00  0.00    -0.009 C 
ATOM     17  C   UNL     1      -0.966   1.463  -1.022  0.00  0.00    +0.007 C 
ATOM     18  C   UNL     1      -3.107   1.876   0.198  0.00  0.00    +0.019 C 
ENDBRANCH   7   9
BRANCH   1  21
ATOM     19  C   UNL     1      -9.019   4.791   4.711  0.00  0.00    +0.024 A 
ATOM     20  C   UNL     1      -8.120   3.762   4.510  0.00  0.00    +0.016 A 
ATOM     21  C   UNL     1      -8.086   3.147   3.257  0.00  0.00    +0.128 A 
ATOM     22  N   UNL     1      -8.913   3.575   2.307  0.00  0.00    -0.219 NA
ATOM     23  C   UNL     1      -9.758   4.557   2.545  0.00  0.00    +0.106 A 
ATOM     24  N   UNL     1      -9.814   5.158   3.716  0.00  0.00    -0.347 N 
ATOM     25  C   UNL     1     -10.683   5.010   1.444  0.00  0.00    +0.086 C 
ATOM     26  H   UNL     1     -10.535   5.976   3.862  0.00  0.00    +0.167 HD
BRANCH  19  28
ATOM     27  C   UNL     1      -8.236   6.754   6.008  0.00  0.00    +0.010 C 
ATOM     28  C   UNL     1      -9.094   5.488   6.045  0.00  0.00    +0.050 C 
ENDBRANCH  19  28
BRANCH  20  29
ATOM     29  C   UNL     1      -7.198   3.314   5.615  0.00  0.00    +0.075 C 
BRANCH  29  30
ATOM     30  C   UNL     1      -7.854   2.205   6.397  0.00  0.00    -0.043 A 
ATOM     31  C   UNL     1      -8.687   2.506   7.458  0.00  0.00    +0.004 A 
ATOM     32  C   UNL     1      -9.292   1.489   8.172  0.00  0.00    +0.000 A 
ATOM     33  C   UNL     1      -9.056   0.170   7.832  0.00  0.00    +0.000 A 
ATOM     34  C   UNL     1      -8.218  -0.131   6.774  0.00  0.00    +0.000 A 
ATOM     35  C   UNL     1      -7.617   0.886   6.056  0.00  0.00    +0.004 A 
ENDBRANCH  29  30
ENDBRANCH  20  29
ENDBRANCH   1  21
TORSDOF 5
