REMARK  Name = ZINC39729555
REMARK  10 active torsions:
REMARK  status: ('A' for Active; 'I' for Inactive)
REMARK    1  A    between atoms: C_1  and  C_2
REMARK    2  A    between atoms: C_2  and  C_3
REMARK    3  A    between atoms: C_6  and  O_9
REMARK    4  A    between atoms: O_9  and  C_10
REMARK    5  A    between atoms: C_14  and  C_16
REMARK    6  A    between atoms: C_19  and  O_23
REMARK    7  A    between atoms: C_21  and  O_22
REMARK    8  A    between atoms: O_23  and  C_24
REMARK    9  A    between atoms: C_24  and  C_25
REMARK   10  A    between atoms: N_28  and  C_30
REMARK                            x       y       z     vdW  Elec       q    Type
REMARK                         _______ _______ _______ _____ _____    ______ ____
ROOT
ATOM      1  C   UNL     1       5.082  -1.479  -6.617  0.00  0.00    +0.025 A 
ATOM      2  C   UNL     1       6.125  -0.572  -6.638  0.00  0.00    +0.013 A 
ATOM      3  C   UNL     1       6.222   0.349  -7.663  0.00  0.00    +0.046 A 
ATOM      4  C   UNL     1       5.272   0.365  -8.675  0.00  0.00    +0.124 A 
ATOM      5  C   UNL     1       4.226  -0.544  -8.656  0.00  0.00    +0.091 A 
ATOM      6  C   UNL     1       4.134  -1.471  -7.629  0.00  0.00    +0.126 A 
ENDROOT
BRANCH   1  11
ATOM      7  C   UNL     1       3.961  -2.031  -4.463  0.00  0.00    +0.153 C 
ATOM      8  C   UNL     1       4.689  -1.898  -3.336  0.00  0.00    +0.176 C 
ATOM      9  N   UNL     1       5.973  -2.197  -3.563  0.00  0.00    -0.182 NA
ATOM     10  N   UNL     1       6.232  -2.526  -4.723  0.00  0.00    -0.294 N 
ATOM     11  C   UNL     1       4.980  -2.482  -5.496  0.00  0.00    +0.199 C 
ATOM     12  H   UNL     1       7.106  -2.775  -5.064  0.00  0.00    +0.184 HD
BRANCH   7  13
ATOM     13  O   UNL     1       2.638  -1.820  -4.632  0.00  0.00    -0.456 OA
BRANCH  13  17
ATOM     14  C   UNL     1       0.248  -5.079  -5.458  0.00  0.00    -0.047 A 
ATOM     15  C   UNL     1      -0.292  -3.806  -5.474  0.00  0.00    +0.007 A 
ATOM     16  C   UNL     1       0.507  -2.713  -5.197  0.00  0.00    +0.046 A 
ATOM     17  C   UNL     1       1.851  -2.894  -4.904  0.00  0.00    +0.128 A 
ATOM     18  C   UNL     1       2.389  -4.173  -4.888  0.00  0.00    +0.046 A 
ATOM     19  C   UNL     1       1.585  -5.262  -5.161  0.00  0.00    +0.007 A 
BRANCH  14  21
ATOM     20  C   UNL     1      -1.248  -6.788  -4.463  0.00  0.00    +0.009 C 
ATOM     21  C   UNL     1      -0.626  -6.269  -5.760  0.00  0.00    +0.032 C 
ENDBRANCH  14  21
ENDBRANCH  13  17
ENDBRANCH   7  13
ENDBRANCH   1  11
BRANCH   6  22
ATOM     22  O   UNL     1       3.112  -2.367  -7.611  0.00  0.00    -0.506 OA
ATOM     23  H   UNL     1       2.326  -2.057  -7.141  0.00  0.00    +0.292 HD
ENDBRANCH   6  22
BRANCH   4  24
ATOM     24  O   UNL     1       5.368   1.271  -9.683  0.00  0.00    -0.487 OA
BRANCH  24  25
ATOM     25  C   UNL     1       6.472   2.177  -9.638  0.00  0.00    +0.267 C 
BRANCH  25  26
ATOM     26  C   UNL     1       6.413   3.100 -10.828  0.00  0.00    +0.027 A 
ATOM     27  C   UNL     1       7.000   2.870 -12.078  0.00  0.00    +0.141 A 
ATOM     28  N   UNL     1       6.733   3.893 -12.850  0.00  0.00    -0.174 NA
ATOM     29  N   UNL     1       5.966   4.807 -12.116  0.00  0.00    -0.239 N 
ATOM     30  C   UNL     1       5.779   4.294 -10.879  0.00  0.00    +0.121 A 
BRANCH  29  31
ATOM     31  C   UNL     1       5.475   6.034 -12.584  0.00  0.00    +0.065 A 
ATOM     32  C   UNL     1       4.730   6.851 -11.744  0.00  0.00    +0.028 A 
ATOM     33  C   UNL     1       4.248   8.059 -12.207  0.00  0.00    +0.002 A 
ATOM     34  C   UNL     1       4.508   8.457 -13.505  0.00  0.00    +0.000 A 
ATOM     35  C   UNL     1       5.250   7.646 -14.344  0.00  0.00    +0.002 A 
ATOM     36  C   UNL     1       5.739   6.439 -13.885  0.00  0.00    +0.028 A 
ENDBRANCH  29  31
ENDBRANCH  25  26
ENDBRANCH  24  25
ENDBRANCH   4  24
TORSDOF 9
