REMARK  Name = ZINC09167719
REMARK  10 active torsions:
REMARK  status: ('A' for Active; 'I' for Inactive)
REMARK    1  A    between atoms: C_1  and  C_2
REMARK    2  A    between atoms: C_2  and  C_3
REMARK    3  A    between atoms: C_3  and  C_4
REMARK    4  A    between atoms: C_4  and  C_5
REMARK    5  A    between atoms: C_5  and  O_6
REMARK    6  A    between atoms: O_6  and  C_7
REMARK    7  A    between atoms: C_10  and  C_13
REMARK    8  A    between atoms: N_15  and  C_16
REMARK    9  A    between atoms: C_17  and  C_25
REMARK   10  A    between atoms: N_27  and  C_28
REMARK                            x       y       z     vdW  Elec       q    Type
REMARK                         _______ _______ _______ _____ _____    ______ ____
ROOT
ATOM      1  C   UNL     1       1.255  -6.293  -0.047  0.00  0.00    +0.085 A 
ATOM      2  C   UNL     1       2.354  -7.141  -0.063  0.00  0.00    +0.069 A 
ATOM      3  C   UNL     1       2.098  -8.571  -0.068  0.00  0.00    -0.023 A 
ATOM      4  C   UNL     1       0.794  -8.923  -0.058  0.00  0.00    -0.004 A 
ATOM      5  S   UNL     1      -0.088  -7.388  -0.033  0.00  0.00    -0.077 S 
ATOM      6  C   UNL     1       0.233 -10.311  -0.062  0.00  0.00    +0.043 C 
ATOM      7  C   UNL     1       1.353 -11.284  -0.457  0.00  0.00    +0.005 C 
ATOM      8  C   UNL     1       2.602 -10.962   0.369  0.00  0.00    +0.005 C 
ATOM      9  C   UNL     1       3.196  -9.628  -0.084  0.00  0.00    +0.037 C 
ENDROOT
BRANCH   1  12
ATOM     10  C   UNL     1       0.060  -4.250  -0.023  0.00  0.00    +0.249 C 
ATOM     11  O   UNL     1      -0.985  -4.872  -0.017  0.00  0.00    -0.270 OA
ATOM     12  N   UNL     1       1.236  -4.908  -0.038  0.00  0.00    -0.275 N 
ATOM     13  H   UNL     1       2.069  -4.411  -0.043  0.00  0.00    +0.156 HD
BRANCH  10  17
ATOM     14  C   UNL     1       0.002  -0.004   0.002  0.00  0.00    +0.121 A 
ATOM     15  C   UNL     1       1.216  -0.681  -0.019  0.00  0.00    +0.046 A 
ATOM     16  C   UNL     1       1.239  -2.057  -0.022  0.00  0.00    +0.016 A 
ATOM     17  C   UNL     1       0.040  -2.775  -0.014  0.00  0.00    +0.037 A 
ATOM     18  C   UNL     1      -1.179  -2.090   0.002  0.00  0.00    +0.016 A 
ATOM     19  C   UNL     1      -1.193  -0.714   0.010  0.00  0.00    +0.046 A 
BRANCH  14  20
ATOM     20  O   UNL     1      -0.016   1.353   0.009  0.00  0.00    -0.492 OA
BRANCH  20  21
ATOM     21  C   UNL     1       1.248   2.019   0.001  0.00  0.00    +0.229 C 
BRANCH  21  22
ATOM     22  C   UNL     1       1.027   3.533   0.011  0.00  0.00    +0.041 C 
BRANCH  22  23
ATOM     23  C   UNL     1       2.381   4.246   0.002  0.00  0.00    +0.003 C 
BRANCH  23  25
ATOM     24  C   UNL     1       3.513   6.473   0.003  0.00  0.00    +0.004 C 
ATOM     25  C   UNL     1       2.160   5.760   0.012  0.00  0.00    -0.003 C 
ENDBRANCH  23  25
ENDBRANCH  22  23
ENDBRANCH  21  22
ENDBRANCH  20  21
ENDBRANCH  14  20
ENDBRANCH  10  17
ENDBRANCH   1  12
BRANCH   2  26
ATOM     26  C   UNL     1       3.721  -6.612  -0.072  0.00  0.00    +0.247 C 
ATOM     27  O   UNL     1       4.299  -6.399   0.978  0.00  0.00    -0.270 OA
ATOM     28  N   UNL     1       4.339  -6.363  -1.244  0.00  0.00    -0.307 N 
ATOM     29  H   UNL     1       3.879  -6.533  -2.081  0.00  0.00    +0.149 HD
BRANCH  28  30
ATOM     30  C   UNL     1       5.705  -5.835  -1.254  0.00  0.00    +0.096 C 
ATOM     31  C   UNL     1       5.670  -4.301  -1.151  0.00  0.00    +0.046 C 
ATOM     32  C   UNL     1       7.066  -3.718  -1.481  0.00  0.00    +0.168 C 
ATOM     33  S   UNL     1       7.772  -4.980  -2.617  0.00  0.00    -0.029 S 
ATOM     34  O   UNL     1       8.925  -5.551  -2.014  0.00  0.00    -0.174 OA
ATOM     35  O   UNL     1       7.869  -4.426  -3.922  0.00  0.00    -0.174 OA
ATOM     36  C   UNL     1       6.406  -6.215  -2.590  0.00  0.00    +0.188 C 
ENDBRANCH  28  30
ENDBRANCH   2  26
TORSDOF 9
