REMARK  Name = ZINC46761204
REMARK  13 active torsions:
REMARK  status: ('A' for Active; 'I' for Inactive)
REMARK    1  A    between atoms: C_1  and  C_2
REMARK    2  A    between atoms: C_2  and  O_3
REMARK    3  A    between atoms: O_3  and  C_4
REMARK    4  A    between atoms: C_4  and  C_6
REMARK    5  A    between atoms: C_7  and  O_20
REMARK    6  A    between atoms: N_9  and  C_11
REMARK    7  A    between atoms: C_14  and  N_17
REMARK    8  A    between atoms: O_20  and  C_21
REMARK    9  A    between atoms: C_21  and  C_22
REMARK   10  A    between atoms: N_24  and  C_25
REMARK   11  A    between atoms: N_24  and  C_30
REMARK   12  A    between atoms: C_25  and  C_26
REMARK   13  A    between atoms: C_26  and  C_27
REMARK                            x       y       z     vdW  Elec       q    Type
REMARK                         _______ _______ _______ _____ _____    ______ ____
ROOT
ATOM      1  C   UNL     1      -2.808  -2.478   0.888  0.00  0.00    +0.211 A 
ATOM      2  C   UNL     1      -3.137  -3.832   0.619  0.00  0.00    +0.173 A 
ATOM      3  C   UNL     1      -4.480  -3.846   0.424  0.00  0.00    +0.161 A 
ATOM      4  N   UNL     1      -4.919  -2.566   0.571  0.00  0.00    -0.235 N 
ATOM      5  N   UNL     1      -3.934  -1.789   0.845  0.00  0.00    -0.156 NA
ENDROOT
BRANCH   4   6
ATOM      6  C   UNL     1      -6.253  -2.156   0.447  0.00  0.00    +0.066 A 
ATOM      7  C   UNL     1      -7.242  -3.087   0.157  0.00  0.00    +0.030 A 
ATOM      8  C   UNL     1      -8.557  -2.680   0.035  0.00  0.00    +0.035 A 
ATOM      9  C   UNL     1      -8.887  -1.347   0.200  0.00  0.00    +0.126 A 
ATOM     10  C   UNL     1      -7.904  -0.418   0.488  0.00  0.00    +0.035 A 
ATOM     11  C   UNL     1      -6.589  -0.820   0.618  0.00  0.00    +0.030 A 
BRANCH   9  12
ATOM     12  N   UNL     1     -10.296  -0.914   0.068  0.00  0.00    +0.056 N 
ATOM     13  O   UNL     1     -11.157  -1.725  -0.185  0.00  0.00    -0.126 OA
ATOM     14  O   UNL     1     -10.587   0.251   0.212  0.00  0.00    -0.126 OA
ENDBRANCH   9  12
ENDBRANCH   4   6
BRANCH   1  15
ATOM     15  C   UNL     1      -1.464  -1.943   1.169  0.00  0.00    +0.363 C 
ATOM     16  O   UNL     1      -0.504  -2.687   1.180  0.00  0.00    -0.243 OA
BRANCH  15  17
ATOM     17  O   UNL     1      -1.300  -0.628   1.414  0.00  0.00    -0.460 OA
BRANCH  17  19
ATOM     18  C   UNL     1       0.017   1.331   1.932  0.00  0.00    +0.048 C 
ATOM     19  C   UNL     1       0.030  -0.178   1.679  0.00  0.00    +0.229 C 
ENDBRANCH  17  19
ENDBRANCH  15  17
ENDBRANCH   1  15
BRANCH   2  20
ATOM     20  O   UNL     1      -2.285  -4.891   0.566  0.00  0.00    -0.479 OA
BRANCH  20  21
ATOM     21  C   UNL     1      -2.856  -6.169   0.275  0.00  0.00    +0.325 C 
BRANCH  21  22
ATOM     22  C   UNL     1      -1.770  -7.213   0.258  0.00  0.00    +0.257 C 
ATOM     23  O   UNL     1      -0.619  -6.894   0.475  0.00  0.00    -0.272 OA
ATOM     24  N   UNL     1      -2.076  -8.500   0.003  0.00  0.00    -0.268 N 
BRANCH  24  25
ATOM     25  C   UNL     1      -1.056  -9.453  -0.113  0.00  0.00    +0.037 A 
ATOM     26  C   UNL     1      -0.929 -10.454   0.841  0.00  0.00    +0.026 A 
ATOM     27  C   UNL     1       0.077 -11.393   0.725  0.00  0.00    +0.040 A 
ATOM     28  C   UNL     1       0.960 -11.335  -0.341  0.00  0.00    +0.124 A 
ATOM     29  C   UNL     1       0.835 -10.337  -1.292  0.00  0.00    +0.040 A 
ATOM     30  C   UNL     1      -0.174  -9.400  -1.183  0.00  0.00    +0.026 A 
ATOM     31  F   UNL     1       1.944 -12.254  -0.452  0.00  0.00    -0.205 F 
ENDBRANCH  24  25
BRANCH  24  32
ATOM     32  C   UNL     1      -3.476  -8.903  -0.153  0.00  0.00    +0.123 C 
BRANCH  32  33
ATOM     33  C   UNL     1      -3.880  -8.782  -1.624  0.00  0.00    +0.115 C 
BRANCH  33  34
ATOM     34  C   UNL     1      -5.320  -9.196  -1.785  0.00  0.00    +0.212 C 
ATOM     35  O   UNL     1      -5.960  -9.553  -0.818  0.00  0.00    -0.276 OA
ATOM     36  N   UNL     1      -5.896  -9.171  -3.003  0.00  0.00    -0.329 N 
ATOM     37  H   UNL     1      -5.385  -8.885  -3.776  0.00  0.00    +0.145 HD
ATOM     38  H   UNL     1      -6.823  -9.437  -3.106  0.00  0.00    +0.145 HD
ENDBRANCH  33  34
ENDBRANCH  32  33
ENDBRANCH  24  32
ENDBRANCH  21  22
ENDBRANCH  20  21
ENDBRANCH   2  20
TORSDOF 12
