REMARK  Name = ZINC20414799
REMARK  8 active torsions:
REMARK  status: ('A' for Active; 'I' for Inactive)
REMARK    1  A    between atoms: C_5  and  C_7
REMARK    2  A    between atoms: C_7  and  N_8
REMARK    3  A    between atoms: C_9  and  C_11
REMARK    4  A    between atoms: C_14  and  C_17
REMARK    5  A    between atoms: C_17  and  N_18
REMARK    6  A    between atoms: C_21  and  O_22
REMARK    7  A    between atoms: C_23  and  O_24
REMARK    8  A    between atoms: N_25  and  C_26
REMARK                            x       y       z     vdW  Elec       q    Type
REMARK                         _______ _______ _______ _____ _____    ______ ____
ROOT
ATOM      1  C   UNL     1       1.814  -4.502   2.935  0.00  0.00    +0.037 A 
ATOM      2  C   UNL     1       1.992  -3.601   3.986  0.00  0.00    +0.013 A 
ATOM      3  C   UNL     1       2.236  -4.072   5.260  0.00  0.00    +0.006 A 
ATOM      4  C   UNL     1       2.305  -5.433   5.496  0.00  0.00    -0.026 A 
ATOM      5  C   UNL     1       2.131  -6.331   4.458  0.00  0.00    +0.006 A 
ATOM      6  C   UNL     1       1.880  -5.874   3.181  0.00  0.00    +0.013 A 
ENDROOT
BRANCH   1   8
ATOM      7  N   UNL     1       1.489  -2.679   1.333  0.00  0.00    -0.307 N 
ATOM      8  C   UNL     1       1.552  -4.005   1.567  0.00  0.00    +0.244 C 
ATOM      9  O   UNL     1       1.393  -4.791   0.655  0.00  0.00    -0.270 OA
ATOM     10  H   UNL     1       1.615  -2.051   2.062  0.00  0.00    +0.149 HD
BRANCH   7  11
ATOM     11  C   UNL     1       1.229  -2.186  -0.022  0.00  0.00    +0.141 C 
BRANCH  11  16
ATOM     12  C   UNL     1      -0.017   1.378   0.010  0.00  0.00    +0.000 A 
ATOM     13  C   UNL     1       1.171   2.086   0.002  0.00  0.00    +0.001 A 
ATOM     14  C   UNL     1       2.377   1.412  -0.013  0.00  0.00    +0.020 A 
ATOM     15  C   UNL     1       2.397   0.029  -0.021  0.00  0.00    +0.046 A 
ATOM     16  C   UNL     1       1.208  -0.679  -0.013  0.00  0.00    -0.012 A 
ATOM     17  C   UNL     1       0.002  -0.004   0.002  0.00  0.00    +0.006 A 
ATOM     18 CL   UNL     1       3.912  -0.818  -0.041  0.00  0.00    -0.083 Cl
ENDBRANCH  11  16
ENDBRANCH   7  11
ENDBRANCH   1   8
BRANCH   4  19
ATOM     19  C   UNL     1       2.573  -5.940   6.890  0.00  0.00    +0.177 C 
BRANCH  19  20
ATOM     20  N   UNL     1       1.302  -6.130   7.593  0.00  0.00    -0.273 NA
ATOM     21  C   UNL     1       0.928  -7.326   7.951  0.00  0.00    +0.132 C 
ATOM     22  C   UNL     1      -0.259  -7.894   8.651  0.00  0.00    +0.132 C 
ATOM     23  C   UNL     1       0.402  -9.203   8.479  0.00  0.00    +0.188 C 
ATOM     24  C   UNL     1       1.500  -8.681   7.825  0.00  0.00    +0.188 C 
ATOM     25  N   UNL     1      -1.365  -7.445   9.172  0.00  0.00    -0.275 NA
BRANCH  25  26
ATOM     26  C   UNL     1      -2.311  -8.374   9.795  0.00  0.00    +0.106 C 
ATOM     27  C   UNL     1      -3.656  -8.293   9.070  0.00  0.00    +0.027 C 
ATOM     28  C   UNL     1      -4.645  -9.263   9.720  0.00  0.00    +0.002 C 
ATOM     29  C   UNL     1      -4.835  -8.888  11.191  0.00  0.00    +0.000 C 
ATOM     30  C   UNL     1      -3.490  -8.969  11.916  0.00  0.00    +0.002 C 
ATOM     31  C   UNL     1      -2.501  -7.999  11.266  0.00  0.00    +0.027 C 
ENDBRANCH  25  26
BRANCH  23  32
ATOM     32  O   UNL     1       0.054 -10.464   8.831  0.00  0.00    -0.502 OA
ATOM     33  H   UNL     1       0.703 -11.136   8.580  0.00  0.00    +0.292 HD
ENDBRANCH  23  32
BRANCH  24  34
ATOM     34  O   UNL     1       2.632  -9.197   7.290  0.00  0.00    -0.502 OA
ATOM     35  H   UNL     1       2.707 -10.157   7.378  0.00  0.00    +0.292 HD
ENDBRANCH  24  34
ENDBRANCH  19  20
ENDBRANCH   4  19
TORSDOF 8
