REMARK  Name = ZINC13898277
REMARK  7 active torsions:
REMARK  status: ('A' for Active; 'I' for Inactive)
REMARK    1  A    between atoms: C_5  and  N_7
REMARK    2  A    between atoms: N_8  and  C_9
REMARK    3  A    between atoms: C_12  and  O_28
REMARK    4  A    between atoms: C_13  and  C_15
REMARK    5  A    between atoms: N_16  and  N_17
REMARK    6  A    between atoms: C_18  and  C_20
REMARK    7  A    between atoms: C_25  and  O_26
REMARK                            x       y       z     vdW  Elec       q    Type
REMARK                         _______ _______ _______ _____ _____    ______ ____
ROOT
ATOM      1  C   UNL     1       0.172  -4.081  -0.023  0.00  0.00    +0.087 A 
ATOM      2  C   UNL     1       1.397  -4.758  -0.033  0.00  0.00    +0.033 A 
ATOM      3  C   UNL     1       1.428  -6.136  -0.041  0.00  0.00    +0.048 A 
ATOM      4  C   UNL     1       0.246  -6.862  -0.039  0.00  0.00    +0.126 A 
ATOM      5  C   UNL     1      -0.989  -6.195  -0.030  0.00  0.00    +0.038 A 
ATOM      6  C   UNL     1      -1.023  -4.803  -0.015  0.00  0.00    +0.042 A 
ENDROOT
BRANCH   1   8
ATOM      7  N   UNL     1       1.250  -2.050  -0.022  0.00  0.00    -0.148 NA
ATOM      8  N   UNL     1       0.145  -2.716  -0.015  0.00  0.00    -0.149 NA
BRANCH   7  13
ATOM      9  C   UNL     1      -0.017   1.375   0.010  0.00  0.00    +0.002 A 
ATOM     10  C   UNL     1       1.170   2.087   0.002  0.00  0.00    +0.002 A 
ATOM     11  C   UNL     1       2.384   1.423  -0.013  0.00  0.00    +0.022 A 
ATOM     12  C   UNL     1       2.419   0.043  -0.021  0.00  0.00    +0.068 A 
ATOM     13  C   UNL     1       1.224  -0.683  -0.014  0.00  0.00    +0.104 A 
ATOM     14  C   UNL     1       0.002  -0.004   0.002  0.00  0.00    +0.031 A 
ATOM     15 CL   UNL     1       3.943  -0.789  -0.041  0.00  0.00    -0.081 Cl
ENDBRANCH   7  13
ENDBRANCH   1   8
BRANCH   5  16
ATOM     16  C   UNL     1      -2.246  -6.965  -0.029  0.00  0.00    +0.142 C 
ATOM     17  N   UNL     1      -2.212  -8.263  -0.037  0.00  0.00    -0.187 NA
BRANCH  17  18
ATOM     18  N   UNL     1      -3.406  -8.995  -0.036  0.00  0.00    -0.203 N 
ATOM     19  C   UNL     1      -3.371 -10.342  -0.044  0.00  0.00    +0.267 C 
ATOM     20  O   UNL     1      -2.302 -10.922  -0.053  0.00  0.00    -0.268 OA
ATOM     21  H   UNL     1      -4.259  -8.532  -0.029  0.00  0.00    +0.178 HD
BRANCH  19  22
ATOM     22  C   UNL     1      -4.628 -11.113  -0.044  0.00  0.00    +0.081 A 
ATOM     23  C   UNL     1      -5.859 -10.450  -0.040  0.00  0.00    +0.036 A 
ATOM     24  C   UNL     1      -7.030 -11.177  -0.040  0.00  0.00    +0.042 A 
ATOM     25  C   UNL     1      -6.994 -12.563  -0.043  0.00  0.00    +0.023 A 
ATOM     26  C   UNL     1      -5.784 -13.229  -0.046  0.00  0.00    +0.047 A 
ATOM     27  C   UNL     1      -4.596 -12.514  -0.052  0.00  0.00    +0.129 A 
ATOM     28 CL   UNL     1      -8.559 -10.353  -0.035  0.00  0.00    -0.084 Cl
BRANCH  27  29
ATOM     29  O   UNL     1      -3.407 -13.168  -0.061  0.00  0.00    -0.506 OA
ATOM     30  H   UNL     1      -3.059 -13.363   0.820  0.00  0.00    +0.292 HD
ENDBRANCH  27  29
ENDBRANCH  19  22
ENDBRANCH  17  18
ENDBRANCH   5  16
BRANCH   4  31
ATOM     31  O   UNL     1       0.283  -8.219  -0.047  0.00  0.00    -0.506 OA
ATOM     32  H   UNL     1       0.299  -8.617   0.834  0.00  0.00    +0.292 HD
ENDBRANCH   4  31
TORSDOF 7
