REMARK  Name = ZINC30986105
REMARK  10 active torsions:
REMARK  status: ('A' for Active; 'I' for Inactive)
REMARK    1  A    between atoms: C_1  and  C_2
REMARK    2  A    between atoms: C_2  and  C_3
REMARK    3  A    between atoms: C_3  and  C_5
REMARK    4  A    between atoms: C_3  and  N_13
REMARK    5  A    between atoms: C_8  and  C_12
REMARK    6  A    between atoms: C_9  and  C_11
REMARK    7  A    between atoms: C_14  and  C_16
REMARK    8  A    between atoms: N_19  and  C_22
REMARK    9  A    between atoms: C_22  and  C_23
REMARK   10  A    between atoms: C_25  and  C_28
REMARK                            x       y       z     vdW  Elec       q    Type
REMARK                         _______ _______ _______ _____ _____    ______ ____
ROOT
ATOM      1  C   UNL     1       4.642   9.068   3.659  0.00  0.00    +0.071 C 
ATOM      2  C   UNL     1       5.939   8.817   2.885  0.00  0.00    -0.006 C 
ATOM      3  C   UNL     1       5.602   8.484   1.430  0.00  0.00    -0.077 C 
ATOM      4  N   UNL     1       4.746   7.293   1.384  0.00  0.00    +0.386 N 
ATOM      5  C   UNL     1       3.474   7.526   2.081  0.00  0.00    -0.077 C 
ATOM      6  C   UNL     1       3.748   7.829   3.556  0.00  0.00    -0.006 C 
ATOM      7  H   UNL     1       5.272   6.481   1.909  0.00  0.00    -0.081 HD
ENDROOT
BRANCH   1   9
ATOM      8  N   UNL     1       3.971   9.586   5.983  0.00  0.00    -0.308 N 
ATOM      9  C   UNL     1       4.964   9.336   5.107  0.00  0.00    +0.216 C 
ATOM     10  O   UNL     1       6.117   9.329   5.484  0.00  0.00    -0.276 OA
ATOM     11  H   UNL     1       2.925   9.593   5.641  0.00  0.00    +0.149 HD
BRANCH   8  12
ATOM     12  C   UNL     1       4.283   9.847   7.390  0.00  0.00    +0.103 C 
BRANCH  12  13
ATOM     13  C   UNL     1       3.179  10.666   8.007  0.00  0.00    -0.027 A 
ATOM     14  C   UNL     1       1.860  10.402   7.685  0.00  0.00    +0.006 A 
ATOM     15  C   UNL     1       0.847  11.151   8.253  0.00  0.00    +0.004 A 
ATOM     16  C   UNL     1       1.152  12.169   9.137  0.00  0.00    -0.048 A 
ATOM     17  C   UNL     1       2.470  12.436   9.455  0.00  0.00    -0.047 A 
ATOM     18  C   UNL     1       3.484  11.685   8.889  0.00  0.00    +0.009 A 
ATOM     19  C   UNL     1       2.803  13.547  10.418  0.00  0.00    +0.044 C 
ATOM     20  C   UNL     1       0.047  12.988   9.754  0.00  0.00    +0.044 C 
ENDBRANCH  12  13
BRANCH  12  22
ATOM     21  C   UNL     1       5.613   7.742   7.596  0.00  0.00    +0.006 C 
ATOM     22  C   UNL     1       4.412   8.519   8.139  0.00  0.00    +0.024 C 
ENDBRANCH  12  22
ENDBRANCH   8  12
ENDBRANCH   1   9
BRANCH   4  23
ATOM     23  C   UNL     1       4.516   6.862  -0.002  0.00  0.00    +0.022 C 
BRANCH  23  24
ATOM     24  C   UNL     1       3.847   5.512  -0.004  0.00  0.00    +0.211 A 
ATOM     25  N   UNL     1       2.557   5.283   0.001  0.00  0.00    -0.193 NA
ATOM     26  C   UNL     1       2.428   3.937   0.001  0.00  0.00    +0.202 A 
ATOM     27  N   UNL     1       3.634   3.433  -0.014  0.00  0.00    -0.056 NA
ATOM     28  O   UNL     1       4.458   4.323  -0.016  0.00  0.00    -0.340 OA
BRANCH  26  29
ATOM     29  C   UNL     1       1.154   3.174   0.008  0.00  0.00    +0.024 A 
ATOM     30  C   UNL     1       1.174   1.781   0.000  0.00  0.00    +0.012 A 
ATOM     31  C   UNL     1      -0.013   1.076   0.008  0.00  0.00    +0.002 A 
ATOM     32  C   UNL     1      -1.220   1.750   0.017  0.00  0.00    +0.020 A 
ATOM     33  C   UNL     1      -1.246   3.134   0.031  0.00  0.00    +0.042 A 
ATOM     34  C   UNL     1      -0.064   3.849   0.023  0.00  0.00    +0.031 A 
ATOM     35 CL   UNL     1      -2.766   3.972   0.050  0.00  0.00    -0.084 Cl
ENDBRANCH  26  29
ENDBRANCH  23  24
ENDBRANCH   4  23
TORSDOF 7
