REMARK  Name = ZINC12185283
REMARK  12 active torsions:
REMARK  status: ('A' for Active; 'I' for Inactive)
REMARK    1  A    between atoms: C_1  and  C_2
REMARK    2  A    between atoms: C_2  and  O_3
REMARK    3  A    between atoms: O_3  and  C_4
REMARK    4  A    between atoms: C_9  and  N_12
REMARK    5  A    between atoms: C_13  and  C_15
REMARK    6  A    between atoms: C_23  and  C_25
REMARK    7  A    between atoms: C_23  and  C_26
REMARK    8  A    between atoms: C_23  and  N_73
REMARK    9  A    between atoms: C_26  and  C_27
REMARK   10  A    between atoms: C_30  and  O_35
REMARK   11  A    between atoms: C_31  and  O_33
REMARK   12  A    between atoms: O_33  and  C_34
REMARK                            x       y       z     vdW  Elec       q    Type
REMARK                         _______ _______ _______ _____ _____    ______ ____
ROOT
ATOM      1  C   UNL     1      -0.850   7.417   3.667  0.00  0.00    +0.082 C 
ATOM      2  C   UNL     1      -2.216   7.786   4.252  0.00  0.00    +0.020 C 
ATOM      3  C   UNL     1      -1.536   8.716   3.248  0.00  0.00    -0.021 C 
ATOM      4  C   UNL     1      -2.121   8.791   1.833  0.00  0.00    -0.011 C 
ATOM      5  C   UNL     1      -1.075   9.418   0.905  0.00  0.00    -0.078 C 
ATOM      6  C   UNL     1       0.022  10.586   2.729  0.00  0.00    -0.078 C 
ATOM      7  C   UNL     1      -0.955  10.033   3.773  0.00  0.00    -0.011 C 
ATOM      8  N   UNL     1      -0.692  10.742   1.443  0.00  0.00    +0.382 N 
ATOM      9  H   UNL     1      -1.543  11.295   1.600  0.00  0.00    -0.081 HD
ENDROOT
BRANCH   1  11
ATOM     10  N   UNL     1       0.197   6.242   1.759  0.00  0.00    -0.312 N 
ATOM     11  C   UNL     1      -0.804   6.298   2.659  0.00  0.00    +0.217 C 
ATOM     12  O   UNL     1      -1.669   5.447   2.658  0.00  0.00    -0.275 OA
ATOM     13  H   UNL     1       0.889   6.922   1.760  0.00  0.00    +0.149 HD
BRANCH  10  19
ATOM     14  C   UNL     1       2.601   2.595  -1.404  0.00  0.00    +0.403 C 
ATOM     15  O   UNL     1       3.109   2.999  -2.431  0.00  0.00    -0.226 OA
ATOM     16  N   UNL     1       1.567   3.264  -0.856  0.00  0.00    -0.267 N 
ATOM     17  C   UNL     1       0.938   2.785   0.383  0.00  0.00    +0.113 C 
ATOM     18  C   UNL     1       0.928   3.935   1.401  0.00  0.00    +0.041 C 
ATOM     19  C   UNL     1       0.242   5.154   0.779  0.00  0.00    +0.076 C 
ATOM     20  C   UNL     1       1.027   5.609  -0.453  0.00  0.00    +0.041 C 
ATOM     21  C   UNL     1       1.042   4.481  -1.490  0.00  0.00    +0.113 C 
BRANCH  14  22
ATOM     22  O   UNL     1       3.071   1.481  -0.812  0.00  0.00    -0.451 OA
BRANCH  22  24
ATOM     23  C   UNL     1       4.580  -0.423  -0.647  0.00  0.00    +0.048 C 
ATOM     24  C   UNL     1       4.187   0.813  -1.458  0.00  0.00    +0.230 C 
ENDBRANCH  22  24
ENDBRANCH  14  22
ENDBRANCH  10  19
ENDBRANCH   1  11
BRANCH   8  25
ATOM     25  C   UNL     1       0.167  11.450   0.473  0.00  0.00    -0.067 C 
ATOM     26  C   UNL     1       1.330  10.560   0.030  0.00  0.00    -0.013 C 
BRANCH  25  27
ATOM     27  C   UNL     1      -0.678  11.829  -0.745  0.00  0.00    +0.020 C 
BRANCH  27  28
ATOM     28  C   UNL     1      -1.756  12.796  -0.328  0.00  0.00    -0.045 A 
ATOM     29  C   UNL     1      -1.512  14.156  -0.363  0.00  0.00    +0.007 A 
ATOM     30  C   UNL     1      -2.498  15.048   0.018  0.00  0.00    +0.049 A 
ATOM     31  C   UNL     1      -3.733  14.578   0.436  0.00  0.00    +0.158 A 
ATOM     32  C   UNL     1      -3.977  13.209   0.471  0.00  0.00    +0.162 A 
ATOM     33  C   UNL     1      -2.987  12.321   0.083  0.00  0.00    +0.053 A 
BRANCH  32  34
ATOM     34  O   UNL     1      -5.188  12.743   0.881  0.00  0.00    -0.491 OA
ATOM     35  C   UNL     1      -5.368  11.325   0.891  0.00  0.00    +0.277 C 
ENDBRANCH  32  34
BRANCH  31  36
ATOM     36  O   UNL     1      -4.704  15.454   0.811  0.00  0.00    -0.503 OA
ATOM     37  H   UNL     1      -5.278  15.738   0.086  0.00  0.00    +0.292 HD
ENDBRANCH  31  36
ENDBRANCH  27  28
ENDBRANCH  25  27
ENDBRANCH   8  25
TORSDOF 9
