REMARK  Name = ZINC05919944
REMARK  6 active torsions:
REMARK  status: ('A' for Active; 'I' for Inactive)
REMARK    1  A    between atoms: C_1  and  C_2
REMARK    2  A    between atoms: C_8  and  C_28
REMARK    3  A    between atoms: C_21  and  O_27
REMARK    4  A    between atoms: C_23  and  C_24
REMARK    5  A    between atoms: C_23  and  C_25
REMARK    6  A    between atoms: C_25  and  O_26
REMARK                            x       y       z     vdW  Elec       q    Type
REMARK                         _______ _______ _______ _____ _____    ______ ____
ROOT
ATOM      1  C   UNL     1       5.516   4.868  -1.962  0.00  0.00    +0.010 C 
ATOM      2  C   UNL     1       5.344   4.106  -0.657  0.00  0.00    +0.018 C 
ATOM      3  C   UNL     1       4.522   2.842  -0.833  0.00  0.00    +0.006 C 
ATOM      4  C   UNL     1       3.032   3.148  -0.952  0.00  0.00    +0.005 C 
ATOM      5  C   UNL     1       2.522   3.894   0.290  0.00  0.00    +0.008 C 
ATOM      6  C   UNL     1       3.289   5.206   0.411  0.00  0.00    +0.001 C 
ATOM      7  C   UNL     1       4.798   4.975   0.466  0.00  0.00    +0.078 C 
ATOM      8  C   UNL     1       5.191   4.280   1.794  0.00  0.00    +0.049 C 
ATOM      9  C   UNL     1       6.483   5.015   2.182  0.00  0.00    +0.041 C 
ATOM     10  C   UNL     1       7.732   4.321   1.643  0.00  0.00    +0.133 C 
ATOM     11  C   UNL     1       8.697   4.323   2.814  0.00  0.00    +0.308 C 
ATOM     12  O   UNL     1       9.791   3.810   2.815  0.00  0.00    -0.251 OA
ATOM     13  O   UNL     1       8.152   4.981   3.849  0.00  0.00    -0.464 OA
ATOM     14  C   UNL     1       6.698   5.035   3.696  0.00  0.00    +0.242 C 
ATOM     15  C   UNL     1       6.290   6.417   1.603  0.00  0.00    +0.171 C 
ATOM     16  O   UNL     1       5.463   6.249   0.440  0.00  0.00    -0.372 OA
ATOM     17  C   UNL     1       2.922   6.113  -0.768  0.00  0.00    +0.012 C 
ATOM     18  C   UNL     1       1.420   6.406  -0.739  0.00  0.00    +0.032 C 
ATOM     19  C   UNL     1       0.640   5.106  -0.892  0.00  0.00    +0.123 C 
ATOM     20  C   UNL     1       1.014   4.077   0.171  0.00  0.00    +0.020 C 
ATOM     21  C   UNL     1       0.358   4.438   1.508  0.00  0.00    +0.016 C 
ATOM     22  C   UNL     1       2.922   5.974   1.695  0.00  0.00    +0.014 C 
ENDROOT
BRANCH  19  23
ATOM     23  O   UNL     1      -0.763   5.386  -0.799  0.00  0.00    -0.391 OA
ATOM     24  H   UNL     1      -1.079   6.033  -1.445  0.00  0.00    +0.210 HD
ENDBRANCH  19  23
BRANCH  20  25
ATOM     25  C   UNL     1       0.363   2.738  -0.249  0.00  0.00    +0.165 C 
BRANCH  25  26
ATOM     26  O   UNL     1      -1.051   2.910  -0.361  0.00  0.00    -0.394 OA
ATOM     27  H   UNL     1      -1.525   2.108  -0.622  0.00  0.00    +0.209 HD
ENDBRANCH  25  26
ENDBRANCH  20  25
TORSDOF 3
