REMARK  Name = ZINC63694218
REMARK  8 active torsions:
REMARK  status: ('A' for Active; 'I' for Inactive)
REMARK    1  A    between atoms: C_1  and  O_2
REMARK    2  A    between atoms: O_2  and  C_3
REMARK    3  A    between atoms: C_9  and  C_12
REMARK    4  A    between atoms: C_12  and  C_13
REMARK    5  A    between atoms: C_13  and  N_14
REMARK    6  A    between atoms: C_15  and  C_17
REMARK    7  A    between atoms: C_20  and  N_23
REMARK    8  A    between atoms: C_24  and  C_26
REMARK                            x       y       z     vdW  Elec       q    Type
REMARK                         _______ _______ _______ _____ _____    ______ ____
ROOT
ATOM      1  C   UNL     1      -2.360  -8.573  -1.038  0.00  0.00    +0.037 A 
ATOM      2  C   UNL     1      -1.565  -9.046   0.010  0.00  0.00    +0.015 A 
ATOM      3  C   UNL     1      -1.974 -10.136   0.744  0.00  0.00    +0.024 A 
ATOM      4  C   UNL     1      -3.177 -10.768   0.444  0.00  0.00    +0.033 A 
ATOM      5  C   UNL     1      -3.971 -10.300  -0.599  0.00  0.00    +0.024 A 
ATOM      6  C   UNL     1      -3.571  -9.206  -1.333  0.00  0.00    +0.015 A 
ENDROOT
BRANCH   1   8
ATOM      7  N   UNL     1      -0.758  -6.795  -1.540  0.00  0.00    -0.311 N 
ATOM      8  C   UNL     1      -1.925  -7.404  -1.826  0.00  0.00    +0.244 C 
ATOM      9  O   UNL     1      -2.620  -6.991  -2.735  0.00  0.00    -0.270 OA
ATOM     10  H   UNL     1      -0.203  -7.125  -0.816  0.00  0.00    +0.149 HD
BRANCH   7  11
ATOM     11  C   UNL     1      -0.326  -5.634  -2.323  0.00  0.00    +0.109 C 
BRANCH  11  12
ATOM     12  C   UNL     1       1.022  -5.137  -1.797  0.00  0.00    +0.052 C 
BRANCH  12  19
ATOM     13  C   UNL     1       0.582  -0.614  -1.131  0.00  0.00    +0.121 A 
ATOM     14  C   UNL     1       1.149   0.182  -2.142  0.00  0.00    +0.047 A 
ATOM     15  C   UNL     1       1.772  -0.344  -3.219  0.00  0.00    +0.029 A 
ATOM     16  C   UNL     1       1.872  -1.800  -3.361  0.00  0.00    +0.043 A 
ATOM     17  N   UNL     1       2.410  -2.554  -4.287  0.00  0.00    -0.380 N 
ATOM     18  C   UNL     1       2.216  -3.961  -3.916  0.00  0.00    +0.144 C 
ATOM     19  C   UNL     1       1.466  -3.943  -2.603  0.00  0.00    -0.040 C 
ATOM     20  C   UNL     1       1.275  -2.640  -2.297  0.00  0.00    +0.002 A 
ATOM     21  C   UNL     1       0.626  -1.967  -1.167  0.00  0.00    +0.055 A 
ATOM     22  H   UNL     1       2.861  -2.237  -5.085  0.00  0.00    +0.160 HD
BRANCH  13  24
ATOM     23  C   UNL     1      -0.050   1.425  -0.084  0.00  0.00    +0.277 C 
ATOM     24  O   UNL     1      -0.027  -0.004  -0.080  0.00  0.00    -0.495 OA
ENDBRANCH  13  24
ENDBRANCH  12  19
ENDBRANCH  11  12
ENDBRANCH   7  11
ENDBRANCH   1   8
BRANCH   4  25
ATOM     25  N   UNL     1      -3.588 -11.873   1.189  0.00  0.00    -0.284 N 
ATOM     26  C   UNL     1      -4.897 -12.064   1.445  0.00  0.00    +0.240 C 
ATOM     27  O   UNL     1      -5.725 -11.322   0.959  0.00  0.00    -0.273 OA
ATOM     28  H   UNL     1      -2.932 -12.504   1.523  0.00  0.00    +0.155 HD
BRANCH  26  29
ATOM     29  C   UNL     1      -5.333 -13.198   2.336  0.00  0.00    +0.182 C 
ATOM     30  C   UNL     1      -5.279 -14.482   1.549  0.00  0.00    -0.006 A 
ATOM     31  C   UNL     1      -4.161 -15.264   1.261  0.00  0.00    +0.007 A 
ATOM     32  C   UNL     1      -4.274 -16.412   0.508  0.00  0.00    +0.000 A 
ATOM     33  C   UNL     1      -5.502 -16.821   0.018  0.00  0.00    +0.001 A 
ATOM     34  C   UNL     1      -6.626 -16.066   0.298  0.00  0.00    +0.016 A 
ATOM     35  C   UNL     1      -6.509 -14.920   1.058  0.00  0.00    +0.028 A 
ATOM     36  S   UNL     1      -7.700 -13.739   1.644  0.00  0.00    -0.043 S 
ATOM     37  N   UNL     1      -6.688 -12.903   2.857  0.00  0.00    -0.243 NA
ATOM     38  H   UNL     1      -6.868 -11.910   2.854  0.00  0.00    +0.137 HD
ENDBRANCH  26  29
ENDBRANCH   4  25
TORSDOF 7
