REMARK  Name = ZINC20547956
REMARK  4 active torsions:
REMARK  status: ('A' for Active; 'I' for Inactive)
REMARK    1  A    between atoms: C_4  and  O_31
REMARK    2  A    between atoms: C_5  and  C_7
REMARK    3  A    between atoms: CA_13  and  C_16
REMARK    4  A    between atoms: N_21  and  C_24
REMARK                            x       y       z     vdW  Elec       q    Type
REMARK                         _______ _______ _______ _____ _____    ______ ____
ROOT
ATOM      1  C   UNL     1      -2.552   3.880   0.046  0.00  0.00    -0.024 C 
ATOM      2  C   UNL     1      -3.009   4.093   1.443  0.00  0.00    +0.077 C 
ATOM      3  C   UNL     1      -2.211   5.401   1.828  0.00  0.00    +0.083 C 
ATOM      4  CA  UNL     1      -2.579   6.231   0.622  0.00  0.00    +0.057 C 
ATOM      5  N   UNL     1      -2.380   5.263  -0.509  0.00  0.00    +0.394 N 
ATOM      6  C   UNL     1      -2.743   5.557   3.200  0.00  0.00    +0.229 C 
ATOM      7  O   UNL     1      -2.995   6.593   3.778  0.00  0.00    -0.275 OA
ATOM      8  N   UNL     1      -2.890   4.282   3.679  0.00  0.00    -0.210 N 
ATOM      9  C   UNL     1      -2.847   3.338   2.683  0.00  0.00    +0.229 C 
ATOM     10  O   UNL     1      -2.706   2.140   2.806  0.00  0.00    -0.275 OA
ATOM     11  H1  UNL     1      -1.369   5.366  -0.930  0.00  0.00    -0.084 HD
ATOM     12  H2  UNL     1      -3.126   5.435  -1.299  0.00  0.00    -0.084 HD
ENDROOT
BRANCH   8  13
ATOM     13  C   UNL     1      -3.066   3.974   5.035  0.00  0.00    +0.047 A 
ATOM     14  C   UNL     1      -3.098   4.992   5.980  0.00  0.00    +0.024 A 
ATOM     15  C   UNL     1      -3.271   4.688   7.316  0.00  0.00    +0.005 A 
ATOM     16  C   UNL     1      -3.413   3.371   7.715  0.00  0.00    +0.038 A 
ATOM     17  C   UNL     1      -3.381   2.354   6.776  0.00  0.00    +0.125 A 
ATOM     18  C   UNL     1      -3.213   2.654   5.436  0.00  0.00    +0.062 A 
ATOM     19  F   UNL     1      -3.520   1.068   7.168  0.00  0.00    -0.205 F 
ENDBRANCH   8  13
BRANCH   1  24
ATOM     20  C   UNL     1       1.156   3.166   0.008  0.00  0.00    +0.000 A 
ATOM     21  C   UNL     1       1.174   1.783   0.000  0.00  0.00    +0.004 A 
ATOM     22  C   UNL     1      -0.013   1.076   0.008  0.00  0.00    +0.045 A 
ATOM     23  C   UNL     1      -1.223   1.754   0.017  0.00  0.00    +0.118 A 
ATOM     24  C   UNL     1      -1.239   3.141   0.030  0.00  0.00    -0.019 A 
ATOM     25  C   UNL     1      -0.049   3.844   0.023  0.00  0.00    +0.005 A 
BRANCH  23  26
ATOM     26  O   UNL     1      -2.392   1.060   0.019  0.00  0.00    -0.507 OA
ATOM     27  H   UNL     1      -3.351   1.598   0.027  0.00  0.00    +0.292 HD
ENDBRANCH  23  26
ENDBRANCH   1  24
BRANCH   4  28
ATOM     28  C   UNL     1      -4.016   6.681   0.695  0.00  0.00    +0.343 C 
ATOM     29  O   UNL     1      -4.879   6.037   0.148  0.00  0.00    -0.248 OA
ATOM     30  OXT UNL     1      -4.336   7.798   1.368  0.00  0.00    -0.248 OA
ENDBRANCH   4  28
TORSDOF 4
