REMARK  Name = ZINC59293214
REMARK  18 active torsions:
REMARK  status: ('A' for Active; 'I' for Inactive)
REMARK    1  A    between atoms: C_1  and  C_2
REMARK    2  A    between atoms: C_2  and  C_3
REMARK    3  A    between atoms: C_3  and  C_4
REMARK    4  A    between atoms: C_4  and  O_5
REMARK    5  A    between atoms: O_5  and  C_6
REMARK    6  A    between atoms: C_6  and  C_8
REMARK    7  A    between atoms: C_9  and  N_37
REMARK    8  A    between atoms: C_13  and  C_36
REMARK    9  A    between atoms: C_17  and  C_32
REMARK   10  A    between atoms: C_18  and  C_20
REMARK   11  A    between atoms: C_22  and  O_30
REMARK   12  A    between atoms: C_23  and  O_28
REMARK   13  A    between atoms: C_24  and  O_26
REMARK   14  A    between atoms: O_26  and  C_27
REMARK   15  A    between atoms: O_28  and  C_29
REMARK   16  A    between atoms: O_30  and  C_31
REMARK   17  A    between atoms: C_32  and  O_34
REMARK   18  A    between atoms: O_34  and  C_35
REMARK                            x       y       z     vdW  Elec       q    Type
REMARK                         _______ _______ _______ _____ _____    ______ ____
ROOT
ATOM      1  C   UNL     1       2.159  -4.384   3.690  0.00  0.00    +0.084 C 
ATOM      2  C   UNL     1       2.231  -5.735   3.811  0.00  0.00    +0.106 C 
ATOM      3  N   UNL     1       2.905  -6.288   4.911  0.00  0.00    -0.220 N 
ATOM      4  C   UNL     1       3.320  -7.556   4.954  0.00  0.00    +0.239 C 
ATOM      5  O   UNL     1       3.183  -8.303   4.009  0.00  0.00    -0.274 OA
ATOM      6  C   UNL     1       3.976  -8.016   6.247  0.00  0.00    +0.136 C 
ATOM      7  S   UNL     1       3.658  -6.537   7.303  0.00  0.00    -0.096 S 
ATOM      8  C   UNL     1       3.175  -5.446   5.992  0.00  0.00    +0.088 C 
ATOM      9  C   UNL     1       3.100  -4.097   5.967  0.00  0.00    +0.077 C 
ATOM     10  C   UNL     1       2.829  -3.429   4.635  0.00  0.00    +0.099 C 
ATOM     11  C   UNL     1       5.475  -8.254   6.057  0.00  0.00    +0.029 C 
ENDROOT
BRANCH  10  12
ATOM     12  C   UNL     1       4.130  -2.965   4.033  0.00  0.00    -0.028 A 
ATOM     13  C   UNL     1       5.112  -3.886   3.722  0.00  0.00    +0.054 A 
ATOM     14  C   UNL     1       6.311  -3.463   3.168  0.00  0.00    +0.165 A 
ATOM     15  C   UNL     1       6.524  -2.111   2.925  0.00  0.00    +0.204 A 
ATOM     16  C   UNL     1       5.533  -1.189   3.238  0.00  0.00    +0.165 A 
ATOM     17  C   UNL     1       4.335  -1.620   3.787  0.00  0.00    +0.054 A 
BRANCH  16  18
ATOM     18  O   UNL     1       5.736   0.135   3.002  0.00  0.00    -0.491 OA
ATOM     19  C   UNL     1       4.674   1.026   3.349  0.00  0.00    +0.277 C 
ENDBRANCH  16  18
BRANCH  15  20
ATOM     20  O   UNL     1       7.699  -1.692   2.382  0.00  0.00    -0.488 OA
ATOM     21  C   UNL     1       7.767  -1.625   0.956  0.00  0.00    +0.277 C 
ENDBRANCH  15  20
BRANCH  14  22
ATOM     22  O   UNL     1       7.278  -4.370   2.863  0.00  0.00    -0.491 OA
ATOM     23  C   UNL     1       6.991  -5.742   3.140  0.00  0.00    +0.277 C 
ENDBRANCH  14  22
ENDBRANCH  10  12
BRANCH   2  24
ATOM     24  N   UNL     1       1.653  -6.548   2.871  0.00  0.00    -0.345 N 
ATOM     25  H   UNL     1       1.303  -6.167   2.050  0.00  0.00    +0.143 HD
ATOM     26  H   UNL     1       1.594  -7.503   3.026  0.00  0.00    +0.143 HD
ENDBRANCH   2  24
BRANCH   1  27
ATOM     27  C   UNL     1       1.424  -3.852   2.620  0.00  0.00    +0.339 C 
ATOM     28  O   UNL     1       0.295  -3.432   2.805  0.00  0.00    -0.245 OA
BRANCH  27  29
ATOM     29  O   UNL     1       1.968  -3.804   1.384  0.00  0.00    -0.461 OA
BRANCH  29  30
ATOM     30  C   UNL     1       1.162  -3.250   0.342  0.00  0.00    +0.232 C 
BRANCH  30  31
ATOM     31  C   UNL     1       1.941  -3.280  -0.975  0.00  0.00    +0.041 C 
BRANCH  31  33
ATOM     32  C   UNL     1       1.857  -2.717  -3.408  0.00  0.00    +0.004 C 
ATOM     33  C   UNL     1       1.079  -2.687  -2.091  0.00  0.00    -0.000 C 
ENDBRANCH  31  33
ENDBRANCH  30  31
ENDBRANCH  29  30
ENDBRANCH  27  29
ENDBRANCH   1  27
BRANCH   9  34
ATOM     34  C   UNL     1       3.273  -3.341   7.136  0.00  0.00    +0.338 C 
ATOM     35  O   UNL     1       3.494  -3.900   8.195  0.00  0.00    -0.245 OA
BRANCH  34  36
ATOM     36  O   UNL     1       3.193  -1.993   7.086  0.00  0.00    -0.465 OA
ATOM     37  C   UNL     1       3.379  -1.287   8.314  0.00  0.00    +0.280 C 
ENDBRANCH  34  36
ENDBRANCH   9  34
TORSDOF 12
