REMARK  Name = ZINC64683453
REMARK  6 active torsions:
REMARK  status: ('A' for Active; 'I' for Inactive)
REMARK    1  A    between atoms: C_10  and  C_12
REMARK    2  A    between atoms: C_12  and  N_13
REMARK    3  A    between atoms: N_16  and  CA_17
REMARK    4  A    between atoms: CA_17  and  CB_19
REMARK    5  A    between atoms: CA_17  and  C_29
REMARK    6  A    between atoms: CB_19  and  CG_20
REMARK                            x       y       z     vdW  Elec       q    Type
REMARK                         _______ _______ _______ _____ _____    ______ ____
ROOT
ATOM      1  N   UNK A   0       6.593   1.166  -0.059  0.00  0.00    -0.291 N 
ATOM      2  C   UNK A   0       7.136   2.400  -0.058  0.00  0.00    +0.301 C 
ATOM      3  O   UNK A   0       6.416   3.380  -0.045  0.00  0.00    -0.253 OA
ATOM      4  N   TRP A   1       8.475   2.547  -0.071  0.00  0.00    -0.286 N 
ATOM      5  H   UNK A   0       7.167   0.384  -0.069  0.00  0.00    +0.151 HD
ATOM      6  H   TRP A   1       9.049   1.765  -0.082  0.00  0.00    +0.151 HD
ENDROOT
BRANCH   1   7
ATOM      7  C   UNK A   0       5.137   1.006  -0.045  0.00  0.00    +0.202 C 
BRANCH   7  17
ATOM      8  C   UNK A   0      -0.017   1.378   0.010  0.00  0.00    +0.000 A 
ATOM      9  C   UNK A   0       1.174   2.082   0.002  0.00  0.00    +0.002 A 
ATOM     10  C   UNK A   0       2.377   1.410  -0.013  0.00  0.00    +0.024 A 
ATOM     11  C   UNK A   0       2.404   0.014  -0.022  0.00  0.00    +0.040 A 
ATOM     12  C   UNK A   0       1.206  -0.682  -0.014  0.00  0.00    -0.024 A 
ATOM     13  C   UNK A   0       0.002  -0.004   0.002  0.00  0.00    +0.005 A 
ATOM     14  C   UNK A   0       1.510  -2.163  -0.025  0.00  0.00    +0.056 C 
ATOM     15  C   UNK A   0       3.046  -2.243  -0.040  0.00  0.00    +0.118 C 
ATOM     16  N   UNK A   0       3.503  -0.851  -0.037  0.00  0.00    -0.270 N 
ATOM     17  C   UNK A   0       4.793  -0.461  -0.049  0.00  0.00    +0.237 C 
ATOM     18  O   UNK A   0       5.677  -1.291  -0.062  0.00  0.00    -0.274 OA
ENDBRANCH   7  17
ENDBRANCH   1   7
BRANCH   4  19
ATOM     19  CA  TRP A   1       9.065   3.888  -0.070  0.00  0.00    +0.191 C 
BRANCH  19  20
ATOM     20  C   TRP A   1       9.139   4.405  -1.484  0.00  0.00    +0.376 C 
ATOM     21  O   TRP A   1       8.736   3.717  -2.407  0.00  0.00    -0.244 OA
ATOM     22  OXT TRP A   1       9.601   5.512  -1.705  0.00  0.00    -0.244 OA
ENDBRANCH  19  20
BRANCH  19  23
ATOM     23  CB  TRP A   1      10.473   3.826   0.524  0.00  0.00    +0.067 C 
BRANCH  23  24
ATOM     24  CG  TRP A   1      10.389   3.426   1.975  0.00  0.00    -0.039 C 
ATOM     25  CD2 TRP A   1      10.515   2.180   2.484  0.00  0.00    -0.001 A 
ATOM     26  CE3 TRP A   1      10.759   0.872   1.863  0.00  0.00    +0.010 A 
ATOM     27  CZ3 TRP A   1      10.836  -0.224   2.651  0.00  0.00    +0.001 A 
ATOM     28  CH2 TRP A   1      10.690  -0.143   4.042  0.00  0.00    +0.002 A 
ATOM     29  CZ2 TRP A   1      10.464   1.022   4.686  0.00  0.00    +0.026 A 
ATOM     30  CE2 TRP A   1      10.365   2.238   3.955  0.00  0.00    +0.043 A 
ATOM     31  NE1 TRP A   1      10.153   3.473   4.341  0.00  0.00    -0.380 N 
ATOM     32  CD1 TRP A   1      10.152   4.339   3.157  0.00  0.00    +0.144 C 
ATOM     33  HE1 TRP A   1      10.024   3.766   5.257  0.00  0.00    +0.160 HD
ENDBRANCH  23  24
ENDBRANCH  19  23
ENDBRANCH   4  19
TORSDOF 6
