REMARK  Name = ZINC12003481
REMARK  5 active torsions:
REMARK  status: ('A' for Active; 'I' for Inactive)
REMARK    1  A    between atoms: C_1  and  C_2
REMARK    2  A    between atoms: C_2  and  O_3
REMARK    3  A    between atoms: O_3  and  C_4
REMARK    4  A    between atoms: C_11  and  N_57
REMARK    5  A    between atoms: C_18  and  C_20
REMARK                            x       y       z     vdW  Elec       q    Type
REMARK                         _______ _______ _______ _____ _____    ______ ____
ROOT
ATOM      1  C   UNL     1       0.412  -6.952  -0.915  0.00  0.00    -0.051 C 
ATOM      2  C   UNL     1      -0.985  -6.340  -0.788  0.00  0.00    -0.012 C 
ATOM      3  C   UNL     1      -0.902  -4.826  -0.997  0.00  0.00    +0.017 C 
ATOM      4  C   UNL     1      -0.006  -4.214   0.090  0.00  0.00    +0.108 C 
ATOM      5  N   UNL     1       1.294  -4.899   0.065  0.00  0.00    -0.299 N 
ATOM      6  C   UNL     1       1.323  -6.364   0.167  0.00  0.00    +0.093 C 
ATOM      7  C   UNL     1       2.439  -4.195  -0.045  0.00  0.00    +0.253 C 
ATOM      8  O   UNL     1       3.502  -4.777  -0.155  0.00  0.00    -0.270 OA
ENDROOT
BRANCH   7   9
ATOM      9  C   UNL     1       2.403  -2.728  -0.032  0.00  0.00    +0.120 A 
ATOM     10  C   UNL     1       2.193  -2.027   1.163  0.00  0.00    +0.131 A 
ATOM     11  N   UNL     1       2.165  -0.711   1.153  0.00  0.00    -0.237 NA
ATOM     12  C   UNL     1       2.331  -0.013   0.026  0.00  0.00    +0.140 A 
ATOM     13  C   UNL     1       2.292   1.390   0.075  0.00  0.00    +0.047 A 
ATOM     14  C   UNL     1       2.462   2.108  -1.072  0.00  0.00    +0.005 A 
ATOM     15  C   UNL     1       2.674   1.436  -2.282  0.00  0.00    +0.018 A 
ATOM     16  C   UNL     1       2.709   0.083  -2.309  0.00  0.00    +0.096 A 
ATOM     17  N   UNL     1       2.540  -0.641  -1.169  0.00  0.00    -0.268 N 
ATOM     18  C   UNL     1       2.580  -1.990  -1.227  0.00  0.00    +0.271 A 
ATOM     19  O   UNL     1       2.765  -2.560  -2.288  0.00  0.00    -0.266 OA
ENDBRANCH   7   9
BRANCH   1  27
ATOM     20  C   UNL     1       1.307 -11.922   1.068  0.00  0.00    +0.403 C 
ATOM     21  O   UNL     1       2.337 -12.482   0.750  0.00  0.00    -0.226 OA
ATOM     22  N   UNL     1       0.794 -10.957   0.280  0.00  0.00    -0.271 N 
ATOM     23  C   UNL     1       1.464 -10.566  -0.969  0.00  0.00    +0.092 C 
ATOM     24  C   UNL     1       1.632  -9.043  -0.975  0.00  0.00    -0.059 C 
ATOM     25  C   UNL     1      -0.209  -8.754   0.577  0.00  0.00    -0.059 C 
ATOM     26  C   UNL     1      -0.452 -10.266   0.647  0.00  0.00    +0.092 C 
ATOM     27  N   UNL     1       0.307  -8.418  -0.767  0.00  0.00    +0.385 N 
ATOM     28  H   UNL     1      -0.345  -8.779  -1.474  0.00  0.00    -0.081 HD
BRANCH  20  29
ATOM     29  O   UNL     1       0.678 -12.266   2.208  0.00  0.00    -0.451 OA
BRANCH  29  31
ATOM     30  C   UNL     1       0.438 -13.565   4.254  0.00  0.00    +0.048 C 
ATOM     31  C   UNL     1       1.289 -13.314   3.007  0.00  0.00    +0.230 C 
ENDBRANCH  29  31
ENDBRANCH  20  29
ENDBRANCH   1  27
TORSDOF 4
