REMARK  Name = ZINC45820598
REMARK  10 active torsions:
REMARK  status: ('A' for Active; 'I' for Inactive)
REMARK    1  A    between atoms: C_1  and  C_2
REMARK    2  A    between atoms: C_2  and  C_30
REMARK    3  A    between atoms: N_5  and  C_9
REMARK    4  A    between atoms: C_9  and  C_10
REMARK    5  A    between atoms: N_12  and  C_13
REMARK    6  A    between atoms: C_13  and  C_14
REMARK    7  A    between atoms: C_14  and  C_16
REMARK    8  A    between atoms: C_14  and  N_24
REMARK    9  A    between atoms: C_19  and  O_22
REMARK   10  A    between atoms: O_22  and  C_23
REMARK                            x       y       z     vdW  Elec       q    Type
REMARK                         _______ _______ _______ _____ _____    ______ ____
ROOT
ATOM      1  C   UNL     1      -2.687  -4.997  -1.113  0.00  0.00    +0.231 C 
ATOM      2  O   UNL     1      -1.823  -4.358  -0.550  0.00  0.00    -0.274 OA
ATOM      3  N   UNL     1      -3.637  -5.626  -0.394  0.00  0.00    -0.315 N 
ATOM      4  H   UNL     1      -4.327  -6.137  -0.844  0.00  0.00    +0.149 HD
ENDROOT
BRANCH   1   5
ATOM      5  C   UNL     1      -2.698  -5.086  -2.618  0.00  0.00    +0.213 C 
BRANCH   5  10
ATOM      6  C   UNL     1       0.962  -4.020  -5.362  0.00  0.00    +0.047 C 
ATOM      7  C   UNL     1       0.480  -3.697  -3.946  0.00  0.00    +0.135 C 
ATOM      8  C   UNL     1      -0.348  -4.839  -3.391  0.00  0.00    +0.251 C 
ATOM      9  O   UNL     1       0.015  -5.979  -3.195  0.00  0.00    -0.272 OA
ATOM     10  N   UNL     1      -1.572  -4.323  -3.160  0.00  0.00    -0.215 N 
ATOM     11  C   UNL     1      -1.631  -3.027  -3.489  0.00  0.00    +0.310 C 
ATOM     12  O   UNL     1      -2.630  -2.345  -3.370  0.00  0.00    -0.252 OA
ATOM     13  N   UNL     1      -0.461  -2.564  -3.966  0.00  0.00    -0.281 N 
ATOM     14  H   UNL     1      -0.274  -1.660  -4.263  0.00  0.00    +0.152 HD
BRANCH   7  15
ATOM     15  C   UNL     1       1.650  -3.399  -3.044  0.00  0.00    -0.015 A 
ATOM     16  C   UNL     1       2.253  -4.421  -2.335  0.00  0.00    +0.009 A 
ATOM     17  C   UNL     1       3.326  -4.149  -1.508  0.00  0.00    +0.039 A 
ATOM     18  C   UNL     1       3.798  -2.853  -1.390  0.00  0.00    +0.123 A 
ATOM     19  C   UNL     1       3.193  -1.830  -2.101  0.00  0.00    +0.039 A 
ATOM     20  C   UNL     1       2.123  -2.105  -2.932  0.00  0.00    +0.009 A 
ATOM     21  F   UNL     1       4.847  -2.586  -0.581  0.00  0.00    -0.205 F 
ENDBRANCH   7  15
ENDBRANCH   5  10
ENDBRANCH   1   5
BRANCH   3  22
ATOM     22  C   UNL     1      -3.626  -5.539   1.069  0.00  0.00    +0.093 C 
BRANCH  22  23
ATOM     23  C   UNL     1      -4.865  -6.239   1.630  0.00  0.00    -0.020 C 
BRANCH  23  24
ATOM     24  N   UNL     1      -4.904  -6.070   3.089  0.00  0.00    +0.385 N 
ATOM     25  C   UNL     1      -6.062  -6.790   3.633  0.00  0.00    -0.078 C 
ATOM     26  C   UNL     1      -6.063  -6.684   5.159  0.00  0.00    -0.019 C 
ATOM     27  C   UNL     1      -6.141  -5.209   5.563  0.00  0.00    -0.004 C 
ATOM     28  C   UNL     1      -4.969  -4.453   4.929  0.00  0.00    -0.019 C 
ATOM     29  C   UNL     1      -5.009  -4.642   3.411  0.00  0.00    -0.078 C 
ATOM     30  H   UNL     1      -4.059  -6.444   3.493  0.00  0.00    -0.081 HD
ENDBRANCH  23  24
BRANCH  23  31
ATOM     31  C   UNL     1      -4.807  -7.708   1.297  0.00  0.00    -0.059 A 
ATOM     32  C   UNL     1      -4.028  -8.559   2.060  0.00  0.00    +0.005 A 
ATOM     33  C   UNL     1      -3.973  -9.905   1.756  0.00  0.00    +0.046 A 
ATOM     34  C   UNL     1      -4.699 -10.403   0.684  0.00  0.00    +0.120 A 
ATOM     35  C   UNL     1      -5.480  -9.548  -0.080  0.00  0.00    +0.046 A 
ATOM     36  C   UNL     1      -5.536  -8.203   0.232  0.00  0.00    +0.005 A 
BRANCH  34  37
ATOM     37  O   UNL     1      -4.646 -11.727   0.383  0.00  0.00    -0.495 OA
ATOM     38  C   UNL     1      -5.419 -12.170  -0.734  0.00  0.00    +0.277 C 
ENDBRANCH  34  37
ENDBRANCH  23  31
ENDBRANCH  22  23
ENDBRANCH   3  22
TORSDOF 8
