REMARK  Name = ZINC33362284
REMARK  5 active torsions:
REMARK  status: ('A' for Active; 'I' for Inactive)
REMARK    1  A    between atoms: C_4  and  C_7
REMARK    2  A    between atoms: C_7  and  O_8
REMARK    3  A    between atoms: O_8  and  C_9
REMARK    4  A    between atoms: C_10  and  C_17
REMARK    5  A    between atoms: N_18  and  N_19
REMARK                            x       y       z     vdW  Elec       q    Type
REMARK                         _______ _______ _______ _____ _____    ______ ____
ROOT
ATOM      1  C   UNL     1       5.439  -1.396   1.412  0.00  0.00    +0.144 A 
ATOM      2  C   UNL     1       5.585  -2.788   1.464  0.00  0.00    +0.039 A 
ATOM      3  C   UNL     1       6.856  -3.344   1.625  0.00  0.00    +0.028 A 
ATOM      4  C   UNL     1       7.959  -2.521   1.732  0.00  0.00    +0.020 A 
ATOM      5  C   UNL     1       7.810  -1.145   1.680  0.00  0.00    +0.034 A 
ATOM      6  C   UNL     1       6.557  -0.583   1.515  0.00  0.00    +0.061 A 
ATOM      7 BR   UNL     1       6.368   1.297   1.437  0.00  0.00    -0.046 Br
ATOM      8 BR   UNL     1       9.679  -3.275   1.951  0.00  0.00    -0.050 Br
ENDROOT
BRANCH   2   9
ATOM      9  C   UNL     1       4.403  -3.662   1.350  0.00  0.00    +0.144 C 
ATOM     10  N   UNL     1       4.552  -4.950   1.292  0.00  0.00    -0.179 NA
BRANCH  10  11
ATOM     11  N   UNL     1       3.439  -5.774   1.077  0.00  0.00    -0.249 N 
ATOM     12  C   UNL     1       3.578  -7.136   1.119  0.00  0.00    +0.187 C 
ATOM     13  N   UNL     1       2.546  -7.921   0.811  0.00  0.00    -0.370 N 
ATOM     14  N   UNL     1       4.745  -7.677   1.466  0.00  0.00    -0.370 N 
ATOM     15  H   UNL     1       2.571  -5.380   0.900  0.00  0.00    +0.192 HD
ATOM     16  H   UNL     1       1.696  -7.527   0.558  0.00  0.00    +0.159 HD
ATOM     17  H   UNL     1       5.474  -7.109   1.763  0.00  0.00    +0.159 HD
ATOM     18  H   UNL     1       4.867  -8.638   1.423  0.00  0.00    +0.159 HD
ATOM     19  H   UNL     1       2.644  -8.885   0.841  0.00  0.00    +0.159 HD
ENDBRANCH  10  11
ENDBRANCH   2   9
BRANCH   1  20
ATOM     20  O   UNL     1       4.207  -0.844   1.255  0.00  0.00    -0.486 OA
BRANCH  20  21
ATOM     21  C   UNL     1       3.728  -0.697  -0.083  0.00  0.00    +0.264 C 
BRANCH  21  25
ATOM     22  C   UNL     1      -0.005   1.379  -0.039  0.00  0.00    +0.000 A 
ATOM     23  C   UNL     1       1.181   2.089  -0.037  0.00  0.00    +0.000 A 
ATOM     24  C   UNL     1       2.389   1.417  -0.051  0.00  0.00    +0.007 A 
ATOM     25  C   UNL     1       2.411   0.035  -0.067  0.00  0.00    -0.010 A 
ATOM     26  C   UNL     1       1.225  -0.675  -0.067  0.00  0.00    +0.007 A 
ATOM     27  C   UNL     1       0.017  -0.003  -0.055  0.00  0.00    +0.000 A 
ENDBRANCH  21  25
ENDBRANCH  20  21
ENDBRANCH   1  20
TORSDOF 5
