REMARK  Name = ZINC64956153
REMARK  8 active torsions:
REMARK  status: ('A' for Active; 'I' for Inactive)
REMARK    1  A    between atoms: C_1  and  C_2
REMARK    2  A    between atoms: C_2  and  C_3
REMARK    3  A    between atoms: C_6  and  C_9
REMARK    4  A    between atoms: N_17  and  C_21
REMARK    5  A    between atoms: C_21  and  C_22
REMARK    6  A    between atoms: N_24  and  C_25
REMARK    7  A    between atoms: C_29  and  C_32
REMARK    8  A    between atoms: C_30  and  C_31
REMARK                            x       y       z     vdW  Elec       q    Type
REMARK                         _______ _______ _______ _____ _____    ______ ____
ROOT
ATOM      1  C   UNL     1       2.216  -1.805  -4.831  0.00  0.00    +0.044 C 
ATOM      2  N   UNL     1       3.584  -1.794  -4.660  0.00  0.00    -0.312 N 
ATOM      3  C   UNL     1       4.577  -2.166  -5.580  0.00  0.00    +0.053 A 
ATOM      4  C   UNL     1       5.848  -2.022  -5.051  0.00  0.00    +0.025 A 
ATOM      5  C   UNL     1       6.955  -2.342  -5.818  0.00  0.00    +0.002 A 
ATOM      6  C   UNL     1       6.795  -2.805  -7.111  0.00  0.00    +0.002 A 
ATOM      7  C   UNL     1       5.527  -2.951  -7.646  0.00  0.00    +0.025 A 
ATOM      8  C   UNL     1       4.415  -2.632  -6.884  0.00  0.00    +0.058 A 
ATOM      9  N   UNL     1       3.220  -2.843  -7.593  0.00  0.00    -0.257 N 
ATOM     10  C   UNL     1       1.954  -2.643  -7.176  0.00  0.00    +0.246 C 
ATOM     11  O   UNL     1       1.086  -2.904  -7.989  0.00  0.00    -0.270 OA
ATOM     12  C   UNL     1       1.497  -2.180  -5.926  0.00  0.00    +0.091 C 
ATOM     13  H   UNL     1       3.901  -1.492  -3.794  0.00  0.00    +0.152 HD
ENDROOT
BRANCH   1  17
ATOM     14  C   UNL     1      -0.064  -0.509  -1.491  0.00  0.00    -0.048 A 
ATOM     15  C   UNL     1      -0.398  -1.686  -2.138  0.00  0.00    +0.004 A 
ATOM     16  C   UNL     1       0.338  -2.113  -3.224  0.00  0.00    +0.010 A 
ATOM     17  C   UNL     1       1.423  -1.354  -3.670  0.00  0.00    -0.004 A 
ATOM     18  C   UNL     1       1.754  -0.167  -3.012  0.00  0.00    +0.010 A 
ATOM     19  C   UNL     1       1.006   0.250  -1.931  0.00  0.00    +0.004 A 
BRANCH  14  21
ATOM     20  C   UNL     1      -2.026   0.833  -0.787  0.00  0.00    +0.009 C 
ATOM     21  C   UNL     1      -0.873  -0.050  -0.306  0.00  0.00    +0.032 C 
ENDBRANCH  14  21
ENDBRANCH   1  17
BRANCH   9  22
ATOM     22  C   UNL     1       3.370  -3.343  -8.961  0.00  0.00    +0.210 C 
BRANCH  22  23
ATOM     23  C   UNL     1       3.650  -2.190  -9.890  0.00  0.00    +0.235 C 
ATOM     24  O   UNL     1       3.719  -1.061  -9.452  0.00  0.00    -0.274 OA
ATOM     25  N   UNL     1       3.825  -2.413 -11.208  0.00  0.00    -0.284 N 
ATOM     26  H   UNL     1       3.717  -3.308 -11.567  0.00  0.00    +0.155 HD
BRANCH  25  27
ATOM     27  C   UNL     1       4.164  -1.354 -12.058  0.00  0.00    +0.037 A 
ATOM     28  C   UNL     1       3.741  -0.064 -11.765  0.00  0.00    +0.023 A 
ATOM     29  C   UNL     1       4.076   0.978 -12.606  0.00  0.00    +0.002 A 
ATOM     30  C   UNL     1       4.832   0.739 -13.739  0.00  0.00    +0.004 A 
ATOM     31  C   UNL     1       5.255  -0.544 -14.033  0.00  0.00    -0.046 A 
ATOM     32  C   UNL     1       4.928  -1.590 -13.193  0.00  0.00    -0.026 A 
ATOM     33  C   UNL     1       5.395  -2.987 -13.511  0.00  0.00    +0.046 C 
ATOM     34  C   UNL     1       6.078  -0.800 -15.269  0.00  0.00    +0.044 C 
ENDBRANCH  25  27
ENDBRANCH  22  23
ENDBRANCH   9  22
TORSDOF 5
