REMARK  Name = ZINC01084345
REMARK  7 active torsions:
REMARK  status: ('A' for Active; 'I' for Inactive)
REMARK    1  A    between atoms: C_1  and  C_2
REMARK    2  A    between atoms: C_7  and  N_22
REMARK    3  A    between atoms: C_8  and  C_13
REMARK    4  A    between atoms: N_14  and  C_15
REMARK    5  A    between atoms: C_15  and  C_16
REMARK    6  A    between atoms: N_22  and  C_23
REMARK    7  A    between atoms: C_23  and  C_24
REMARK                            x       y       z     vdW  Elec       q    Type
REMARK                         _______ _______ _______ _____ _____    ______ ____
ROOT
ATOM      1  C   UNL     1       5.943  -0.541   1.665  0.00  0.00    +0.045 C 
ATOM      2  C   UNL     1       5.218  -1.859   1.579  0.00  0.00    -0.034 A 
ATOM      3  C   UNL     1       5.721  -2.882   0.762  0.00  0.00    +0.008 A 
ATOM      4  C   UNL     1       5.059  -4.071   0.691  0.00  0.00    +0.047 A 
ATOM      5  C   UNL     1       3.881  -4.255   1.437  0.00  0.00    +0.142 A 
ATOM      6  N   UNL     1       3.240  -5.421   1.362  0.00  0.00    -0.214 NA
ATOM      7  C   UNL     1       2.125  -5.647   2.045  0.00  0.00    +0.135 A 
ATOM      8  C   UNL     1       1.599  -4.633   2.874  0.00  0.00    +0.095 A 
ATOM      9  C   UNL     1       2.286  -3.401   2.947  0.00  0.00    +0.269 A 
ATOM     10  O   UNL     1       1.866  -2.498   3.650  0.00  0.00    -0.266 OA
ATOM     11  N   UNL     1       3.416  -3.240   2.225  0.00  0.00    -0.267 N 
ATOM     12  C   UNL     1       4.088  -2.056   2.293  0.00  0.00    +0.099 A 
ENDROOT
BRANCH   8  13
ATOM     13  C   UNL     1       0.370  -4.852   3.639  0.00  0.00    +0.095 C 
ATOM     14  N   UNL     1       0.181  -4.221   4.759  0.00  0.00    -0.385 N 
ATOM     15  H   UNL     1       0.053  -4.720   5.581  0.00  0.00    +0.159 HD
BRANCH  14  16
ATOM     16  C   UNL     1       0.162  -2.757   4.780  0.00  0.00    +0.149 C 
BRANCH  16  17
ATOM     17  C   UNL     1      -1.005  -2.282   5.608  0.00  0.00    -0.010 A 
ATOM     18  C   UNL     1      -2.241  -2.062   5.018  0.00  0.00    +0.008 A 
ATOM     19  C   UNL     1      -3.285  -1.625   5.818  0.00  0.00    +0.020 A 
ATOM     20  C   UNL     1      -3.062  -1.426   7.168  0.00  0.00    +0.111 A 
ATOM     21  N   UNL     1      -1.873  -1.645   7.694  0.00  0.00    -0.263 NA
ATOM     22  C   UNL     1      -0.859  -2.067   6.965  0.00  0.00    +0.116 A 
ENDBRANCH  16  17
ENDBRANCH  14  16
ENDBRANCH   8  13
BRANCH   7  23
ATOM     23  N   UNL     1       1.485  -6.863   1.945  0.00  0.00    -0.324 N 
ATOM     24  H   UNL     1       0.670  -7.024   2.446  0.00  0.00    +0.148 HD
BRANCH  23  25
ATOM     25  C   UNL     1       2.035  -7.912   1.083  0.00  0.00    +0.139 C 
BRANCH  25  26
ATOM     26  C   UNL     1       1.154  -9.132   1.152  0.00  0.00    -0.012 A 
ATOM     27  C   UNL     1       1.385 -10.113   2.104  0.00  0.00    +0.008 A 
ATOM     28  C   UNL     1       0.549 -11.218   2.130  0.00  0.00    +0.020 A 
ATOM     29  C   UNL     1      -0.481 -11.305   1.212  0.00  0.00    +0.111 A 
ATOM     30  N   UNL     1      -0.671 -10.353   0.320  0.00  0.00    -0.263 NA
ATOM     31  C   UNL     1       0.101  -9.285   0.270  0.00  0.00    +0.115 A 
ENDBRANCH  25  26
ENDBRANCH  23  25
ENDBRANCH   7  23
TORSDOF 6
