REMARK  Name = ZINC60364421
REMARK  6 active torsions:
REMARK  status: ('A' for Active; 'I' for Inactive)
REMARK    1  A    between atoms: C_1  and  C_2
REMARK    2  A    between atoms: C_2  and  C_4
REMARK    3  A    between atoms: C_2  and  O_7
REMARK    4  A    between atoms: O_7  and  C_8
REMARK    5  A    between atoms: C_12  and  C_14
REMARK    6  A    between atoms: C_20  and  O_26
REMARK                            x       y       z     vdW  Elec       q    Type
REMARK                         _______ _______ _______ _____ _____    ______ ____
ROOT
ATOM      1  C   UNL     1       5.013  -2.093  -3.020  0.00  0.00    +0.015 C 
ATOM      2  C   UNL     1       6.327  -2.348  -2.837  0.00  0.00    +0.001 C 
ATOM      3  C   UNL     1       7.055  -1.985  -1.556  0.00  0.00    +0.043 C 
ATOM      4  C   UNL     1       7.680  -3.251  -0.976  0.00  0.00    +0.041 C 
ATOM      5  C   UNL     1       8.472  -4.011  -2.004  0.00  0.00    -0.033 A 
ATOM      6  C   UNL     1       9.489  -4.842  -1.569  0.00  0.00    +0.049 A 
ATOM      7  C   UNL     1      10.240  -5.571  -2.479  0.00  0.00    +0.117 A 
ATOM      8  C   UNL     1       9.977  -5.478  -3.842  0.00  0.00    +0.046 A 
ATOM      9  C   UNL     1       8.970  -4.652  -4.288  0.00  0.00    +0.015 A 
ATOM     10  C   UNL     1       8.219  -3.911  -3.372  0.00  0.00    +0.025 A 
ATOM     11  C   UNL     1       7.157  -3.006  -3.868  0.00  0.00    +0.189 C 
ATOM     12  O   UNL     1       6.981  -2.814  -5.057  0.00  0.00    -0.287 OA
ENDROOT
BRANCH   1  17
ATOM     13  C   UNL     1       4.205   0.628  -0.563  0.00  0.00    +0.122 A 
ATOM     14  C   UNL     1       2.901   0.297  -0.220  0.00  0.00    +0.046 A 
ATOM     15  C   UNL     1       2.288  -0.806  -0.786  0.00  0.00    +0.004 A 
ATOM     16  C   UNL     1       2.969  -1.587  -1.696  0.00  0.00    +0.008 A 
ATOM     17  C   UNL     1       4.283  -1.263  -2.049  0.00  0.00    -0.021 A 
ATOM     18  C   UNL     1       4.898  -0.144  -1.479  0.00  0.00    +0.053 A 
BRANCH  13  19
ATOM     19  O   UNL     1       4.801   1.713  -0.002  0.00  0.00    -0.478 OA
BRANCH  19  21
ATOM     20  C   UNL     1       4.051   1.997   2.278  0.00  0.00    +0.064 C 
ATOM     21  C   UNL     1       3.992   2.531   0.846  0.00  0.00    +0.282 C 
BRANCH  21  22
ATOM     22  C   UNL     1       4.506   3.948   0.816  0.00  0.00    +0.395 C 
ATOM     23  O   UNL     1       5.529   4.212   0.207  0.00  0.00    -0.242 OA
ATOM     24  O   UNL     1       3.901   4.829   1.402  0.00  0.00    -0.242 OA
ENDBRANCH  21  22
ENDBRANCH  19  21
ENDBRANCH  13  19
ENDBRANCH   1  17
BRANCH   7  25
ATOM     25  O   UNL     1      11.236  -6.381  -2.038  0.00  0.00    -0.507 OA
ATOM     26  H   UNL     1      10.952  -7.285  -1.846  0.00  0.00    +0.292 HD
ENDBRANCH   7  25
TORSDOF 5
