REMARK  Name = ZINC08595754
REMARK  15 active torsions:
REMARK  status: ('A' for Active; 'I' for Inactive)
REMARK    1  A    between atoms: C_1  and  C_2
REMARK    2  A    between atoms: C_2  and  N_3
REMARK    3  A    between atoms: N_3  and  C_4
REMARK    4  A    between atoms: N_3  and  C_11
REMARK    5  A    between atoms: C_4  and  C_5
REMARK    6  A    between atoms: C_11  and  C_12
REMARK    7  A    between atoms: C_13  and  C_30
REMARK    8  A    between atoms: C_14  and  C_20
REMARK    9  A    between atoms: C_23  and  O_26
REMARK   10  A    between atoms: O_26  and  C_27
REMARK   11  A    between atoms: C_27  and  C_28
REMARK   12  A    between atoms: C_27  and  C_29
REMARK   13  A    between atoms: C_30  and  O_32
REMARK   14  A    between atoms: O_32  and  C_33
REMARK   15  A    between atoms: C_33  and  C_34
REMARK                            x       y       z     vdW  Elec       q    Type
REMARK                         _______ _______ _______ _____ _____    ______ ____
ROOT
ATOM      1  C   UNL     1       1.960   1.504  -1.542  0.00  0.00    +0.008 C 
ATOM      2  C   UNL     1       2.315   2.360  -0.560  0.00  0.00    +0.076 C 
ATOM      3  C   UNL     1       2.317   3.841  -0.883  0.00  0.00    +0.143 C 
ATOM      4  N   UNL     1       1.929   4.226  -2.250  0.00  0.00    -0.288 N 
ATOM      5  C   UNL     1       1.599   3.253  -3.122  0.00  0.00    +0.304 C 
ATOM      6  O   UNL     1       1.278   3.561  -4.253  0.00  0.00    -0.252 OA
ATOM      7  N   UNL     1       1.620   1.957  -2.784  0.00  0.00    -0.274 N 
ATOM      8  H   UNL     1       1.911   5.159  -2.517  0.00  0.00    +0.151 HD
ATOM      9  H   UNL     1       1.375   1.304  -3.459  0.00  0.00    +0.156 HD
ENDROOT
BRANCH   3  10
ATOM     10  C   UNL     1       1.379   4.527   0.076  0.00  0.00    -0.022 A 
ATOM     11  C   UNL     1       0.015   4.490  -0.147  0.00  0.00    +0.009 A 
ATOM     12  C   UNL     1      -0.847   5.119   0.731  0.00  0.00    +0.046 A 
ATOM     13  C   UNL     1      -0.343   5.787   1.837  0.00  0.00    +0.121 A 
ATOM     14  C   UNL     1       1.026   5.822   2.059  0.00  0.00    +0.046 A 
ATOM     15  C   UNL     1       1.884   5.187   1.181  0.00  0.00    +0.009 A 
BRANCH  13  16
ATOM     16  O   UNL     1      -1.189   6.407   2.702  0.00  0.00    -0.489 OA
BRANCH  16  17
ATOM     17  C   UNL     1      -2.589   6.234   2.475  0.00  0.00    +0.167 C 
ATOM     18  C   UNL     1      -3.346   6.428   3.790  0.00  0.00    +0.051 C 
ATOM     19  C   UNL     1      -3.071   7.265   1.452  0.00  0.00    +0.051 C 
ENDBRANCH  16  17
ENDBRANCH  13  16
ENDBRANCH   3  10
BRANCH   2  20
ATOM     20  C   UNL     1       2.672   1.891   0.726  0.00  0.00    +0.339 C 
ATOM     21  O   UNL     1       2.770   0.696   0.932  0.00  0.00    -0.245 OA
BRANCH  20  22
ATOM     22  O   UNL     1       2.904   2.770   1.724  0.00  0.00    -0.462 OA
BRANCH  22  23
ATOM     23  C   UNL     1       3.261   2.226   2.996  0.00  0.00    +0.229 C 
ATOM     24  C   UNL     1       3.483   3.365   3.993  0.00  0.00    +0.048 C 
ENDBRANCH  22  23
ENDBRANCH  20  22
ENDBRANCH   2  20
BRANCH   1  25
ATOM     25  C   UNL     1       1.944   0.023  -1.263  0.00  0.00    -0.026 C 
BRANCH  25  26
ATOM     26  N   UNL     1       3.291  -0.528  -1.463  0.00  0.00    +0.386 N 
ATOM     27  H   UNL     1       3.950  -0.020  -0.892  0.00  0.00    -0.081 HD
BRANCH  26  29
ATOM     28  C   UNL     1       2.663  -1.160  -3.744  0.00  0.00    -0.017 C 
ATOM     29  C   UNL     1       3.668  -0.399  -2.877  0.00  0.00    -0.081 C 
ENDBRANCH  26  29
BRANCH  26  30
ATOM     30  C   UNL     1       3.302  -1.946  -1.080  0.00  0.00    -0.043 C 
BRANCH  30  31
ATOM     31  C   UNL     1       4.709  -2.479  -1.168  0.00  0.00    -0.064 A 
ATOM     32  C   UNL     1       5.168  -3.027  -2.351  0.00  0.00    +0.002 A 
ATOM     33  C   UNL     1       6.458  -3.516  -2.431  0.00  0.00    +0.000 A 
ATOM     34  C   UNL     1       7.290  -3.456  -1.329  0.00  0.00    +0.000 A 
ATOM     35  C   UNL     1       6.832  -2.906  -0.146  0.00  0.00    +0.000 A 
ATOM     36  C   UNL     1       5.543  -2.414  -0.067  0.00  0.00    +0.002 A 
ENDBRANCH  30  31
ENDBRANCH  26  30
ENDBRANCH  25  26
ENDBRANCH   1  25
TORSDOF 11
