REMARK  Name = ZINC65992672
REMARK  7 active torsions:
REMARK  status: ('A' for Active; 'I' for Inactive)
REMARK    1  A    between atoms: C_1  and  C_2
REMARK    2  A    between atoms: C_2  and  C_3
REMARK    3  A    between atoms: C_2  and  N_15
REMARK    4  A    between atoms: C_6  and  N_9
REMARK    5  A    between atoms: C_16  and  C_18
REMARK    6  A    between atoms: C_18  and  N_19
REMARK    7  A    between atoms: C_20  and  C_22
REMARK                            x       y       z     vdW  Elec       q    Type
REMARK                         _______ _______ _______ _____ _____    ______ ____
ROOT
ATOM      1  C   UNL     1      -0.034   1.525   0.019  0.00  0.00    +0.033 C 
ATOM      2  C   UNL     1       0.002  -0.004   0.002  0.00  0.00    +0.100 C 
ENDROOT
BRANCH   2   3
ATOM      3  C   UNL     1       0.731  -0.503   1.223  0.00  0.00    -0.027 A 
ATOM      4  C   UNL     1       2.114  -0.499   1.251  0.00  0.00    +0.007 A 
ATOM      5  C   UNL     1       2.784  -0.956   2.368  0.00  0.00    +0.024 A 
ATOM      6  C   UNL     1       2.069  -1.419   3.465  0.00  0.00    +0.036 A 
ATOM      7  C   UNL     1       0.681  -1.422   3.434  0.00  0.00    +0.024 A 
ATOM      8  C   UNL     1       0.016  -0.959   2.315  0.00  0.00    +0.007 A 
BRANCH   6   9
ATOM      9  N   UNL     1       2.746  -1.883   4.598  0.00  0.00    -0.271 N 
ATOM     10  C   UNL     1       2.090  -2.286   5.848  0.00  0.00    +0.114 C 
ATOM     11  C   UNL     1       3.143  -3.112   6.619  0.00  0.00    +0.029 C 
ATOM     12  C   UNL     1       4.465  -2.553   6.044  0.00  0.00    +0.098 C 
ATOM     13  C   UNL     1       4.080  -2.023   4.680  0.00  0.00    +0.220 C 
ATOM     14  O   UNL     1       4.862  -1.760   3.792  0.00  0.00    -0.275 OA
ENDBRANCH   6   9
ENDBRANCH   2   3
BRANCH   2  15
ATOM     15  N   UNL     1       0.697  -0.462  -1.203  0.00  0.00    -0.307 N 
ATOM     16  C   UNL     1       0.022  -0.594  -2.362  0.00  0.00    +0.231 C 
ATOM     17  O   UNL     1      -1.162  -0.333  -2.407  0.00  0.00    -0.274 OA
ATOM     18  H   UNL     1       1.644  -0.671  -1.167  0.00  0.00    +0.149 HD
BRANCH  16  19
ATOM     19  C   UNL     1       0.737  -1.065  -3.602  0.00  0.00    +0.200 C 
BRANCH  19  20
ATOM     20  N   UNL     1      -0.209  -1.124  -4.719  0.00  0.00    -0.303 N 
ATOM     21  C   UNL     1       0.210  -1.522  -5.937  0.00  0.00    +0.245 C 
ATOM     22  O   UNL     1       1.373  -1.832  -6.108  0.00  0.00    -0.270 OA
ATOM     23  H   UNL     1      -1.137  -0.877  -4.582  0.00  0.00    +0.150 HD
BRANCH  21  24
ATOM     24  C   UNL     1      -0.741  -1.581  -7.059  0.00  0.00    +0.044 A 
ATOM     25  C   UNL     1      -0.330  -2.007  -8.375  0.00  0.00    +0.020 A 
ATOM     26  C   UNL     1      -1.296  -2.018  -9.315  0.00  0.00    +0.046 A 
ATOM     27  S   UNL     1      -2.732  -1.459  -8.424  0.00  0.00    -0.104 S 
ATOM     28  C   UNL     1      -2.065  -1.238  -6.901  0.00  0.00    +0.058 A 
ENDBRANCH  21  24
ENDBRANCH  19  20
ENDBRANCH  16  19
ENDBRANCH   2  15
TORSDOF 6
