REMARK  Name = ZINC39500030
REMARK  2 active torsions:
REMARK  status: ('A' for Active; 'I' for Inactive)
REMARK    1  A    between atoms: C_1  and  C_2
REMARK    2  A    between atoms: N_12  and  C_13
REMARK                            x       y       z     vdW  Elec       q    Type
REMARK                         _______ _______ _______ _____ _____    ______ ____
ROOT
ATOM      1  C   UNL     1       2.173   0.005   1.089  0.00  0.00    +0.214 C 
ATOM      2  C   UNL     1       2.758  -0.362  -0.251  0.00  0.00    +0.055 C 
ATOM      3  C   UNL     1       2.478  -0.149  -1.539  0.00  0.00    +0.145 C 
ATOM      4  N   UNL     1       3.418  -0.766  -2.286  0.00  0.00    -0.155 NA
ATOM      5  N   UNL     1       4.295  -1.369  -1.562  0.00  0.00    -0.131 NA
ATOM      6  C   UNL     1       3.990  -1.189  -0.243  0.00  0.00    +0.164 C 
ATOM      7  N   UNL     1       4.500  -1.553   0.899  0.00  0.00    -0.311 N 
ATOM      8  C   UNL     1       3.972  -1.222   2.097  0.00  0.00    +0.189 C 
ATOM      9  N   UNL     1       2.902  -0.509   2.265  0.00  0.00    -0.230 NA
ATOM     10  N   UNL     1       4.620  -1.678   3.228  0.00  0.00    -0.329 N 
ATOM     11  H   UNL     1       5.423  -2.216   3.144  0.00  0.00    +0.145 HD
ATOM     12  H   UNL     1       4.272  -1.461   4.108  0.00  0.00    +0.145 HD
ATOM     13  H   UNL     1       5.305  -2.094   0.889  0.00  0.00    +0.170 HD
ENDROOT
BRANCH   1  23
ATOM     14  C   UNL     1      -0.071   1.727   0.560  0.00  0.00    +0.022 C 
ATOM     15  C   UNL     1      -0.079   0.237   0.211  0.00  0.00    +0.042 C 
ATOM     16  C   UNL     1      -1.484  -0.323   0.365  0.00  0.00    -0.051 C 
ATOM     17  C   UNL     1      -2.532   0.312  -0.551  0.00  0.00    -0.016 C 
ATOM     18  C   UNL     1      -3.492  -0.859  -0.890  0.00  0.00    -0.020 C 
ATOM     19  C   UNL     1      -2.868  -2.100  -0.194  0.00  0.00    -0.078 C 
ATOM     20  N   UNL     1      -1.441  -1.751  -0.054  0.00  0.00    +0.383 N 
ATOM     21  C   UNL     1      -0.684  -2.481   0.954  0.00  0.00    -0.063 C 
ATOM     22  C   UNL     1       0.758  -1.951   0.923  0.00  0.00    +0.068 C 
ATOM     23  N   UNL     1       0.795  -0.502   1.143  0.00  0.00    -0.278 NA
ATOM     24  H   UNL     1      -0.990  -1.831  -0.953  0.00  0.00    -0.081 HD
ENDBRANCH   1  23
TORSDOF 1
