REMARK  Name = ZINC38597770
REMARK  7 active torsions:
REMARK  status: ('A' for Active; 'I' for Inactive)
REMARK    1  A    between atoms: C_3  and  S_8
REMARK    2  A    between atoms: S_8  and  N_11
REMARK    3  A    between atoms: N_11  and  C_12
REMARK    4  A    between atoms: C_12  and  C_13
REMARK    5  A    between atoms: C_13  and  C_15
REMARK    6  A    between atoms: C_13  and  N_20
REMARK    7  A    between atoms: N_23  and  C_26
REMARK                            x       y       z     vdW  Elec       q    Type
REMARK                         _______ _______ _______ _____ _____    ______ ____
ROOT
ATOM      1  C   UNL     1       5.312   2.029   3.605  0.00  0.00    +0.015 C 
ENDROOT
BRANCH   1   2
ATOM      2  N   UNL     1       4.395   2.970   4.262  0.00  0.00    +0.389 N 
ATOM      3  C   UNL     1       5.091   3.638   5.369  0.00  0.00    -0.059 C 
ATOM      4  C   UNL     1       4.105   4.534   6.125  0.00  0.00    +0.086 C 
ATOM      5  N   UNL     1       3.475   5.450   5.163  0.00  0.00    -0.333 N 
ATOM      6  C   UNL     1       2.893   4.878   3.938  0.00  0.00    +0.086 C 
ATOM      7  C   UNL     1       3.937   3.966   3.285  0.00  0.00    -0.059 C 
ATOM      8  H   UNL     1       3.600   2.465   4.624  0.00  0.00    -0.081 HD
BRANCH   5   9
ATOM      9  C   UNL     1       3.431   6.827   5.404  0.00  0.00    +0.030 A 
ATOM     10  C   UNL     1       2.944   7.689   4.430  0.00  0.00    +0.026 A 
ATOM     11  C   UNL     1       2.901   9.048   4.671  0.00  0.00    +0.040 A 
ATOM     12  C   UNL     1       3.342   9.552   5.882  0.00  0.00    +0.124 A 
ATOM     13  C   UNL     1       3.828   8.695   6.855  0.00  0.00    +0.040 A 
ATOM     14  C   UNL     1       3.868   7.334   6.621  0.00  0.00    +0.026 A 
ATOM     15  F   UNL     1       3.299  10.882   6.116  0.00  0.00    -0.205 F 
ENDBRANCH   5   9
ENDBRANCH   1   2
BRANCH   1  16
ATOM     16  C   UNL     1       5.717   0.957   4.584  0.00  0.00    +0.093 A 
ATOM     17  C   UNL     1       6.949   0.434   4.713  0.00  0.00    +0.043 A 
ATOM     18  C   UNL     1       6.879  -0.534   5.741  0.00  0.00    +0.041 A 
ATOM     19  C   UNL     1       5.607  -0.544   6.179  0.00  0.00    +0.195 A 
ATOM     20  O   UNL     1       4.909   0.365   5.479  0.00  0.00    -0.469 OA
ENDBRANCH   1  16
BRANCH   1  21
ATOM     21  C   UNL     1       4.612   1.387   2.406  0.00  0.00    +0.098 C 
BRANCH  21  22
ATOM     22  N   UNL     1       3.350   0.786   2.841  0.00  0.00    -0.191 NA
ATOM     23  H   UNL     1       3.192   0.620   3.784  0.00  0.00    +0.148 HD
BRANCH  22  24
ATOM     24  S   UNL     1       2.193   0.389   1.725  0.00  0.00    +0.058 S 
ATOM     25  O   UNL     1       2.027   1.527   0.890  0.00  0.00    -0.153 OA
ATOM     26  O   UNL     1       1.114  -0.191   2.446  0.00  0.00    -0.153 OA
BRANCH  24  29
ATOM     27  C   UNL     1       3.213  -3.213   0.266  0.00  0.00    +0.003 A 
ATOM     28  C   UNL     1       2.688  -2.212   1.061  0.00  0.00    +0.028 A 
ATOM     29  C   UNL     1       2.863  -0.887   0.711  0.00  0.00    +0.107 A 
ATOM     30  C   UNL     1       3.564  -0.561  -0.435  0.00  0.00    +0.048 A 
ATOM     31  C   UNL     1       4.091  -1.563  -1.231  0.00  0.00    +0.043 A 
ATOM     32  C   UNL     1       3.915  -2.889  -0.880  0.00  0.00    +0.020 A 
ATOM     33 CL   UNL     1       4.971  -1.155  -2.671  0.00  0.00    -0.083 Cl
ENDBRANCH  24  29
ENDBRANCH  22  24
ENDBRANCH  21  22
ENDBRANCH   1  21
TORSDOF 7
