REMARK  Name = ZINC39664435
REMARK  6 active torsions:
REMARK  status: ('A' for Active; 'I' for Inactive)
REMARK    1  A    between atoms: C_4  and  C_7
REMARK    2  A    between atoms: C_7  and  C_9
REMARK    3  A    between atoms: C_7  and  N_37
REMARK    4  A    between atoms: C_9  and  N_10
REMARK    5  A    between atoms: C_11  and  C_13
REMARK    6  A    between atoms: C_24  and  C_26
REMARK                            x       y       z     vdW  Elec       q    Type
REMARK                         _______ _______ _______ _____ _____    ______ ____
ROOT
ATOM      1  C   UNL     1       6.925  -3.500   2.396  0.00  0.00    +0.100 C 
ATOM      2  C   UNL     1       6.612  -4.823   1.661  0.00  0.00    +0.121 C 
ATOM      3  N   UNL     1       7.478  -5.830   2.317  0.00  0.00    -0.297 N 
ATOM      4  C   UNL     1       7.436  -5.472   3.755  0.00  0.00    +0.115 C 
ATOM      5  C   UNL     1       7.465  -3.931   3.770  0.00  0.00    -0.004 C 
ATOM      6  C   UNL     1       8.895  -3.432   3.956  0.00  0.00    -0.010 C 
ATOM      7  C   UNL     1       9.390  -3.823   5.351  0.00  0.00    -0.082 C 
ATOM      8  N   UNL     1       8.510  -3.235   6.367  0.00  0.00    +0.379 N 
ATOM      9  C   UNL     1       7.157  -3.790   6.240  0.00  0.00    -0.082 C 
ATOM     10  C   UNL     1       6.567  -3.397   4.882  0.00  0.00    -0.010 C 
ATOM     11  C   UNL     1       8.152  -6.843   1.738  0.00  0.00    +0.260 C 
ATOM     12  O   UNL     1       8.824  -7.591   2.416  0.00  0.00    -0.271 OA
ATOM     13  H   UNL     1       8.872  -3.442   7.286  0.00  0.00    -0.086 HD
ATOM     14  H   UNL     1       8.474  -2.234   6.241  0.00  0.00    -0.086 HD
ENDROOT
BRANCH  11  15
ATOM     15  C   UNL     1       8.069  -7.048   0.247  0.00  0.00    +0.296 C 
ATOM     16  C   UNL     1       6.636  -7.433  -0.144  0.00  0.00    +0.283 C 
ATOM     17  O   UNL     1       6.597  -7.633  -1.561  0.00  0.00    -0.484 OA
ATOM     18  C   UNL     1       7.596  -8.383  -2.101  0.00  0.00    +0.162 A 
ATOM     19  C   UNL     1       7.436  -8.916  -3.372  0.00  0.00    +0.049 A 
ATOM     20  C   UNL     1       8.443  -9.678  -3.934  0.00  0.00    +0.004 A 
ATOM     21  C   UNL     1       9.611  -9.910  -3.233  0.00  0.00    +0.004 A 
ATOM     22  C   UNL     1       9.776  -9.383  -1.966  0.00  0.00    +0.049 A 
ATOM     23  C   UNL     1       8.769  -8.619  -1.395  0.00  0.00    +0.163 A 
ATOM     24  O   UNL     1       8.943  -8.113  -0.144  0.00  0.00    -0.473 OA
ENDBRANCH  11  15
BRANCH   1  26
ATOM     25  N   UNL     1       5.747  -1.336   2.612  0.00  0.00    -0.313 N 
ATOM     26  C   UNL     1       5.671  -2.680   2.559  0.00  0.00    +0.218 C 
ATOM     27  O   UNL     1       4.593  -3.231   2.642  0.00  0.00    -0.275 OA
ATOM     28  H   UNL     1       6.609  -0.896   2.546  0.00  0.00    +0.149 HD
BRANCH  25  29
ATOM     29  C   UNL     1       4.528  -0.539   2.770  0.00  0.00    +0.127 C 
BRANCH  29  30
ATOM     30  C   UNL     1       4.882   0.949   2.727  0.00  0.00    +0.104 C 
BRANCH  30  34
ATOM     31  C   UNL     1       7.415   1.907   6.030  0.00  0.00    +0.000 A 
ATOM     32  C   UNL     1       7.961   1.705   4.777  0.00  0.00    +0.000 A 
ATOM     33  C   UNL     1       7.142   1.394   3.708  0.00  0.00    +0.005 A 
ATOM     34  C   UNL     1       5.776   1.286   3.893  0.00  0.00    -0.029 A 
ATOM     35  C   UNL     1       5.230   1.488   5.147  0.00  0.00    +0.005 A 
ATOM     36  C   UNL     1       6.050   1.800   6.215  0.00  0.00    +0.000 A 
ENDBRANCH  30  34
BRANCH  30  37
ATOM     37  N   UNL     1       3.652   1.748   2.806  0.00  0.00    -0.290 NA
ATOM     38  C   UNL     1       2.724   1.394   1.722  0.00  0.00    +0.113 C 
ATOM     39  C   UNL     1       1.434   2.205   1.877  0.00  0.00    +0.175 C 
ATOM     40  O   UNL     1       1.752   3.599   1.885  0.00  0.00    -0.377 OA
ATOM     41  C   UNL     1       2.654   3.979   2.929  0.00  0.00    +0.175 C 
ATOM     42  C   UNL     1       3.955   3.186   2.784  0.00  0.00    +0.113 C 
ENDBRANCH  30  37
ENDBRANCH  29  30
ENDBRANCH  25  29
ENDBRANCH   1  26
TORSDOF 6
