REMARK  Name = ZINC39323731
REMARK  6 active torsions:
REMARK  status: ('A' for Active; 'I' for Inactive)
REMARK    1  A    between atoms: C_1  and  C_2
REMARK    2  A    between atoms: C_5  and  N_9
REMARK    3  A    between atoms: C_6  and  C_8
REMARK    4  A    between atoms: C_10  and  C_12
REMARK    5  A    between atoms: C_13  and  N_27
REMARK    6  A    between atoms: C_23  and  C_26
REMARK                            x       y       z     vdW  Elec       q    Type
REMARK                         _______ _______ _______ _____ _____    ______ ____
ROOT
ATOM      1  C   UNL     1      -0.129  -6.252  -1.187  0.00  0.00    +0.097 A 
ATOM      2  C   UNL     1      -0.229  -7.101  -2.267  0.00  0.00    +0.053 A 
ATOM      3  C   UNL     1      -0.306  -8.532  -2.016  0.00  0.00    +0.029 A 
ATOM      4  C   UNL     1      -0.409  -9.592  -2.946  0.00  0.00    +0.017 A 
ATOM      5  C   UNL     1      -0.473 -10.896  -2.491  0.00  0.00    -0.025 A 
ATOM      6  C   UNL     1      -0.440 -11.157  -1.134  0.00  0.00    +0.046 A 
ATOM      7  N   UNL     1      -0.337 -10.158  -0.268  0.00  0.00    -0.244 NA
ATOM      8  C   UNL     1      -0.273  -8.905  -0.653  0.00  0.00    +0.111 A 
ATOM      9  S   UNL     1      -0.129  -7.359   0.209  0.00  0.00    -0.062 S 
ATOM     10  C   UNL     1      -0.524 -12.554  -0.576  0.00  0.00    +0.056 C 
ATOM     11  C   UNL     1      -0.203 -13.584  -1.656  0.00  0.00    +0.010 C 
ATOM     12  C   UNL     1      -1.072 -13.285  -2.883  0.00  0.00    -0.009 C 
ATOM     13  C   UNL     1      -0.575 -11.990  -3.522  0.00  0.00    +0.040 C 
ATOM     14  C   UNL     1      -0.957 -14.433  -3.888  0.00  0.00    +0.008 C 
ENDROOT
BRANCH   1  16
ATOM     15  N   UNL     1       0.058  -4.169  -0.021  0.00  0.00    -0.281 N 
ATOM     16  C   UNL     1      -0.041  -4.838  -1.187  0.00  0.00    +0.257 C 
ATOM     17  O   UNL     1      -0.054  -4.227  -2.240  0.00  0.00    -0.269 OA
ATOM     18  H   UNL     1       0.135  -4.657   0.814  0.00  0.00    +0.155 HD
BRANCH  15  23
ATOM     19  C   UNL     1       0.024   1.503   0.006  0.00  0.00    +0.044 C 
ATOM     20  C   UNL     1       0.033  -0.004  -0.001  0.00  0.00    -0.050 A 
ATOM     21  C   UNL     1       0.631  -0.685  -1.046  0.00  0.00    +0.005 A 
ATOM     22  C   UNL     1       0.641  -2.066  -1.055  0.00  0.00    +0.024 A 
ATOM     23  C   UNL     1       0.050  -2.771  -0.014  0.00  0.00    +0.037 A 
ATOM     24  C   UNL     1      -0.550  -2.083   1.033  0.00  0.00    -0.029 A 
ATOM     25  C   UNL     1      -0.551  -0.702   1.039  0.00  0.00    +0.008 A 
ATOM     26  C   UNL     1      -1.193  -2.844   2.164  0.00  0.00    +0.045 C 
ENDBRANCH  15  23
ENDBRANCH   1  16
BRANCH   2  27
ATOM     27  N   UNL     1      -0.255  -6.604  -3.563  0.00  0.00    -0.356 N 
ATOM     28  H   UNL     1      -0.202  -5.648  -3.717  0.00  0.00    +0.142 HD
ATOM     29  H   UNL     1      -0.326  -7.213  -4.315  0.00  0.00    +0.142 HD
ENDBRANCH   2  27
TORSDOF 3
