REMARK  Name = ZINC61747878
REMARK  3 active torsions:
REMARK  status: ('A' for Active; 'I' for Inactive)
REMARK    1  A    between atoms: C_1  and  N_2
REMARK    2  A    between atoms: C_6  and  O_9
REMARK    3  A    between atoms: O_9  and  C_10
REMARK                            x       y       z     vdW  Elec       q    Type
REMARK                         _______ _______ _______ _____ _____    ______ ____
ROOT
ATOM      1  C   UNL     1       0.599   1.422   0.000  0.00  0.00    +0.152 C 
ATOM      2  N   UNL     1       0.393  -0.029  -0.004  0.00  0.00    -0.312 N 
ATOM      3  C   UNL     1       0.263  -0.704  -1.180  0.00  0.00    +0.108 A 
ATOM      4  C   UNL     1       0.073  -2.041  -1.194  0.00  0.00    +0.132 A 
ATOM      5  N   UNL     1       0.005  -2.750  -0.068  0.00  0.00    -0.215 NA
ATOM      6  C   UNL     1       0.122  -2.165   1.103  0.00  0.00    +0.287 A 
ATOM      7  C   UNL     1       0.335  -0.716   1.158  0.00  0.00    +0.313 A 
ATOM      8  O   UNL     1       0.453  -0.143   2.228  0.00  0.00    -0.262 OA
ENDROOT
BRANCH   6   9
ATOM      9  O   UNL     1       0.052  -2.893   2.245  0.00  0.00    -0.433 OA
BRANCH   9  10
ATOM     10  C   UNL     1      -0.035  -4.245   2.135  0.00  0.00    +0.144 A 
ATOM     11  C   UNL     1      -1.276  -4.864   2.142  0.00  0.00    +0.047 A 
ATOM     12  C   UNL     1      -1.361  -6.239   2.030  0.00  0.00    +0.004 A 
ATOM     13  C   UNL     1      -0.211  -6.997   1.912  0.00  0.00    +0.001 A 
ATOM     14  C   UNL     1       1.027  -6.383   1.906  0.00  0.00    +0.019 A 
ATOM     15  C   UNL     1       1.119  -5.008   2.011  0.00  0.00    +0.060 A 
ATOM     16 BR   UNL     1       2.812  -4.168   1.995  0.00  0.00    -0.046 Br
ENDBRANCH   9  10
ENDBRANCH   6   9
TORSDOF 2
