REMARK  Name = ZINC13637709
REMARK  8 active torsions:
REMARK  status: ('A' for Active; 'I' for Inactive)
REMARK    1  A    between atoms: C_1  and  C_2
REMARK    2  A    between atoms: C_6  and  C_22
REMARK    3  A    between atoms: C_7  and  N_8
REMARK    4  A    between atoms: N_10  and  C_11
REMARK    5  A    between atoms: C_11  and  C_12
REMARK    6  A    between atoms: C_12  and  C_13
REMARK    7  A    between atoms: C_16  and  O_20
REMARK    8  A    between atoms: C_17  and  O_19
REMARK                            x       y       z     vdW  Elec       q    Type
REMARK                         _______ _______ _______ _____ _____    ______ ____
ROOT
ATOM      1  N   UNL     1      -0.716  -0.952   2.697  0.00  0.00    -0.295 N 
ATOM      2  C   UNL     1      -1.090  -1.867   3.643  0.00  0.00    +0.143 C 
ATOM      3  N   UNL     1      -1.508  -1.446   4.873  0.00  0.00    -0.367 N 
ATOM      4  S   UNL     1      -1.035  -3.490   3.295  0.00  0.00    -0.016 SA
ATOM      5  H   UNL     1      -1.540  -0.498   5.076  0.00  0.00    +0.161 HD
ATOM      6  H   UNL     1      -0.651  -0.013   2.930  0.00  0.00    +0.154 HD
ENDROOT
BRANCH   1  13
ATOM      7  C   UNL     1       1.898  -1.935   2.148  0.00  0.00    +0.045 C 
ATOM      8  C   UNL     1       0.835  -1.857   1.082  0.00  0.00    -0.029 A 
ATOM      9  C   UNL     1       1.115  -2.276  -0.204  0.00  0.00    +0.005 A 
ATOM     10  C   UNL     1       0.140  -2.205  -1.183  0.00  0.00    +0.001 A 
ATOM     11  C   UNL     1      -1.117  -1.716  -0.877  0.00  0.00    +0.005 A 
ATOM     12  C   UNL     1      -1.403  -1.297   0.407  0.00  0.00    -0.029 A 
ATOM     13  C   UNL     1      -0.428  -1.371   1.393  0.00  0.00    +0.039 A 
ATOM     14  C   UNL     1      -2.772  -0.763   0.739  0.00  0.00    +0.045 C 
ENDBRANCH   1  13
BRANCH   3  15
ATOM     15  C   UNL     1      -1.909  -2.426   5.886  0.00  0.00    +0.119 C 
BRANCH  15  16
ATOM     16  C   UNL     1      -2.330  -1.696   7.163  0.00  0.00    +0.056 C 
BRANCH  16  17
ATOM     17  C   UNL     1      -2.742  -2.704   8.205  0.00  0.00    -0.042 A 
ATOM     18  C   UNL     1      -4.058  -3.122   8.278  0.00  0.00    +0.007 A 
ATOM     19  C   UNL     1      -4.441  -4.046   9.232  0.00  0.00    +0.049 A 
ATOM     20  C   UNL     1      -3.505  -4.557  10.117  0.00  0.00    +0.158 A 
ATOM     21  C   UNL     1      -2.180  -4.136  10.043  0.00  0.00    +0.158 A 
ATOM     22  C   UNL     1      -1.802  -3.213   9.082  0.00  0.00    +0.052 A 
BRANCH  21  23
ATOM     23  O   UNL     1      -1.258  -4.634  10.910  0.00  0.00    -0.503 OA
ATOM     24  H   UNL     1      -0.814  -5.434  10.596  0.00  0.00    +0.292 HD
ENDBRANCH  21  23
BRANCH  20  25
ATOM     25  O   UNL     1      -3.880  -5.466  11.057  0.00  0.00    -0.503 OA
ATOM     26  H   UNL     1      -3.812  -6.385  10.764  0.00  0.00    +0.292 HD
ENDBRANCH  20  25
ENDBRANCH  16  17
ENDBRANCH  15  16
ENDBRANCH   3  15
TORSDOF 6
