REMARK  Name = ZINC19536359
REMARK  9 active torsions:
REMARK  status: ('A' for Active; 'I' for Inactive)
REMARK    1  A    between atoms: C_1  and  C_2
REMARK    2  A    between atoms: C_3  and  C_23
REMARK    3  A    between atoms: C_4  and  C_14
REMARK    4  A    between atoms: C_17  and  O_22
REMARK    5  A    between atoms: C_18  and  O_20
REMARK    6  A    between atoms: O_20  and  C_21
REMARK    7  A    between atoms: C_23  and  O_25
REMARK    8  A    between atoms: O_25  and  C_26
REMARK    9  A    between atoms: C_26  and  C_27
REMARK                            x       y       z     vdW  Elec       q    Type
REMARK                         _______ _______ _______ _____ _____    ______ ____
ROOT
ATOM      1  C   UNL     1       0.577   3.135  -4.252  0.00  0.00    +0.061 C 
ATOM      2  C   UNL     1      -0.442   2.578  -3.292  0.00  0.00    +0.016 C 
ATOM      3  C   UNL     1      -1.740   2.897  -3.436  0.00  0.00    +0.065 C 
ATOM      4  C   UNL     1      -2.783   2.356  -2.503  0.00  0.00    +0.092 C 
ATOM      5  C   UNL     1      -2.156   1.833  -1.235  0.00  0.00    +0.024 C 
ATOM      6  C   UNL     1      -0.837   1.551  -1.184  0.00  0.00    +0.015 C 
ATOM      7  N   UNL     1      -0.040   1.752  -2.279  0.00  0.00    -0.321 N 
ATOM      8  C   UNL     1      -0.206   1.011   0.075  0.00  0.00    +0.051 C 
ATOM      9  C   UNL     1      -0.954   1.552   1.296  0.00  0.00    +0.014 C 
ATOM     10  C   UNL     1      -2.425   1.138   1.189  0.00  0.00    +0.080 C 
ATOM     11  C   UNL     1      -2.982   1.647  -0.113  0.00  0.00    +0.162 C 
ATOM     12  O   UNL     1      -4.167   1.900  -0.196  0.00  0.00    -0.292 OA
ATOM     13  H   UNL     1       0.932   1.241  -2.339  0.00  0.00    +0.152 HD
ENDROOT
BRANCH   4  14
ATOM     14  C   UNL     1      -3.524   1.236  -3.187  0.00  0.00    -0.032 A 
ATOM     15  C   UNL     1      -2.841   0.104  -3.592  0.00  0.00    +0.008 A 
ATOM     16  C   UNL     1      -3.518  -0.929  -4.215  0.00  0.00    +0.049 A 
ATOM     17  C   UNL     1      -4.880  -0.827  -4.443  0.00  0.00    +0.158 A 
ATOM     18  C   UNL     1      -5.566   0.315  -4.040  0.00  0.00    +0.162 A 
ATOM     19  C   UNL     1      -4.884   1.344  -3.411  0.00  0.00    +0.054 A 
BRANCH  18  20
ATOM     20  O   UNL     1      -6.904   0.420  -4.262  0.00  0.00    -0.491 OA
ATOM     21  C   UNL     1      -7.542   1.621  -3.821  0.00  0.00    +0.277 C 
ENDBRANCH  18  20
BRANCH  17  22
ATOM     22  O   UNL     1      -5.546  -1.839  -5.061  0.00  0.00    -0.503 OA
ATOM     23  H   UNL     1      -6.628  -1.756  -5.241  0.00  0.00    +0.292 HD
ENDBRANCH  17  22
ENDBRANCH   4  14
BRANCH   3  24
ATOM     24  C   UNL     1      -2.130   3.759  -4.488  0.00  0.00    +0.338 C 
ATOM     25  O   UNL     1      -1.285   4.287  -5.186  0.00  0.00    -0.245 OA
BRANCH  24  26
ATOM     26  O   UNL     1      -3.439   3.995  -4.717  0.00  0.00    -0.457 OA
BRANCH  26  27
ATOM     27  C   UNL     1      -3.760   4.875  -5.795  0.00  0.00    +0.268 C 
BRANCH  27  28
ATOM     28  C   UNL     1      -5.257   5.018  -5.898  0.00  0.00    -0.010 A 
ATOM     29  C   UNL     1      -5.979   4.155  -6.700  0.00  0.00    +0.007 A 
ATOM     30  C   UNL     1      -7.353   4.283  -6.791  0.00  0.00    +0.000 A 
ATOM     31  C   UNL     1      -8.002   5.280  -6.088  0.00  0.00    +0.000 A 
ATOM     32  C   UNL     1      -7.279   6.147  -5.291  0.00  0.00    +0.000 A 
ATOM     33  C   UNL     1      -5.906   6.016  -5.196  0.00  0.00    +0.007 A 
ENDBRANCH  27  28
ENDBRANCH  26  27
ENDBRANCH  24  26
ENDBRANCH   3  24
TORSDOF 7
