REMARK  Name = ZINC19910573
REMARK  7 active torsions:
REMARK  status: ('A' for Active; 'I' for Inactive)
REMARK    1  A    between atoms: C_1  and  C_2
REMARK    2  A    between atoms: C_5  and  S_8
REMARK    3  A    between atoms: S_8  and  C_11
REMARK    4  A    between atoms: C_11  and  C_13
REMARK    5  A    between atoms: C_11  and  C_15
REMARK    6  A    between atoms: C_16  and  O_25
REMARK    7  A    between atoms: O_25  and  C_26
REMARK                            x       y       z     vdW  Elec       q    Type
REMARK                         _______ _______ _______ _____ _____    ______ ____
ROOT
ATOM      1  C   UNL     1       1.987  -6.465  -0.018  0.00  0.00    +0.142 A 
ATOM      2  C   UNL     1       2.910  -7.076  -0.882  0.00  0.00    +0.246 A 
ATOM      3  N   UNL     1       3.072  -8.384  -0.874  0.00  0.00    -0.209 NA
ATOM      4  C   UNL     1       2.350  -9.135  -0.034  0.00  0.00    +0.093 A 
ATOM      5  C   UNL     1       2.499 -10.532  -0.001  0.00  0.00    +0.030 A 
ATOM      6  C   UNL     1       1.752 -11.271   0.864  0.00  0.00    +0.002 A 
ATOM      7  C   UNL     1       0.837 -10.662   1.721  0.00  0.00    +0.002 A 
ATOM      8  C   UNL     1       0.666  -9.312   1.716  0.00  0.00    +0.030 A 
ATOM      9  C   UNL     1       1.420  -8.516   0.837  0.00  0.00    +0.090 A 
ATOM     10  N   UNL     1       1.275  -7.186   0.815  0.00  0.00    -0.242 NA
ENDROOT
BRANCH   1  11
ATOM     11  C   UNL     1       1.818  -4.968  -0.043  0.00  0.00    +0.290 C 
BRANCH  11  12
ATOM     12  S   UNL     1       0.051  -4.559  -0.018  0.00  0.00    +0.018 S 
ATOM     13  O   UNL     1      -0.516  -4.917   1.235  0.00  0.00    -0.168 OA
ATOM     14  O   UNL     1      -0.563  -4.964  -1.234  0.00  0.00    -0.168 OA
BRANCH  12  19
ATOM     15  C   UNL     1      -0.149   1.471  -0.130  0.00  0.00    +0.044 C 
ATOM     16  C   UNL     1      -0.099  -0.035  -0.102  0.00  0.00    -0.050 A 
ATOM     17  C   UNL     1      -0.097  -0.749  -1.286  0.00  0.00    +0.005 A 
ATOM     18  C   UNL     1      -0.051  -2.130  -1.260  0.00  0.00    +0.027 A 
ATOM     19  C   UNL     1      -0.006  -2.798  -0.051  0.00  0.00    +0.090 A 
ATOM     20  C   UNL     1      -0.007  -2.084   1.133  0.00  0.00    +0.027 A 
ATOM     21  C   UNL     1      -0.048  -0.703   1.108  0.00  0.00    +0.005 A 
ENDBRANCH  12  19
ENDBRANCH  11  12
BRANCH  11  22
ATOM     22  C   UNL     1       2.475  -4.380   1.135  0.00  0.00    +0.096 C 
ATOM     23  N   UNL     1       2.982  -3.926   2.045  0.00  0.00    -0.194 NA
ENDBRANCH  11  22
ENDBRANCH   1  11
BRANCH   2  24
ATOM     24  O   UNL     1       3.641  -6.314  -1.733  0.00  0.00    -0.436 OA
BRANCH  24  25
ATOM     25  C   UNL     1       4.594  -6.928  -2.482  0.00  0.00    +0.130 A 
ATOM     26  C   UNL     1       4.231  -7.666  -3.599  0.00  0.00    +0.046 A 
ATOM     27  C   UNL     1       5.202  -8.289  -4.359  0.00  0.00    +0.004 A 
ATOM     28  C   UNL     1       6.535  -8.178  -4.006  0.00  0.00    +0.000 A 
ATOM     29  C   UNL     1       6.899  -7.443  -2.893  0.00  0.00    +0.004 A 
ATOM     30  C   UNL     1       5.932  -6.813  -2.133  0.00  0.00    +0.046 A 
ENDBRANCH  24  25
ENDBRANCH   2  24
TORSDOF 6
