REMARK  Name = ZINC39522148
REMARK  4 active torsions:
REMARK  status: ('A' for Active; 'I' for Inactive)
REMARK    1  A    between atoms: C_1  and  S_2
REMARK    2  A    between atoms: S_2  and  N_3
REMARK    3  A    between atoms: C_4  and  C_17
REMARK    4  A    between atoms: C_22  and  O_23
REMARK                            x       y       z     vdW  Elec       q    Type
REMARK                         _______ _______ _______ _____ _____    ______ ____
ROOT
ATOM      1  N   UNL     1      -1.130  -0.406   1.398  0.00  0.00    -0.236 NA
ATOM      2  C   UNL     1      -2.363   0.356   1.182  0.00  0.00    +0.102 C 
ATOM      3  C   UNL     1      -3.089  -0.172  -0.057  0.00  0.00    +0.025 C 
ATOM      4  C   UNL     1      -3.349  -1.672   0.116  0.00  0.00    +0.004 C 
ATOM      5  C   UNL     1      -2.021  -2.388   0.354  0.00  0.00    +0.023 C 
ATOM      6  C   UNL     1      -1.358  -1.824   1.636  0.00  0.00    +0.034 C 
ATOM      7  C   UNL     1      -0.057  -2.599   1.815  0.00  0.00    +0.023 C 
ATOM      8  C   UNL     1       0.571  -2.442   3.190  0.00  0.00    +0.003 C 
ATOM      9  C   UNL     1      -0.446  -2.776   4.282  0.00  0.00    +0.014 C 
ATOM     10  C   UNL     1      -1.653  -1.846   4.148  0.00  0.00    +0.054 C 
ATOM     11  C   UNL     1      -2.318  -2.067   2.793  0.00  0.00    +0.037 C 
ATOM     12  I   UNL     1      -3.071  -2.288   5.723  0.00  0.00    -0.082 I 
ENDROOT
BRANCH   2  13
ATOM     13  C   UNL     1      -2.021   1.808   0.972  0.00  0.00    +0.012 A 
ATOM     14  C   UNL     1      -1.753   2.279  -0.299  0.00  0.00    +0.009 A 
ATOM     15  C   UNL     1      -1.438   3.611  -0.493  0.00  0.00    +0.001 A 
ATOM     16  C   UNL     1      -1.390   4.476   0.585  0.00  0.00    +0.004 A 
ATOM     17  C   UNL     1      -1.657   4.011   1.858  0.00  0.00    +0.046 A 
ATOM     18  C   UNL     1      -1.979   2.675   2.054  0.00  0.00    +0.122 A 
BRANCH  18  19
ATOM     19  O   UNL     1      -2.247   2.217   3.305  0.00  0.00    -0.506 OA
ATOM     20  H   UNL     1      -1.469   1.898   3.782  0.00  0.00    +0.292 HD
ENDBRANCH  18  19
ENDBRANCH   2  13
BRANCH   1  22
ATOM     21  C   UNL     1       0.808   1.626   1.577  0.00  0.00    +0.103 C 
ATOM     22  S   UNL     1      -0.079   0.385   2.560  0.00  0.00    -0.080 S 
ENDBRANCH   1  22
TORSDOF 3
