REMARK  Name = ZINC40801851
REMARK  5 active torsions:
REMARK  status: ('A' for Active; 'I' for Inactive)
REMARK    1  A    between atoms: C_2  and  C_3
REMARK    2  A    between atoms: C_3  and  N_4
REMARK    3  A    between atoms: C_5  and  C_7
REMARK    4  A    between atoms: C_11  and  N_12
REMARK    5  A    between atoms: C_13  and  C_15
REMARK                            x       y       z     vdW  Elec       q    Type
REMARK                         _______ _______ _______ _____ _____    ______ ____
ROOT
ATOM      1  N   UNL     1      -3.469  -1.818  -4.043  0.00  0.00    -0.273 N 
ATOM      2  C   UNL     1      -3.926  -1.621  -5.295  0.00  0.00    +0.284 C 
ATOM      3  O   UNL     1      -3.862  -2.518  -6.114  0.00  0.00    -0.266 OA
ATOM      4  H   UNL     1      -3.519  -1.103  -3.389  0.00  0.00    +0.156 HD
ENDROOT
BRANCH   2   5
ATOM      5  C   UNL     1      -4.500  -0.326  -5.669  0.00  0.00    +0.194 A 
ATOM      6  C   UNL     1      -5.000  -0.007  -6.900  0.00  0.00    +0.070 A 
ATOM      7  C   UNL     1      -5.439   1.316  -6.814  0.00  0.00    +0.106 A 
ATOM      8  C   UNL     1      -6.057   2.219  -7.797  0.00  0.00    +0.204 A 
ATOM      9  O   UNL     1      -6.454   1.847  -8.887  0.00  0.00    -0.286 OA
ATOM     10  C   UNL     1      -6.151   3.628  -7.335  0.00  0.00    +0.065 A 
ATOM     11  C   UNL     1      -6.524   4.632  -8.229  0.00  0.00    +0.015 A 
ATOM     12  C   UNL     1      -6.606   5.937  -7.794  0.00  0.00    +0.001 A 
ATOM     13  C   UNL     1      -6.318   6.247  -6.473  0.00  0.00    +0.004 A 
ATOM     14  C   UNL     1      -5.950   5.263  -5.582  0.00  0.00    +0.047 A 
ATOM     15  C   UNL     1      -5.862   3.936  -5.998  0.00  0.00    +0.143 A 
ATOM     16  O   UNL     1      -5.505   2.995  -5.091  0.00  0.00    -0.424 OA
ATOM     17  C   UNL     1      -5.188   1.757  -5.505  0.00  0.00    +0.304 A 
ATOM     18  O   UNL     1      -4.625   0.745  -4.849  0.00  0.00    -0.419 OA
ENDBRANCH   2   5
BRANCH   1  23
ATOM     19  C   UNL     1      -2.411  -3.423  -2.459  0.00  0.00    +0.069 A 
ATOM     20  C   UNL     1      -1.902  -4.779  -2.343  0.00  0.00    -0.023 A 
ATOM     21  C   UNL     1      -1.996  -5.503  -3.478  0.00  0.00    -0.004 A 
ATOM     22  S   UNL     1      -2.738  -4.406  -4.651  0.00  0.00    -0.077 S 
ATOM     23  C   UNL     1      -2.926  -3.043  -3.688  0.00  0.00    +0.085 A 
ATOM     24  C   UNL     1      -1.561  -6.922  -3.679  0.00  0.00    +0.043 C 
ATOM     25  C   UNL     1      -0.645  -7.315  -2.510  0.00  0.00    +0.005 C 
ATOM     26  C   UNL     1      -1.312  -6.897  -1.197  0.00  0.00    +0.005 C 
ATOM     27  C   UNL     1      -1.308  -5.372  -1.073  0.00  0.00    +0.037 C 
BRANCH  19  29
ATOM     28  N   UNL     1      -1.318  -1.700  -1.126  0.00  0.00    -0.308 N 
ATOM     29  C   UNL     1      -2.386  -2.498  -1.322  0.00  0.00    +0.247 C 
ATOM     30  O   UNL     1      -3.329  -2.451  -0.555  0.00  0.00    -0.270 OA
ATOM     31  H   UNL     1      -0.566  -1.737  -1.737  0.00  0.00    +0.149 HD
BRANCH  28  32
ATOM     32  C   UNL     1      -1.293  -0.775   0.010  0.00  0.00    +0.131 C 
BRANCH  32  34
ATOM     33  C   UNL     1      -0.016   1.306   0.009  0.00  0.00    +0.005 C 
ATOM     34  C   UNL     1       0.002  -0.004   0.002  0.00  0.00    -0.016 C 
ENDBRANCH  32  34
ENDBRANCH  28  32
ENDBRANCH  19  29
ENDBRANCH   1  23
TORSDOF 5
