REMARK  Name = ZINC39657758
REMARK  13 active torsions:
REMARK  status: ('A' for Active; 'I' for Inactive)
REMARK    1  A    between atoms: C_1  and  C_2
REMARK    2  A    between atoms: C_2  and  C_3
REMARK    3  A    between atoms: C_3  and  C_4
REMARK    4  A    between atoms: C_4  and  C_5
REMARK    5  A    between atoms: C_5  and  C_7
REMARK    6  A    between atoms: C_5  and  C_8
REMARK    7  A    between atoms: C_12  and  C_21
REMARK    8  A    between atoms: N_23  and  C_24
REMARK    9  A    between atoms: C_24  and  C_25
REMARK   10  A    between atoms: C_30  and  S_31
REMARK   11  A    between atoms: S_31  and  C_32
REMARK   12  A    between atoms: C_37  and  C_38
REMARK   13  A    between atoms: C_38  and  O_39
REMARK                            x       y       z     vdW  Elec       q    Type
REMARK                         _______ _______ _______ _____ _____    ______ ____
ROOT
ATOM      1  C   UNL     1       4.717  -6.565  -6.141  0.00  0.00    +0.218 C 
ATOM      2  O   UNL     1       4.222  -6.858  -7.208  0.00  0.00    -0.275 OA
ATOM      3  N   UNL     1       5.449  -5.440  -6.023  0.00  0.00    -0.311 N 
ATOM      4  H   UNL     1       5.845  -5.206  -5.169  0.00  0.00    +0.149 HD
ENDROOT
BRANCH   1   9
ATOM      5  C   UNL     1       2.402 -10.070  -3.588  0.00  0.00    +0.218 C 
ATOM      6  O   UNL     1       2.704 -11.179  -3.198  0.00  0.00    -0.275 OA
ATOM      7  N   UNL     1       3.216  -9.408  -4.433  0.00  0.00    -0.300 N 
ATOM      8  C   UNL     1       3.073  -8.020  -4.932  0.00  0.00    +0.121 C 
ATOM      9  C   UNL     1       4.513  -7.460  -4.945  0.00  0.00    +0.100 C 
ATOM     10  C   UNL     1       5.416  -8.701  -5.041  0.00  0.00    -0.004 C 
ATOM     11  C   UNL     1       4.460  -9.902  -5.070  0.00  0.00    +0.115 C 
ATOM     12  C   UNL     1       6.326  -8.788  -3.820  0.00  0.00    -0.010 C 
ATOM     13  C   UNL     1       7.254  -9.998  -3.966  0.00  0.00    -0.082 C 
ATOM     14  N   UNL     1       8.054  -9.858  -5.189  0.00  0.00    +0.379 N 
ATOM     15  C   UNL     1       7.177  -9.868  -6.365  0.00  0.00    -0.082 C 
ATOM     16  C   UNL     1       6.246  -8.653  -6.321  0.00  0.00    -0.010 C 
ATOM     17  H   UNL     1       8.563  -8.988  -5.158  0.00  0.00    -0.086 HD
ATOM     18  H   UNL     1       8.707 -10.625  -5.251  0.00  0.00    -0.086 HD
BRANCH   5  19
ATOM     19  C   UNL     1       1.117  -9.434  -3.126  0.00  0.00    +0.072 C 
ATOM     20  C   UNL     1       1.375  -8.632  -1.849  0.00  0.00    +0.017 C 
BRANCH  19  21
ATOM     21  C   UNL     1       0.081 -10.524  -2.843  0.00  0.00    +0.012 C 
BRANCH  21  22
ATOM     22  C   UNL     1      -1.260  -9.874  -2.495  0.00  0.00    +0.000 C 
BRANCH  22  24
ATOM     23  C   UNL     1      -3.638 -10.315  -1.864  0.00  0.00    +0.004 C 
ATOM     24  C   UNL     1      -2.296 -10.964  -2.212  0.00  0.00    -0.003 C 
ENDBRANCH  22  24
ENDBRANCH  21  22
ENDBRANCH  19  21
ENDBRANCH   5  19
ENDBRANCH   1   9
BRANCH   3  25
ATOM     25  C   UNL     1       5.648  -4.571  -7.186  0.00  0.00    +0.140 C 
BRANCH  25  26
ATOM     26  C   UNL     1       6.496  -3.390  -6.790  0.00  0.00    -0.017 A 
ATOM     27  C   UNL     1       5.903  -2.174  -6.513  0.00  0.00    +0.006 A 
ATOM     28  C   UNL     1       6.681  -1.089  -6.151  0.00  0.00    +0.000 A 
ATOM     29  C   UNL     1       8.055  -1.218  -6.065  0.00  0.00    +0.001 A 
ATOM     30  C   UNL     1       8.655  -2.430  -6.341  0.00  0.00    +0.015 A 
ATOM     31  C   UNL     1       7.876  -3.524  -6.699  0.00  0.00    +0.017 A 
BRANCH  31  32
ATOM     32  S   UNL     1       8.637  -5.075  -7.045  0.00  0.00    -0.089 S 
BRANCH  32  33
ATOM     33  C   UNL     1      10.332  -4.818  -6.638  0.00  0.00    +0.018 A 
ATOM     34  C   UNL     1      10.713  -4.658  -5.311  0.00  0.00    +0.015 A 
ATOM     35  C   UNL     1      12.042  -4.457  -4.996  0.00  0.00    +0.001 A 
ATOM     36  C   UNL     1      12.994  -4.415  -5.998  0.00  0.00    +0.000 A 
ATOM     37  C   UNL     1      12.619  -4.574  -7.320  0.00  0.00    +0.007 A 
ATOM     38  C   UNL     1      11.292  -4.782  -7.642  0.00  0.00    -0.008 A 
BRANCH  38  39
ATOM     39  C   UNL     1      10.885  -4.962  -9.082  0.00  0.00    +0.192 C 
BRANCH  39  40
ATOM     40  O   UNL     1      12.041  -4.884  -9.918  0.00  0.00    -0.390 OA
ATOM     41  H   UNL     1      11.854  -4.992 -10.860  0.00  0.00    +0.210 HD
ENDBRANCH  39  40
ENDBRANCH  38  39
ENDBRANCH  32  33
ENDBRANCH  31  32
ENDBRANCH  25  26
ENDBRANCH   3  25
TORSDOF 11
