REMARK  Name = ZINC00047907
REMARK  4 active torsions:
REMARK  status: ('A' for Active; 'I' for Inactive)
REMARK    1  A    between atoms: C_1  and  C_2
REMARK    2  A    between atoms: C_2  and  C_24
REMARK    3  A    between atoms: N_9  and  C_20
REMARK    4  A    between atoms: C_20  and  C_21
REMARK                            x       y       z     vdW  Elec       q    Type
REMARK                         _______ _______ _______ _____ _____    ______ ____
ROOT
ATOM      1  C   UNL     1      -0.019   1.526   0.010  0.00  0.00    +0.022 C 
ATOM      2  C   UNL     1       0.002  -0.004   0.002  0.00  0.00    +0.053 C 
ATOM      3  C   UNL     1      -1.390  -0.548   0.137  0.00  0.00    -0.015 A 
ATOM      4  C   UNL     1      -2.483  -0.382  -0.694  0.00  0.00    +0.006 A 
ATOM      5  C   UNL     1      -3.665  -1.008  -0.320  0.00  0.00    +0.000 A 
ATOM      6  C   UNL     1      -3.746  -1.764   0.832  0.00  0.00    +0.002 A 
ATOM      7  C   UNL     1      -2.657  -1.936   1.670  0.00  0.00    +0.023 A 
ATOM      8  C   UNL     1      -1.460  -1.311   1.305  0.00  0.00    +0.037 A 
ATOM      9  N   UNL     1      -0.249  -1.334   1.975  0.00  0.00    -0.280 N 
ATOM     10  C   UNL     1       0.742  -0.539   1.241  0.00  0.00    +0.208 C 
ATOM     11  C   UNL     1       1.889  -1.412   0.812  0.00  0.00    +0.042 C 
ATOM     12  C   UNL     1       3.101  -0.890   0.649  0.00  0.00    +0.013 C 
ATOM     13  C   UNL     1       3.290   0.548   0.934  0.00  0.00    +0.017 A 
ATOM     14  C   UNL     1       4.441   1.219   0.533  0.00  0.00    +0.011 A 
ATOM     15  C   UNL     1       4.573   2.567   0.805  0.00  0.00    +0.001 A 
ATOM     16  C   UNL     1       3.568   3.247   1.471  0.00  0.00    +0.004 A 
ATOM     17  C   UNL     1       2.424   2.587   1.878  0.00  0.00    +0.046 A 
ATOM     18  C   UNL     1       2.281   1.235   1.621  0.00  0.00    +0.131 A 
ATOM     19  O   UNL     1       1.188   0.550   2.044  0.00  0.00    -0.463 OA
ATOM     20  C   UNL     1       0.660  -0.522  -1.279  0.00  0.00    +0.022 C 
ENDROOT
BRANCH   9  21
ATOM     21  C   UNL     1       0.005  -2.046   3.230  0.00  0.00    +0.204 C 
BRANCH  21  22
ATOM     22  C   UNL     1       0.476  -3.445   2.926  0.00  0.00    +0.228 C 
ATOM     23  O   UNL     1       0.589  -3.811   1.776  0.00  0.00    -0.274 OA
ATOM     24  N   UNL     1       0.773  -4.290   3.934  0.00  0.00    -0.328 N 
ATOM     25  H   UNL     1       0.683  -3.997   4.855  0.00  0.00    +0.145 HD
ATOM     26  H   UNL     1       1.076  -5.190   3.739  0.00  0.00    +0.145 HD
ENDBRANCH  21  22
ENDBRANCH   9  21
TORSDOF 2
