REMARK  Name = ZINC38650441
REMARK  9 active torsions:
REMARK  status: ('A' for Active; 'I' for Inactive)
REMARK    1  A    between atoms: C_1  and  C_2
REMARK    2  A    between atoms: C_2  and  O_3
REMARK    3  A    between atoms: O_3  and  C_4
REMARK    4  A    between atoms: C_9  and  C_10
REMARK    5  A    between atoms: C_15  and  O_24
REMARK    6  A    between atoms: C_19  and  N_23
REMARK    7  A    between atoms: C_20  and  C_21
REMARK    8  A    between atoms: O_24  and  C_25
REMARK    9  A    between atoms: C_25  and  C_27
REMARK                            x       y       z     vdW  Elec       q    Type
REMARK                         _______ _______ _______ _____ _____    ______ ____
ROOT
ATOM      1  C   UNL     1       1.931  -1.393  -3.462  0.00  0.00    +0.101 C 
ATOM      2  C   UNL     1       1.282  -1.650  -4.796  0.00  0.00    +0.008 A 
ATOM      3  C   UNL     1      -0.030  -1.258  -5.001  0.00  0.00    +0.012 A 
ATOM      4  C   UNL     1      -0.642  -1.485  -6.218  0.00  0.00    +0.047 A 
ATOM      5  C   UNL     1       0.059  -2.109  -7.241  0.00  0.00    +0.135 A 
ATOM      6  C   UNL     1       1.371  -2.503  -7.039  0.00  0.00    +0.093 A 
ATOM      7  C   UNL     1       1.986  -2.274  -5.814  0.00  0.00    +0.138 A 
ATOM      8  O   UNL     1       3.271  -2.665  -5.632  0.00  0.00    -0.441 OA
ATOM      9  C   UNL     1       4.000  -2.130  -4.639  0.00  0.00    +0.199 C 
ATOM     10  C   UNL     1       3.424  -1.514  -3.583  0.00  0.00    +0.098 C 
ENDROOT
BRANCH   1  16
ATOM     11  C   UNL     1       0.759  -1.972  -1.323  0.00  0.00    +0.125 A 
ATOM     12  C   UNL     1       0.292  -2.901  -0.404  0.00  0.00    +0.046 A 
ATOM     13  C   UNL     1       0.500  -4.249  -0.621  0.00  0.00    +0.004 A 
ATOM     14  C   UNL     1       1.172  -4.673  -1.753  0.00  0.00    +0.001 A 
ATOM     15  C   UNL     1       1.638  -3.749  -2.670  0.00  0.00    +0.008 A 
ATOM     16  C   UNL     1       1.428  -2.399  -2.460  0.00  0.00    +0.007 A 
BRANCH  11  17
ATOM     17  O   UNL     1       0.555  -0.644  -1.112  0.00  0.00    -0.492 OA
BRANCH  17  19
ATOM     18  C   UNL     1      -0.274   1.246   0.144  0.00  0.00    +0.048 C 
ATOM     19  C   UNL     1      -0.142  -0.277   0.081  0.00  0.00    +0.225 C 
ENDBRANCH  17  19
ENDBRANCH  11  17
ENDBRANCH   1  16
BRANCH   9  20
ATOM     20  N   UNL     1       5.369  -2.212  -4.699  0.00  0.00    -0.328 N 
ATOM     21  H   UNL     1       5.796  -2.652  -5.450  0.00  0.00    +0.145 HD
ATOM     22  H   UNL     1       5.909  -1.831  -3.989  0.00  0.00    +0.145 HD
ENDBRANCH   9  20
BRANCH  10  23
ATOM     23  C   UNL     1       4.258  -0.966  -2.557  0.00  0.00    +0.101 C 
ATOM     24  N   UNL     1       4.920  -0.530  -1.742  0.00  0.00    -0.191 NA
ENDBRANCH  10  23
BRANCH   5  25
ATOM     25  O   UNL     1      -0.542  -2.333  -8.439  0.00  0.00    -0.422 OA
BRANCH  25  26
ATOM     26  C   UNL     1      -0.822  -1.269  -9.216  0.00  0.00    +0.344 C 
ATOM     27  O   UNL     1      -0.445  -0.161  -8.887  0.00  0.00    -0.245 OA
BRANCH  26  28
ATOM     28  C   UNL     1      -1.587  -1.447 -10.466  0.00  0.00    +0.059 A 
ATOM     29  C   UNL     1      -2.027  -2.718 -10.843  0.00  0.00    +0.016 A 
ATOM     30  C   UNL     1      -2.741  -2.879 -12.012  0.00  0.00    +0.021 A 
ATOM     31  C   UNL     1      -3.022  -1.783 -12.811  0.00  0.00    +0.041 A 
ATOM     32  C   UNL     1      -2.588  -0.520 -12.443  0.00  0.00    +0.021 A 
ATOM     33  C   UNL     1      -1.879  -0.345 -11.273  0.00  0.00    +0.016 A 
ATOM     34 CL   UNL     1      -3.921  -1.993 -14.281  0.00  0.00    -0.084 Cl
ENDBRANCH  26  28
ENDBRANCH  25  26
ENDBRANCH   5  25
TORSDOF 8
