REMARK  Name = ZINC38604054
REMARK  12 active torsions:
REMARK  status: ('A' for Active; 'I' for Inactive)
REMARK    1  A    between atoms: C_1  and  C_2
REMARK    2  A    between atoms: C_2  and  C_3
REMARK    3  A    between atoms: C_3  and  C_4
REMARK    4  A    between atoms: C_4  and  C_5
REMARK    5  A    between atoms: C_5  and  C_6
REMARK    6  A    between atoms: C_6  and  N_7
REMARK    7  A    between atoms: C_11  and  C_12
REMARK    8  A    between atoms: N_14  and  C_28
REMARK    9  A    between atoms: C_16  and  C_17
REMARK   10  A    between atoms: C_24  and  C_27
REMARK   11  A    between atoms: C_34  and  C_40
REMARK   12  A    between atoms: C_35  and  C_38
REMARK                            x       y       z     vdW  Elec       q    Type
REMARK                         _______ _______ _______ _____ _____    ______ ____
ROOT
ATOM      1  C   UNL     1      -7.604  -5.357   3.154  0.00  0.00    +0.021 A 
ATOM      2  C   UNL     1      -8.459  -5.202   2.068  0.00  0.00    +0.123 A 
ATOM      3  N   UNL     1      -9.716  -5.333   2.515  0.00  0.00    -0.239 N 
ATOM      4  N   UNL     1      -9.708  -5.575   3.891  0.00  0.00    -0.166 NA
ATOM      5  C   UNL     1      -8.467  -5.605   4.320  0.00  0.00    +0.100 A 
ENDROOT
BRANCH   1  10
ATOM      6  N   UNL     1      -3.498  -6.040   0.709  0.00  0.00    -0.234 N 
ATOM      7  C   UNL     1      -4.188  -5.411   1.678  0.00  0.00    +0.253 C 
ATOM      8  O   UNL     1      -3.741  -4.395   2.176  0.00  0.00    -0.270 OA
ATOM      9  C   UNL     1      -5.478  -5.945   2.137  0.00  0.00    +0.042 C 
ATOM     10  C   UNL     1      -6.194  -5.295   3.140  0.00  0.00    +0.025 C 
ATOM     11  C   UNL     1      -5.983  -7.126   1.548  0.00  0.00    -0.016 C 
ATOM     12  C   UNL     1      -5.242  -7.744   0.552  0.00  0.00    +0.117 C 
ATOM     13  C   UNL     1      -3.966  -7.161   0.133  0.00  0.00    +0.264 C 
ATOM     14  O   UNL     1      -3.317  -7.701  -0.745  0.00  0.00    -0.269 OA
ATOM     15  C   UNL     1      -7.302  -7.703   1.993  0.00  0.00    +0.046 C 
BRANCH  12  16
ATOM     16  C   UNL     1      -5.725  -8.942  -0.067  0.00  0.00    +0.105 C 
ATOM     17  N   UNL     1      -6.107  -9.892  -0.558  0.00  0.00    -0.191 NA
ENDBRANCH  12  16
BRANCH   6  18
ATOM     18  C   UNL     1      -2.215  -5.487   0.268  0.00  0.00    +0.117 C 
BRANCH  18  19
ATOM     19  C   UNL     1      -2.451  -4.501  -0.878  0.00  0.00    +0.019 C 
BRANCH  19  20
ATOM     20  C   UNL     1      -1.111  -3.925  -1.339  0.00  0.00    +0.002 C 
BRANCH  20  21
ATOM     21  C   UNL     1      -1.346  -2.939  -2.485  0.00  0.00    -0.000 C 
BRANCH  21  23
ATOM     22  C   UNL     1      -0.242  -1.376  -4.091  0.00  0.00    +0.004 C 
ATOM     23  C   UNL     1      -0.006  -2.362  -2.945  0.00  0.00    -0.003 C 
ENDBRANCH  21  23
ENDBRANCH  20  21
ENDBRANCH  19  20
ENDBRANCH  18  19
ENDBRANCH   6  18
ENDBRANCH   1  10
BRANCH   5  24
ATOM     24  C   UNL     1      -8.021  -5.839   5.713  0.00  0.00    +0.003 A 
ATOM     25  C   UNL     1      -6.837  -6.533   5.965  0.00  0.00    +0.014 A 
ATOM     26  C   UNL     1      -6.422  -6.747   7.259  0.00  0.00    +0.046 A 
ATOM     27  C   UNL     1      -7.178  -6.274   8.331  0.00  0.00    +0.124 A 
ATOM     28  C   UNL     1      -8.361  -5.589   8.073  0.00  0.00    -0.002 A 
ATOM     29  C   UNL     1      -8.779  -5.362   6.784  0.00  0.00    +0.017 A 
ATOM     30  C   UNL     1      -8.966  -5.226   9.416  0.00  0.00    +0.083 C 
ATOM     31  C   UNL     1      -8.173  -6.140  10.381  0.00  0.00    +0.175 C 
ATOM     32  O   UNL     1      -6.944  -6.365   9.669  0.00  0.00    -0.488 OA
ATOM     33  C   UNL     1      -7.911  -5.427  11.710  0.00  0.00    +0.052 C 
ENDBRANCH   5  24
BRANCH   3  34
ATOM     34  C   UNL     1     -10.867  -5.242   1.722  0.00  0.00    +0.065 A 
ATOM     35  C   UNL     1     -10.754  -5.003   0.358  0.00  0.00    +0.028 A 
ATOM     36  C   UNL     1     -11.890  -4.913  -0.422  0.00  0.00    +0.002 A 
ATOM     37  C   UNL     1     -13.139  -5.062   0.153  0.00  0.00    +0.000 A 
ATOM     38  C   UNL     1     -13.254  -5.300   1.511  0.00  0.00    +0.002 A 
ATOM     39  C   UNL     1     -12.122  -5.396   2.295  0.00  0.00    +0.028 A 
ENDBRANCH   3  34
TORSDOF 9
