REMARK  Name = ZINC18195708
REMARK  2 active torsions:
REMARK  status: ('A' for Active; 'I' for Inactive)
REMARK    1  A    between atoms: C_4  and  N_7
REMARK    2  A    between atoms: C_17  and  C_19
REMARK                            x       y       z     vdW  Elec       q    Type
REMARK                         _______ _______ _______ _____ _____    ______ ____
ROOT
ATOM      1  N   UNL     1       3.621  -0.650  -0.037  0.00  0.00    -0.218 N 
ATOM      2  C   UNL     1       3.782  -1.992  -0.051  0.00  0.00    +0.278 A 
ATOM      3  O   UNL     1       2.889  -2.821  -0.053  0.00  0.00    -0.265 OA
ATOM      4  C   UNL     1       5.151  -2.258  -0.065  0.00  0.00    +0.070 A 
ATOM      5  C   UNL     1       5.818  -1.059  -0.056  0.00  0.00    +0.125 A 
ATOM      6  N   UNL     1       4.895  -0.059  -0.048  0.00  0.00    -0.277 N 
ATOM      7  H   UNL     1       5.084   0.892  -0.047  0.00  0.00    +0.189 HD
ATOM      8  N   UNL     1       7.191  -1.003  -0.058  0.00  0.00    -0.303 N 
ATOM      9  C   UNL     1       7.899  -2.145   0.239  0.00  0.00    +0.017 C 
ATOM     10  C   UNL     1       7.331  -3.367   0.239  0.00  0.00    +0.024 C 
ATOM     11  C   UNL     1       5.868  -3.579  -0.088  0.00  0.00    +0.094 C 
ATOM     12  C   UNL     1       8.086  -4.516   0.544  0.00  0.00    +0.162 C 
ATOM     13  O   UNL     1       7.537  -5.600   0.560  0.00  0.00    -0.292 OA
ATOM     14  C   UNL     1       9.555  -4.433   0.849  0.00  0.00    +0.080 C 
ATOM     15  C   UNL     1      10.142  -3.213   0.131  0.00  0.00    +0.014 C 
ATOM     16  C   UNL     1       9.363  -1.974   0.575  0.00  0.00    +0.051 C 
ATOM     17  H   UNL     1       7.652  -0.175  -0.265  0.00  0.00    +0.153 HD
ENDROOT
BRANCH  11  18
ATOM     18  C   UNL     1       5.743  -4.194  -1.458  0.00  0.00    -0.015 A 
ATOM     19  C   UNL     1       6.243  -3.529  -2.562  0.00  0.00    +0.006 A 
ATOM     20  C   UNL     1       6.129  -4.092  -3.819  0.00  0.00    +0.002 A 
ATOM     21  C   UNL     1       5.515  -5.321  -3.974  0.00  0.00    +0.021 A 
ATOM     22  C   UNL     1       5.015  -5.988  -2.871  0.00  0.00    +0.060 A 
ATOM     23  C   UNL     1       5.134  -5.426  -1.610  0.00  0.00    +0.063 A 
ATOM     24 CL   UNL     1       4.514  -6.266  -0.223  0.00  0.00    -0.082 Cl
ATOM     25 CL   UNL     1       4.244  -7.531  -3.065  0.00  0.00    -0.082 Cl
ENDBRANCH  11  18
BRANCH   1  29
ATOM     26  C   UNL     1      -0.017   1.379   0.010  0.00  0.00    +0.000 A 
ATOM     27  C   UNL     1       1.170   2.089   0.002  0.00  0.00    +0.002 A 
ATOM     28  C   UNL     1       2.377   1.420  -0.013  0.00  0.00    +0.028 A 
ATOM     29  C   UNL     1       2.400   0.031  -0.021  0.00  0.00    +0.067 A 
ATOM     30  C   UNL     1       1.206  -0.680  -0.013  0.00  0.00    +0.028 A 
ATOM     31  C   UNL     1       0.002  -0.004   0.002  0.00  0.00    +0.002 A 
ENDBRANCH   1  29
TORSDOF 2
