REMARK  Name = ZINC35968990
REMARK  9 active torsions:
REMARK  status: ('A' for Active; 'I' for Inactive)
REMARK    1  A    between atoms: C_2  and  C_3
REMARK    2  A    between atoms: C_3  and  N_4
REMARK    3  A    between atoms: C_7  and  C_12
REMARK    4  A    between atoms: N_21  and  C_23
REMARK    5  A    between atoms: C_23  and  C_25
REMARK    6  A    between atoms: C_23  and  C_32
REMARK    7  A    between atoms: C_25  and  C_26
REMARK    8  A    between atoms: N_34  and  C_35
REMARK    9  A    between atoms: C_35  and  C_36
REMARK                            x       y       z     vdW  Elec       q    Type
REMARK                         _______ _______ _______ _____ _____    ______ ____
ROOT
ATOM      1  N   UNL     1       1.367  -1.676   1.111  0.00  0.00    -0.253 N 
ATOM      2  C   UNL     1       1.872  -1.230   2.300  0.00  0.00    +0.043 C 
ATOM      3  C   UNL     1       1.946  -2.039   3.375  0.00  0.00    +0.058 C 
ATOM      4  C   UNL     1       1.450  -3.463   3.221  0.00  0.00    +0.142 C 
ATOM      5  N   UNL     1       0.924  -3.846   1.900  0.00  0.00    -0.288 N 
ATOM      6  C   UNL     1       0.911  -2.920   0.921  0.00  0.00    +0.307 C 
ATOM      7  O   UNL     1       0.474  -3.226  -0.172  0.00  0.00    -0.252 OA
ATOM      8  C   UNL     1       2.501  -1.348   4.472  0.00  0.00    +0.247 C 
ATOM      9  O   UNL     1       2.685  -1.837   5.572  0.00  0.00    -0.270 OA
ATOM     10  N   UNL     1       2.802  -0.078   4.144  0.00  0.00    -0.280 N 
ATOM     11  C   UNL     1       2.428   0.108   2.734  0.00  0.00    +0.160 C 
ATOM     12  H   UNL     1       0.592  -4.743   1.740  0.00  0.00    +0.151 HD
ENDROOT
BRANCH   4  13
ATOM     13  C   UNL     1       2.590  -4.391   3.554  0.00  0.00    -0.022 A 
ATOM     14  C   UNL     1       3.572  -4.643   2.615  0.00  0.00    +0.008 A 
ATOM     15  C   UNL     1       4.618  -5.493   2.920  0.00  0.00    +0.038 A 
ATOM     16  C   UNL     1       4.681  -6.093   4.166  0.00  0.00    +0.123 A 
ATOM     17  C   UNL     1       3.696  -5.841   5.106  0.00  0.00    +0.038 A 
ATOM     18  C   UNL     1       2.654  -4.986   4.801  0.00  0.00    +0.008 A 
ATOM     19  F   UNL     1       5.703  -6.926   4.464  0.00  0.00    -0.205 F 
ENDBRANCH   4  13
BRANCH   1  20
ATOM     20  C   UNL     1       1.317  -0.740  -0.015  0.00  0.00    +0.141 C 
BRANCH  20  22
ATOM     21  C   UNL     1      -0.016   1.306   0.009  0.00  0.00    +0.005 C 
ATOM     22  C   UNL     1       0.002  -0.004   0.002  0.00  0.00    -0.015 C 
ENDBRANCH  20  22
ENDBRANCH   1  20
BRANCH  10  23
ATOM     23  C   UNL     1       3.391   0.931   5.028  0.00  0.00    +0.167 C 
BRANCH  23  24
ATOM     24  C   UNL     1       4.733   0.449   5.516  0.00  0.00    +0.234 C 
ATOM     25  O   UNL     1       5.156  -0.631   5.160  0.00  0.00    -0.274 OA
ATOM     26  N   UNL     1       5.464   1.218   6.347  0.00  0.00    -0.311 N 
ATOM     27  H   UNL     1       5.126   2.082   6.631  0.00  0.00    +0.149 HD
BRANCH  26  28
ATOM     28  C   UNL     1       6.769   0.750   6.821  0.00  0.00    +0.135 C 
BRANCH  28  29
ATOM     29  C   UNL     1       7.384   1.804   7.744  0.00  0.00    +0.135 C 
ATOM     30  C   UNL     1       8.809   1.374   8.152  0.00  0.00    +0.035 C 
ATOM     31  C   UNL     1       8.869   1.804   9.643  0.00  0.00    +0.031 C 
ATOM     32  C   UNL     1       7.403   1.554  10.080  0.00  0.00    +0.160 C 
ATOM     33  O   UNL     1       6.605   1.917   8.940  0.00  0.00    -0.375 OA
ENDBRANCH  28  29
ENDBRANCH  26  28
ENDBRANCH  23  24
BRANCH  23  34
ATOM     34  C   UNL     1       2.467   1.163   6.224  0.00  0.00    +0.067 C 
BRANCH  34  35
ATOM     35  C   UNL     1       1.168   1.761   5.747  0.00  0.00    -0.045 A 
ATOM     36  C   UNL     1       1.029   3.133   5.661  0.00  0.00    +0.004 A 
ATOM     37  C   UNL     1      -0.162   3.681   5.223  0.00  0.00    +0.000 A 
ATOM     38  C   UNL     1      -1.214   2.857   4.872  0.00  0.00    +0.000 A 
ATOM     39  C   UNL     1      -1.075   1.484   4.957  0.00  0.00    +0.000 A 
ATOM     40  C   UNL     1       0.118   0.936   5.391  0.00  0.00    +0.004 A 
ENDBRANCH  34  35
ENDBRANCH  23  34
ENDBRANCH  10  23
TORSDOF 9
