REMARK  Name = ZINC12500741
REMARK  6 active torsions:
REMARK  status: ('A' for Active; 'I' for Inactive)
REMARK    1  A    between atoms: C_4  and  C_7
REMARK    2  A    between atoms: C_8  and  C_9
REMARK    3  A    between atoms: N_11  and  C_12
REMARK    4  A    between atoms: C_12  and  N_14
REMARK    5  A    between atoms: N_14  and  N_15
REMARK    6  A    between atoms: C_16  and  C_18
REMARK                            x       y       z     vdW  Elec       q    Type
REMARK                         _______ _______ _______ _____ _____    ______ ____
ROOT
ATOM      1  N   UNL     1       3.738   8.740   0.012  0.00  0.00    -0.245 N 
ATOM      2  H   UNL     1       4.679   8.507   0.001  0.00  0.00    +0.172 HD
ENDROOT
BRANCH   1   3
ATOM      3  N   UNL     1       2.767   7.730   0.016  0.00  0.00    -0.231 N 
ATOM      4  C   UNL     1       3.140   6.435   0.006  0.00  0.00    +0.268 C 
ATOM      5  O   UNL     1       4.321   6.143  -0.008  0.00  0.00    -0.268 OA
ATOM      6  H   UNL     1       1.825   7.963   0.027  0.00  0.00    +0.173 HD
BRANCH   4   7
ATOM      7  C   UNL     1       2.122   5.377   0.010  0.00  0.00    +0.095 A 
ATOM      8  C   UNL     1       2.301   4.028   0.001  0.00  0.00    +0.068 A 
ATOM      9  C   UNL     1       1.184   3.173   0.007  0.00  0.00    +0.008 A 
ATOM     10  C   UNL     1       1.164   1.754   0.000  0.00  0.00    +0.010 A 
ATOM     11  C   UNL     1      -0.013   1.076   0.008  0.00  0.00    +0.001 A 
ATOM     12  C   UNL     1      -1.235   1.737   0.017  0.00  0.00    +0.001 A 
ATOM     13  C   UNL     1      -1.261   3.117   0.030  0.00  0.00    +0.016 A 
ATOM     14  C   UNL     1      -0.075   3.819   0.023  0.00  0.00    +0.021 A 
ATOM     15  S   UNL     1       0.346   5.544   0.028  0.00  0.00    -0.082 S 
ATOM     16 CL   UNL     1       3.905   3.364  -0.018  0.00  0.00    -0.082 Cl
ENDBRANCH   4   7
ENDBRANCH   1   3
BRANCH   1  17
ATOM     17  C   UNL     1       3.364  10.034   0.023  0.00  0.00    +0.153 C 
ATOM     18  S   UNL     1       4.551  11.268   0.017  0.00  0.00    -0.017 S 
BRANCH  17  21
ATOM     19  C   UNL     1       1.682  11.653   0.048  0.00  0.00    +0.242 C 
ATOM     20  O   UNL     1       2.526  12.530   0.044  0.00  0.00    -0.270 OA
ATOM     21  N   UNL     1       2.056  10.358   0.037  0.00  0.00    -0.263 N 
ATOM     22  H   UNL     1       1.383   9.659   0.040  0.00  0.00    +0.157 HD
BRANCH  19  24
ATOM     23  C   UNL     1      -0.112  13.300   0.075  0.00  0.00    +0.013 C 
ATOM     24  C   UNL     1       0.262  12.004   0.064  0.00  0.00    +0.068 C 
BRANCH  23  28
ATOM     25  C   UNL     1      -4.230  14.319   0.120  0.00  0.00    +0.000 A 
ATOM     26  C   UNL     1      -3.273  15.319   0.116  0.00  0.00    +0.001 A 
ATOM     27  C   UNL     1      -1.933  14.996   0.102  0.00  0.00    +0.008 A 
ATOM     28  C   UNL     1      -1.541  13.654   0.091  0.00  0.00    -0.025 A 
ATOM     29  C   UNL     1      -2.513  12.649   0.089  0.00  0.00    +0.008 A 
ATOM     30  C   UNL     1      -3.850  12.988   0.110  0.00  0.00    +0.001 A 
ENDBRANCH  23  28
ENDBRANCH  19  24
ENDBRANCH  17  21
ENDBRANCH   1  17
TORSDOF 6
