REMARK  Name = ZINC04904452
REMARK  10 active torsions:
REMARK  status: ('A' for Active; 'I' for Inactive)
REMARK    1  A    between atoms: C_1  and  C_2
REMARK    2  A    between atoms: C_2  and  N_3
REMARK    3  A    between atoms: N_3  and  N_4
REMARK    4  A    between atoms: C_5  and  C_7
REMARK    5  A    between atoms: C_12  and  O_13
REMARK    6  A    between atoms: C_15  and  C_16
REMARK    7  A    between atoms: N_18  and  C_19
REMARK    8  A    between atoms: C_19  and  C_20
REMARK    9  A    between atoms: C_19  and  C_21
REMARK   10  A    between atoms: C_19  and  C_22
REMARK                            x       y       z     vdW  Elec       q    Type
REMARK                         _______ _______ _______ _____ _____    ______ ____
ROOT
ATOM      1  N   UNL     1      -0.036   1.899  -2.332  0.00  0.00    -0.268 N 
ATOM      2  H   UNL     1       0.930   1.984  -2.309  0.00  0.00    +0.170 HD
ENDROOT
BRANCH   1   3
ATOM      3  N   UNL     1      -0.706   1.862  -3.562  0.00  0.00    -0.233 N 
ATOM      4  C   UNL     1      -0.009   1.946  -4.712  0.00  0.00    +0.264 C 
ATOM      5  O   UNL     1       1.202   2.053  -4.683  0.00  0.00    -0.269 OA
ATOM      6  H   UNL     1      -1.672   1.777  -3.585  0.00  0.00    +0.173 HD
BRANCH   4   7
ATOM      7  C   UNL     1      -0.715   1.907  -6.007  0.00  0.00    +0.081 A 
ATOM      8  C   UNL     1      -2.107   1.790  -6.045  0.00  0.00    +0.036 A 
ATOM      9  C   UNL     1      -2.761   1.755  -7.258  0.00  0.00    +0.042 A 
ATOM     10  C   UNL     1      -2.043   1.835  -8.442  0.00  0.00    +0.023 A 
ATOM     11  C   UNL     1      -0.667   1.951  -8.417  0.00  0.00    +0.047 A 
ATOM     12  C   UNL     1       0.006   1.994  -7.205  0.00  0.00    +0.129 A 
ATOM     13 CL   UNL     1      -4.490   1.610  -7.305  0.00  0.00    -0.084 Cl
BRANCH  12  14
ATOM     14  O   UNL     1       1.357   2.113  -7.180  0.00  0.00    -0.506 OA
ATOM     15  H   UNL     1       1.827   1.268  -7.190  0.00  0.00    +0.292 HD
ENDBRANCH  12  14
ENDBRANCH   4   7
ENDBRANCH   1   3
BRANCH   1  17
ATOM     16  C   UNL     1      -0.021   1.854   0.157  0.00  0.00    +0.062 C 
ATOM     17  C   UNL     1      -0.743   1.814  -1.165  0.00  0.00    +0.024 C 
ATOM     18  C   UNL     1      -2.086   1.696  -1.198  0.00  0.00    +0.087 C 
BRANCH  18  19
ATOM     19  C   UNL     1      -2.803   1.445  -0.004  0.00  0.00    +0.239 C 
ATOM     20  O   UNL     1      -2.202   1.218   1.030  0.00  0.00    -0.271 OA
ATOM     21  N   UNL     1      -4.150   1.456  -0.013  0.00  0.00    -0.307 N 
ATOM     22  H   UNL     1      -4.629   1.637  -0.837  0.00  0.00    +0.150 HD
BRANCH  21  23
ATOM     23  C   UNL     1      -4.893   1.196   1.223  0.00  0.00    +0.026 C 
ATOM     24  C   UNL     1      -4.521   2.246   2.272  0.00  0.00    +0.031 C 
ATOM     25  C   UNL     1      -6.395   1.268   0.941  0.00  0.00    +0.031 C 
ATOM     26  C   UNL     1      -4.538  -0.197   1.748  0.00  0.00    +0.031 C 
ENDBRANCH  21  23
ENDBRANCH  18  19
ENDBRANCH   1  17
TORSDOF 6
