REMARK  Name = ZINC63541004
REMARK  6 active torsions:
REMARK  status: ('A' for Active; 'I' for Inactive)
REMARK    1  A    between atoms: C_1  and  C_2
REMARK    2  A    between atoms: C_2  and  C_3
REMARK    3  A    between atoms: C_2  and  C_4
REMARK    4  A    between atoms: C_6  and  C_10
REMARK    5  A    between atoms: N_12  and  N_13
REMARK    6  A    between atoms: C_14  and  C_15
REMARK                            x       y       z     vdW  Elec       q    Type
REMARK                         _______ _______ _______ _____ _____    ______ ____
ROOT
ATOM      1  C   UNL     1       0.828  -1.015   4.524  0.00  0.00    +0.255 C 
ATOM      2  O   UNL     1       1.243   0.053   4.920  0.00  0.00    -0.272 OA
ATOM      3  N   UNL     1      -0.021  -1.734   5.285  0.00  0.00    -0.205 N 
ATOM      4  H   UNL     1      -0.353  -2.588   4.968  0.00  0.00    +0.177 HD
ENDROOT
BRANCH   1   7
ATOM      5  C   UNL     1       0.731  -0.503   1.223  0.00  0.00    +0.019 C 
ATOM      6  C   UNL     1       0.191  -1.280   2.140  0.00  0.00    +0.022 C 
ATOM      7  C   UNL     1       1.261  -1.540   3.179  0.00  0.00    +0.184 C 
ATOM      8  N   UNL     1       2.436  -0.794   2.685  0.00  0.00    -0.227 NA
ATOM      9  N   UNL     1       2.048  -0.207   1.514  0.00  0.00    -0.283 N 
ATOM     10  H   UNL     1       2.735  -0.104   3.357  0.00  0.00    +0.145 HD
ATOM     11  H   UNL     1       2.621   0.347   0.962  0.00  0.00    +0.166 HD
BRANCH   5  13
ATOM     12  C   UNL     1      -0.019   1.526   0.010  0.00  0.00    +0.013 C 
ATOM     13  C   UNL     1       0.002  -0.004   0.002  0.00  0.00    +0.028 C 
ATOM     14  C   UNL     1       0.718  -0.497  -1.257  0.00  0.00    +0.013 C 
ENDBRANCH   5  13
ENDBRANCH   1   7
BRANCH   3  15
ATOM     15  N   UNL     1      -0.424  -1.246   6.535  0.00  0.00    -0.188 NA
ATOM     16  C   UNL     1      -1.248  -1.944   7.275  0.00  0.00    +0.136 C 
BRANCH  16  17
ATOM     17  C   UNL     1      -1.651  -1.456   8.527  0.00  0.00    +0.000 C 
ATOM     18  C   UNL     1      -2.512  -2.071   9.433  0.00  0.00    +0.004 A 
ATOM     19  C   UNL     1      -3.214  -3.296   9.402  0.00  0.00    +0.010 A 
ATOM     20  C   UNL     1      -3.999  -3.649  10.450  0.00  0.00    +0.001 A 
ATOM     21  C   UNL     1      -4.135  -2.827  11.573  0.00  0.00    +0.002 A 
ATOM     22  C   UNL     1      -3.492  -1.639  11.672  0.00  0.00    +0.026 A 
ATOM     23  C   UNL     1      -2.651  -1.201  10.614  0.00  0.00    +0.043 A 
ATOM     24  N   UNL     1      -1.931  -0.109  10.469  0.00  0.00    -0.380 N 
ATOM     25  C   UNL     1      -1.238  -0.155   9.178  0.00  0.00    +0.150 C 
ATOM     26  H   UNL     1      -1.865   0.611  11.116  0.00  0.00    +0.160 HD
ENDBRANCH  16  17
ENDBRANCH   3  15
TORSDOF 4
