REMARK  Name = ZINC20716129
REMARK  9 active torsions:
REMARK  status: ('A' for Active; 'I' for Inactive)
REMARK    1  A    between atoms: C_1  and  C_2
REMARK    2  A    between atoms: C_2  and  C_3
REMARK    3  A    between atoms: C_2  and  C_4
REMARK    4  A    between atoms: C_4  and  C_5
REMARK    5  A    between atoms: C_5  and  C_7
REMARK    6  A    between atoms: C_5  and  N_11
REMARK    7  A    between atoms: C_7  and  O_9
REMARK    8  A    between atoms: O_9  and  C_10
REMARK    9  A    between atoms: C_23  and  C_25
REMARK                            x       y       z     vdW  Elec       q    Type
REMARK                         _______ _______ _______ _____ _____    ______ ____
ROOT
ATOM      1  N   UNL     1      -2.426   1.011  -3.538  0.00  0.00    -0.286 N 
ATOM      2  C   UNL     1      -2.433   1.588  -2.319  0.00  0.00    +0.304 C 
ATOM      3  O   UNL     1      -2.437   0.896  -1.319  0.00  0.00    -0.253 OA
ATOM      4  N   UNL     1      -2.436   2.931  -2.209  0.00  0.00    -0.273 N 
ATOM      5  C   UNL     1      -2.327   3.580  -0.894  0.00  0.00    +0.116 C 
ATOM      6  C   UNL     1      -3.619   4.355  -0.606  0.00  0.00    +0.076 C 
ATOM      7  C   UNL     1      -4.004   5.135  -1.839  0.00  0.00    +0.066 A 
ATOM      8  C   UNL     1      -3.533   4.881  -3.079  0.00  0.00    +0.064 A 
ATOM      9  N   UNL     1      -4.108   5.783  -3.920  0.00  0.00    -0.346 N 
ATOM     10  H   UNL     1      -3.966   5.851  -4.877  0.00  0.00    +0.167 HD
ATOM     11  C   UNL     1      -4.914   6.567  -3.167  0.00  0.00    +0.197 A 
ATOM     12  N   UNL     1      -4.844   6.171  -1.923  0.00  0.00    -0.240 NA
ATOM     13  C   UNL     1      -2.541   3.788  -3.405  0.00  0.00    +0.159 C 
ATOM     14  H   UNL     1      -2.495   1.560  -4.334  0.00  0.00    +0.151 HD
ENDROOT
BRANCH  13  15
ATOM     15  C   UNL     1      -1.197   4.387  -3.726  0.00  0.00    +0.017 A 
ATOM     16  C   UNL     1      -0.929   5.702  -3.393  0.00  0.00    +0.047 A 
ATOM     17  C   UNL     1       0.306   6.253  -3.689  0.00  0.00    +0.124 A 
ATOM     18  C   UNL     1       1.274   5.487  -4.317  0.00  0.00    +0.041 A 
ATOM     19  C   UNL     1       1.006   4.173  -4.650  0.00  0.00    +0.041 A 
ATOM     20  C   UNL     1      -0.228   3.620  -4.350  0.00  0.00    +0.129 A 
ATOM     21  F   UNL     1      -0.488   2.334  -4.671  0.00  0.00    -0.205 F 
ATOM     22  F   UNL     1       0.568   7.537  -3.364  0.00  0.00    -0.205 F 
ENDBRANCH  13  15
BRANCH   1  23
ATOM     23  C   UNL     1      -2.315  -0.444  -3.659  0.00  0.00    +0.183 C 
BRANCH  23  24
ATOM     24  C   UNL     1      -0.862  -0.842  -3.622  0.00  0.00    +0.327 C 
ATOM     25  O   UNL     1      -0.007   0.004  -3.506  0.00  0.00    -0.249 OA
BRANCH  24  26
ATOM     26  O   UNL     1      -0.517  -2.136  -3.717  0.00  0.00    -0.467 OA
ATOM     27  C   UNL     1       0.878  -2.441  -3.675  0.00  0.00    +0.280 C 
ENDBRANCH  24  26
ENDBRANCH  23  24
BRANCH  23  28
ATOM     28  C   UNL     1      -2.933  -0.895  -4.984  0.00  0.00    +0.036 C 
BRANCH  28  30
ATOM     29  C   UNL     1      -5.012  -0.869  -6.370  0.00  0.00    +0.007 C 
ATOM     30  C   UNL     1      -4.425  -0.555  -4.992  0.00  0.00    -0.015 C 
ATOM     31  C   UNL     1      -5.144  -1.389  -3.929  0.00  0.00    +0.007 C 
ENDBRANCH  28  30
ENDBRANCH  23  28
ENDBRANCH   1  23
TORSDOF 6
