REMARK  Name = ZINC09846778
REMARK  9 active torsions:
REMARK  status: ('A' for Active; 'I' for Inactive)
REMARK    1  A    between atoms: C_1  and  C_2
REMARK    2  A    between atoms: N_11  and  C_15
REMARK    3  A    between atoms: C_15  and  C_16
REMARK    4  A    between atoms: N_18  and  C_19
REMARK    5  A    between atoms: C_19  and  C_20
REMARK    6  A    between atoms: C_20  and  C_22
REMARK    7  A    between atoms: C_20  and  C_30
REMARK    8  A    between atoms: C_25  and  O_28
REMARK    9  A    between atoms: O_28  and  C_29
REMARK                            x       y       z     vdW  Elec       q    Type
REMARK                         _______ _______ _______ _____ _____    ______ ____
ROOT
ATOM      1  C   UNL     1       2.544   4.210   1.249  0.00  0.00    +0.117 C 
ENDROOT
BRANCH   1   4
ATOM      2  C   UNL     1       2.295   4.350   3.669  0.00  0.00    +0.231 C 
ATOM      3  O   UNL     1       3.497   4.220   3.771  0.00  0.00    -0.274 OA
ATOM      4  N   UNL     1       1.719   4.358   2.451  0.00  0.00    -0.313 N 
ATOM      5  H   UNL     1       0.758   4.462   2.370  0.00  0.00    +0.149 HD
BRANCH   2   6
ATOM      6  C   UNL     1       1.446   4.503   4.905  0.00  0.00    +0.213 C 
BRANCH   6  16
ATOM      7  C   UNL     1       5.516   3.525   6.438  0.00  0.00    +0.010 C 
ATOM      8  C   UNL     1       4.889   3.134   7.777  0.00  0.00    +0.018 C 
ATOM      9  C   UNL     1       5.783   3.623   8.921  0.00  0.00    +0.006 C 
ATOM     10  C   UNL     1       5.145   3.250  10.260  0.00  0.00    +0.000 C 
ATOM     11  C   UNL     1       3.772   3.916  10.377  0.00  0.00    +0.003 C 
ATOM     12  C   UNL     1       2.872   3.428   9.239  0.00  0.00    +0.035 C 
ATOM     13  C   UNL     1       3.511   3.775   7.899  0.00  0.00    +0.115 C 
ATOM     14  C   UNL     1       2.617   3.334   6.763  0.00  0.00    +0.247 C 
ATOM     15  O   UNL     1       2.260   2.204   6.506  0.00  0.00    -0.273 OA
ATOM     16  N   UNL     1       2.303   4.462   6.093  0.00  0.00    -0.215 N 
ATOM     17  C   UNL     1       2.865   5.540   6.653  0.00  0.00    +0.310 C 
ATOM     18  O   UNL     1       2.724   6.671   6.231  0.00  0.00    -0.252 OA
ATOM     19  N   UNL     1       3.604   5.231   7.735  0.00  0.00    -0.285 N 
ATOM     20  H   UNL     1       4.100   5.848   8.296  0.00  0.00    +0.151 HD
ENDBRANCH   6  16
ENDBRANCH   2   6
ENDBRANCH   1   4
BRANCH   1  21
ATOM     21  C   UNL     1       1.650   4.252   0.009  0.00  0.00    +0.068 C 
BRANCH  21  22
ATOM     22  C   UNL     1       0.730   3.058   0.011  0.00  0.00    -0.013 A 
ATOM     23  C   UNL     1       1.098   1.767   0.001  0.00  0.00    +0.088 A 
ATOM     24  N   UNL     1      -0.011   0.966   0.007  0.00  0.00    -0.360 N 
ATOM     25  H   UNL     1       0.002  -0.004   0.002  0.00  0.00    +0.165 HD
ATOM     26  C   UNL     1      -1.149   1.741   0.016  0.00  0.00    +0.047 A 
ATOM     27  C   UNL     1      -0.734   3.086   0.024  0.00  0.00    +0.003 A 
ATOM     28  C   UNL     1      -1.685   4.108   0.038  0.00  0.00    +0.010 A 
ATOM     29  C   UNL     1      -3.016   3.796   0.048  0.00  0.00    +0.001 A 
ATOM     30  C   UNL     1      -3.430   2.472   0.045  0.00  0.00    +0.002 A 
ATOM     31  C   UNL     1      -2.508   1.447   0.032  0.00  0.00    +0.026 A 
ENDBRANCH  21  22
BRANCH  21  32
ATOM     32  C   UNL     1       2.508   4.223  -1.230  0.00  0.00    -0.038 A 
ATOM     33  C   UNL     1       3.354   3.154  -1.458  0.00  0.00    +0.008 A 
ATOM     34  C   UNL     1       4.138   3.123  -2.596  0.00  0.00    +0.046 A 
ATOM     35  C   UNL     1       4.083   4.170  -3.503  0.00  0.00    +0.120 A 
ATOM     36  C   UNL     1       3.237   5.244  -3.269  0.00  0.00    +0.046 A 
ATOM     37  C   UNL     1       2.451   5.268  -2.134  0.00  0.00    +0.008 A 
BRANCH  35  38
ATOM     38  O   UNL     1       4.858   4.144  -4.620  0.00  0.00    -0.495 OA
ATOM     39  C   UNL     1       5.705   3.007  -4.796  0.00  0.00    +0.277 C 
ENDBRANCH  35  38
ENDBRANCH  21  32
ENDBRANCH   1  21
TORSDOF 7
