REMARK  Name = ZINC37000160
REMARK  8 active torsions:
REMARK  status: ('A' for Active; 'I' for Inactive)
REMARK    1  A    between atoms: C_1  and  C_2
REMARK    2  A    between atoms: C_2  and  C_4
REMARK    3  A    between atoms: C_2  and  N_12
REMARK    4  A    between atoms: C_4  and  C_5
REMARK    5  A    between atoms: N_12  and  C_13
REMARK    6  A    between atoms: C_13  and  C_14
REMARK    7  A    between atoms: C_17  and  O_21
REMARK    8  A    between atoms: C_19  and  O_20
REMARK                            x       y       z     vdW  Elec       q    Type
REMARK                         _______ _______ _______ _____ _____    ______ ____
ROOT
ATOM      1  N   UNL     1       0.713  -0.491   1.192  0.00  0.00    -0.309 NA
ATOM      2  H   UNL     1       1.151  -1.381   1.012  0.00  0.00    +0.123 HD
ENDROOT
BRANCH   1   4
ATOM      3  C   UNL     1      -0.019   1.526   0.010  0.00  0.00    +0.024 C 
ATOM      4  C   UNL     1       0.002  -0.004   0.002  0.00  0.00    +0.055 C 
BRANCH   4   5
ATOM      5  C   UNL     1       0.718  -0.497  -1.257  0.00  0.00    +0.053 C 
BRANCH   5   6
ATOM      6  C   UNL     1       0.632  -2.000  -1.327  0.00  0.00    -0.046 A 
ATOM      7  C   UNL     1       1.612  -2.777  -0.739  0.00  0.00    +0.005 A 
ATOM      8  C   UNL     1       1.532  -4.156  -0.803  0.00  0.00    +0.015 A 
ATOM      9  C   UNL     1       0.472  -4.758  -1.456  0.00  0.00    +0.018 A 
ATOM     10  C   UNL     1      -0.508  -3.980  -2.046  0.00  0.00    +0.015 A 
ATOM     11  C   UNL     1      -0.431  -2.602  -1.976  0.00  0.00    +0.005 A 
ATOM     12 BR   UNL     1       0.364  -6.644  -1.545  0.00  0.00    -0.050 Br
ENDBRANCH   5   6
ENDBRANCH   4   5
ENDBRANCH   1   4
BRANCH   1  13
ATOM     13  C   UNL     1      -0.191  -0.572   2.348  0.00  0.00    +0.120 C 
BRANCH  13  14
ATOM     14  C   UNL     1       0.572  -1.074   3.547  0.00  0.00    +0.008 A 
ATOM     15  C   UNL     1       0.481  -2.402   3.917  0.00  0.00    +0.012 A 
ATOM     16  C   UNL     1       1.178  -2.865   5.016  0.00  0.00    +0.046 A 
ATOM     17  C   UNL     1       1.973  -1.997   5.751  0.00  0.00    +0.120 A 
ATOM     18  C   UNL     1       2.067  -0.664   5.382  0.00  0.00    +0.091 A 
ATOM     19  C   UNL     1       1.370  -0.203   4.275  0.00  0.00    +0.125 A 
BRANCH  19  20
ATOM     20  O   UNL     1       1.464   1.102   3.907  0.00  0.00    -0.506 OA
ATOM     21  H   UNL     1       0.803   1.675   4.320  0.00  0.00    +0.292 HD
ENDBRANCH  19  20
BRANCH  17  22
ATOM     22  O   UNL     1       2.659  -2.453   6.832  0.00  0.00    -0.507 OA
ATOM     23  H   UNL     1       3.547  -2.777   6.626  0.00  0.00    +0.292 HD
ENDBRANCH  17  22
ENDBRANCH  13  14
ENDBRANCH   1  13
TORSDOF 7
