REMARK  Name = ZINC40687330
REMARK  5 active torsions:
REMARK  status: ('A' for Active; 'I' for Inactive)
REMARK    1  A    between atoms: C_11  and  N_25
REMARK    2  A    between atoms: C_12  and  N_16
REMARK    3  A    between atoms: N_16  and  C_17
REMARK    4  A    between atoms: C_17  and  C_18
REMARK    5  A    between atoms: C_18  and  C_19
REMARK                            x       y       z     vdW  Elec       q    Type
REMARK                         _______ _______ _______ _____ _____    ______ ____
ROOT
ATOM      1  C   UNL     1       0.954  -1.692  -3.278  0.00  0.00    +0.000 A 
ATOM      2  C   UNL     1       2.244  -1.305  -3.590  0.00  0.00    +0.002 A 
ATOM      3  C   UNL     1       3.143  -1.012  -2.587  0.00  0.00    +0.024 A 
ATOM      4  C   UNL     1       2.758  -1.103  -1.248  0.00  0.00    +0.038 A 
ATOM      5  C   UNL     1       1.462  -1.491  -0.945  0.00  0.00    -0.025 A 
ATOM      6  C   UNL     1       0.565  -1.784  -1.954  0.00  0.00    +0.005 A 
ATOM      7  C   UNL     1       1.304  -1.509   0.558  0.00  0.00    +0.056 C 
ATOM      8  C   UNL     1       2.679  -1.080   1.097  0.00  0.00    +0.117 C 
ATOM      9  N   UNL     1       3.503  -0.853  -0.093  0.00  0.00    -0.284 N 
ATOM     10  C   UNL     1       4.833  -0.448  -0.076  0.00  0.00    +0.129 A 
ATOM     11  C   UNL     1       5.163   0.906  -0.143  0.00  0.00    +0.104 A 
ATOM     12  C   UNL     1       6.514   1.258  -0.122  0.00  0.00    +0.145 A 
ATOM     13  N   UNL     1       7.429   0.295  -0.038  0.00  0.00    -0.221 NA
ATOM     14  C   UNL     1       7.075  -0.972   0.023  0.00  0.00    +0.200 A 
ATOM     15  N   UNL     1       5.812  -1.347   0.011  0.00  0.00    -0.332 N 
ATOM     16  H   UNL     1       5.592  -2.290   0.062  0.00  0.00    +0.168 HD
ENDROOT
BRANCH  11  17
ATOM     17  N   UNL     1       4.163   1.889  -0.231  0.00  0.00    -0.353 N 
ATOM     18  H   UNL     1       3.230   1.639  -0.153  0.00  0.00    +0.143 HD
ATOM     19  H   UNL     1       4.407   2.817  -0.370  0.00  0.00    +0.143 HD
ENDBRANCH  11  17
BRANCH  12  20
ATOM     20  N   UNL     1       6.897   2.592  -0.187  0.00  0.00    -0.327 N 
ATOM     21  H   UNL     1       6.224   3.288  -0.248  0.00  0.00    +0.148 HD
BRANCH  20  22
ATOM     22  C   UNL     1       8.318   2.948  -0.164  0.00  0.00    +0.107 C 
BRANCH  22  23
ATOM     23  C   UNL     1       8.464   4.469  -0.247  0.00  0.00    +0.049 C 
BRANCH  23  24
ATOM     24  C   UNL     1       9.926   4.835  -0.222  0.00  0.00    -0.072 C 
ATOM     25  C   UNL     1      10.524   5.019  -1.355  0.00  0.00    -0.028 C 
ATOM     26  C   UNL     1      11.976   5.376  -1.492  0.00  0.00    +0.027 C 
ATOM     27  C   UNL     1      12.517   5.899  -0.159  0.00  0.00    +0.004 C 
ATOM     28  C   UNL     1      12.117   4.915   0.947  0.00  0.00    +0.005 C 
ATOM     29  C   UNL     1      10.595   4.970   1.114  0.00  0.00    +0.030 C 
ENDBRANCH  23  24
ENDBRANCH  22  23
ENDBRANCH  20  22
ENDBRANCH  12  20
TORSDOF 5
