REMARK  Name = ZINC39929979
REMARK  9 active torsions:
REMARK  status: ('A' for Active; 'I' for Inactive)
REMARK    1  A    between atoms: C_1  and  C_2
REMARK    2  A    between atoms: C_2  and  C_3
REMARK    3  A    between atoms: C_2  and  C_4
REMARK    4  A    between atoms: C_4  and  O_5
REMARK    5  A    between atoms: O_5  and  C_6
REMARK    6  A    between atoms: C_9  and  C_14
REMARK    7  A    between atoms: C_11  and  O_12
REMARK    8  A    between atoms: O_12  and  C_13
REMARK    9  A    between atoms: C_19  and  C_22
REMARK                            x       y       z     vdW  Elec       q    Type
REMARK                         _______ _______ _______ _____ _____    ______ ____
ROOT
ATOM      1  C   UNL     1      -7.434  -1.791  -1.830  0.00  0.00    +0.247 C 
ATOM      2  O   UNL     1      -8.084  -1.438  -2.795  0.00  0.00    -0.270 OA
ATOM      3  N   UNL     1      -7.993  -2.584  -0.894  0.00  0.00    -0.293 N 
ATOM      4  C   UNL     1      -9.355  -3.118  -1.059  0.00  0.00    +0.113 C 
ATOM      5  C   UNL     1      -9.261  -4.644  -1.121  0.00  0.00    +0.054 C 
ATOM      6  C   UNL     1      -8.360  -5.157  -0.037  0.00  0.00    -0.043 C 
ATOM      7  C   UNL     1      -7.468  -4.413   0.605  0.00  0.00    -0.004 C 
ATOM      8  C   UNL     1      -7.265  -2.953   0.328  0.00  0.00    +0.135 C 
ENDROOT
BRANCH   6   9
ATOM      9  C   UNL     1      -8.468  -6.516   0.323  0.00  0.00    -0.016 C 
ATOM     10  C   UNL     1      -9.244  -7.489  -0.294  0.00  0.00    +0.003 A 
ATOM     11  C   UNL     1     -10.120  -7.451  -1.404  0.00  0.00    +0.010 A 
ATOM     12  C   UNL     1     -10.761  -8.581  -1.794  0.00  0.00    +0.001 A 
ATOM     13  C   UNL     1     -10.579  -9.795  -1.125  0.00  0.00    +0.002 A 
ATOM     14  C   UNL     1      -9.756  -9.907  -0.056  0.00  0.00    +0.026 A 
ATOM     15  C   UNL     1      -9.049  -8.767   0.414  0.00  0.00    +0.043 A 
ATOM     16  N   UNL     1      -8.206  -8.616   1.413  0.00  0.00    -0.380 N 
ATOM     17  C   UNL     1      -7.757  -7.221   1.457  0.00  0.00    +0.149 C 
ATOM     18  H   UNL     1      -7.924  -9.317   2.021  0.00  0.00    +0.160 HD
ENDBRANCH   6   9
BRANCH   1  22
ATOM     19  C   UNL     1      -3.398  -0.530  -1.405  0.00  0.00    +0.162 A 
ATOM     20  C   UNL     1      -4.249  -0.517  -0.308  0.00  0.00    +0.050 A 
ATOM     21  C   UNL     1      -5.558  -0.925  -0.442  0.00  0.00    +0.017 A 
ATOM     22  C   UNL     1      -6.032  -1.353  -1.685  0.00  0.00    +0.041 A 
ATOM     23  C   UNL     1      -5.176  -1.367  -2.789  0.00  0.00    +0.062 A 
ATOM     24  C   UNL     1      -3.865  -0.952  -2.648  0.00  0.00    +0.162 A 
BRANCH  24  25
ATOM     25  O   UNL     1      -3.031  -0.959  -3.722  0.00  0.00    -0.491 OA
ATOM     26  C   UNL     1      -3.577  -1.403  -4.965  0.00  0.00    +0.277 C 
ENDBRANCH  24  25
BRANCH  19  27
ATOM     27  O   UNL     1      -2.108  -0.127  -1.267  0.00  0.00    -0.488 OA
BRANCH  27  28
ATOM     28  C   UNL     1      -1.695   0.292   0.036  0.00  0.00    +0.232 C 
BRANCH  28  30
ATOM     29  C   UNL     1      -0.065   1.940  -0.896  0.00  0.00    +0.010 C 
ATOM     30  C   UNL     1      -0.223   0.707  -0.005  0.00  0.00    +0.020 C 
ATOM     31  C   UNL     1       0.254   1.036   1.411  0.00  0.00    +0.010 C 
ENDBRANCH  28  30
ENDBRANCH  27  28
ENDBRANCH  19  27
ENDBRANCH   1  22
TORSDOF 6
