REMARK  Name = ZINC36998874
REMARK  6 active torsions:
REMARK  status: ('A' for Active; 'I' for Inactive)
REMARK    1  A    between atoms: C_4  and  C_7
REMARK    2  A    between atoms: C_9  and  C_27
REMARK    3  A    between atoms: C_11  and  C_22
REMARK    4  A    between atoms: C_11  and  O_26
REMARK    5  A    between atoms: C_16  and  C_18
REMARK    6  A    between atoms: C_27  and  C_29
REMARK                            x       y       z     vdW  Elec       q    Type
REMARK                         _______ _______ _______ _____ _____    ______ ____
ROOT
ATOM      1  C   UNL     1       3.670  -0.513  -0.716  0.00  0.00    +0.156 C 
ATOM      2  C   UNL     1       3.643  -1.758  -1.610  0.00  0.00    +0.149 C 
ATOM      3  C   UNL     1       2.776  -2.843  -0.962  0.00  0.00    +0.242 C 
ATOM      4  N   UNL     1       3.386  -3.227   0.326  0.00  0.00    -0.278 N 
ATOM      5  C   UNL     1       3.846  -2.185   1.122  0.00  0.00    +0.217 A 
ATOM      6  N   UNL     1       3.982  -0.918   0.654  0.00  0.00    -0.224 N 
ATOM      7  N   UNL     1       4.459  -0.148   1.715  0.00  0.00    -0.144 NA
ATOM      8  C   UNL     1       4.588  -0.954   2.739  0.00  0.00    +0.256 A 
ATOM      9  N   UNL     1       4.213  -2.193   2.375  0.00  0.00    -0.190 NA
ATOM     10  H   UNL     1       3.462  -4.154   0.601  0.00  0.00    +0.152 HD
ENDROOT
BRANCH   1  14
ATOM     11  C   UNL     1      -0.149   1.399  -0.808  0.00  0.00    +0.000 A 
ATOM     12  C   UNL     1       0.539   1.287   0.386  0.00  0.00    +0.000 A 
ATOM     13  C   UNL     1       1.775   0.668   0.415  0.00  0.00    +0.006 A 
ATOM     14  C   UNL     1       2.322   0.161  -0.748  0.00  0.00    -0.022 A 
ATOM     15  C   UNL     1       1.634   0.273  -1.942  0.00  0.00    +0.006 A 
ATOM     16  C   UNL     1       0.398   0.893  -1.972  0.00  0.00    +0.000 A 
ENDBRANCH   1  14
BRANCH   8  17
ATOM     17  C   UNL     1       5.076  -0.555   4.108  0.00  0.00    +0.454 C 
ATOM     18  F   UNL     1       3.993  -0.496   4.991  0.00  0.00    -0.163 F 
ATOM     19  F   UNL     1       6.001  -1.500   4.566  0.00  0.00    -0.163 F 
ATOM     20  F   UNL     1       5.689   0.701   4.037  0.00  0.00    -0.163 F 
ENDBRANCH   8  17
BRANCH   3  21
ATOM     21  C   UNL     1       1.367  -2.297  -0.720  0.00  0.00    +0.436 C 
ATOM     22  F   UNL     1       0.898  -1.684  -1.886  0.00  0.00    -0.166 F 
ATOM     23  F   UNL     1       0.513  -3.349  -0.369  0.00  0.00    -0.166 F 
ATOM     24  F   UNL     1       1.402  -1.360   0.318  0.00  0.00    -0.166 F 
ENDBRANCH   3  21
BRANCH   3  25
ATOM     25  O   UNL     1       2.711  -3.983  -1.820  0.00  0.00    -0.364 OA
ATOM     26  H   UNL     1       2.177  -4.709  -1.470  0.00  0.00    +0.212 HD
ENDBRANCH   3  25
BRANCH   2  27
ATOM     27  C   UNL     1       5.046  -2.279  -1.786  0.00  0.00    +0.180 C 
ATOM     28  O   UNL     1       5.868  -2.119  -0.907  0.00  0.00    -0.291 OA
BRANCH  27  29
ATOM     29  C   UNL     1       5.405  -2.953  -2.975  0.00  0.00    +0.055 A 
ATOM     30  C   UNL     1       6.630  -3.510  -3.332  0.00  0.00    +0.019 A 
ATOM     31  C   UNL     1       6.674  -4.106  -4.566  0.00  0.00    +0.008 A 
ATOM     32  C   UNL     1       5.556  -4.114  -5.337  0.00  0.00    +0.046 A 
ATOM     33  S   UNL     1       4.407  -3.319  -4.405  0.00  0.00    -0.094 S 
ENDBRANCH  27  29
ENDBRANCH   2  27
TORSDOF 6
