REMARK  Name = ZINC05045662
REMARK  8 active torsions:
REMARK  status: ('A' for Active; 'I' for Inactive)
REMARK    1  A    between atoms: C_1  and  C_2
REMARK    2  A    between atoms: C_2  and  S_3
REMARK    3  A    between atoms: S_3  and  C_4
REMARK    4  A    between atoms: C_4  and  C_5
REMARK    5  A    between atoms: C_7  and  O_26
REMARK    6  A    between atoms: C_9  and  O_25
REMARK    7  A    between atoms: C_11  and  N_14
REMARK    8  A    between atoms: C_22  and  N_23
REMARK                            x       y       z     vdW  Elec       q    Type
REMARK                         _______ _______ _______ _____ _____    ______ ____
ROOT
ATOM      1  C   UNL     1      -3.512   8.396   0.116  0.00  0.00    +0.162 C 
ATOM      2  C   UNL     1      -4.208   7.863   1.383  0.00  0.00    +0.177 C 
ATOM      3  C   UNL     1      -3.717   6.399   1.499  0.00  0.00    +0.195 C 
ATOM      4  C   UNL     1      -3.259   6.095   0.050  0.00  0.00    +0.253 C 
ATOM      5  O   UNL     1      -2.675   7.341  -0.387  0.00  0.00    -0.347 OA
ENDROOT
BRANCH   4   6
ATOM      6  N   UNL     1      -2.259   5.025   0.040  0.00  0.00    -0.285 N 
ATOM      7  C   UNL     1      -0.905   5.186   0.050  0.00  0.00    +0.203 A 
ATOM      8  N   UNL     1      -0.319   4.024   0.038  0.00  0.00    -0.231 NA
ATOM      9  C   UNL     1      -1.256   3.046   0.030  0.00  0.00    +0.147 A 
ATOM     10  C   UNL     1      -2.512   3.676   0.034  0.00  0.00    +0.169 A 
ATOM     11  N   UNL     1      -3.611   2.928   0.035  0.00  0.00    -0.198 NA
ATOM     12  C   UNL     1      -3.528   1.613   0.028  0.00  0.00    +0.226 A 
ATOM     13  N   UNL     1      -2.369   0.977   0.019  0.00  0.00    -0.201 NA
ATOM     14  C   UNL     1      -1.219   1.641   0.017  0.00  0.00    +0.149 A 
ATOM     15 CL   UNL     1      -4.993   0.683   0.030  0.00  0.00    -0.041 Cl
BRANCH  14  16
ATOM     16  N   UNL     1      -0.011   0.966   0.007  0.00  0.00    -0.341 N 
ATOM     17  H   UNL     1       0.055   0.391   0.823  0.00  0.00    +0.144 HD
ATOM     18  H   UNL     1       0.822   1.462   0.002  0.00  0.00    +0.144 HD
ENDBRANCH  14  16
ENDBRANCH   4   6
BRANCH   3  19
ATOM     19  O   UNL     1      -2.622   6.300   2.412  0.00  0.00    -0.385 OA
ATOM     20  H   UNL     1      -2.859   6.482   3.332  0.00  0.00    +0.210 HD
ENDBRANCH   3  19
BRANCH   2  21
ATOM     21  O   UNL     1      -5.628   7.903   1.228  0.00  0.00    -0.386 OA
ATOM     22  H   UNL     1      -6.116   7.526   1.972  0.00  0.00    +0.210 HD
ENDBRANCH   2  21
BRANCH   1  23
ATOM     23  C   UNL     1      -2.657   9.615   0.467  0.00  0.00    +0.103 C 
BRANCH  23  24
ATOM     24  S   UNL     1      -1.961  10.322  -1.052  0.00  0.00    -0.158 S 
BRANCH  24  26
ATOM     25  C   UNL     1      -0.337  12.435  -1.668  0.00  0.00    +0.015 C 
ATOM     26  C   UNL     1      -0.988  11.739  -0.471  0.00  0.00    +0.066 C 
ENDBRANCH  24  26
ENDBRANCH  23  24
ENDBRANCH   1  23
TORSDOF 7
