REMARK  Name = ZINC47145807
REMARK  10 active torsions:
REMARK  status: ('A' for Active; 'I' for Inactive)
REMARK    1  A    between atoms: C_1  and  C_2
REMARK    2  A    between atoms: C_2  and  O_3
REMARK    3  A    between atoms: O_3  and  C_4
REMARK    4  A    between atoms: C_4  and  C_6
REMARK    5  A    between atoms: C_9  and  N_12
REMARK    6  A    between atoms: C_17  and  C_31
REMARK    7  A    between atoms: C_34  and  C_37
REMARK    8  A    between atoms: C_37  and  C_38
REMARK    9  A    between atoms: C_37  and  C_39
REMARK   10  A    between atoms: C_37  and  C_40
REMARK                            x       y       z     vdW  Elec       q    Type
REMARK                         _______ _______ _______ _____ _____    ______ ____
ROOT
ATOM      1  N   UNL     1       3.369  -3.896  -5.888  0.00  0.00    -0.209 N 
ATOM      2  C   UNL     1       3.502  -5.228  -6.121  0.00  0.00    +0.232 C 
ATOM      3  O   UNL     1       3.292  -6.129  -5.338  0.00  0.00    -0.274 OA
ATOM      4  C   UNL     1       3.960  -5.357  -7.540  0.00  0.00    +0.110 C 
ATOM      5  C   UNL     1       4.870  -6.498  -7.919  0.00  0.00    +0.072 C 
ATOM      6  C   UNL     1       5.263  -6.336  -9.360  0.00  0.00    +0.033 A 
ATOM      7  C   UNL     1       5.237  -5.232 -10.139  0.00  0.00    +0.088 A 
ATOM      8  N   UNL     1       5.648  -5.424 -11.434  0.00  0.00    -0.311 N 
ATOM      9  H   UNL     1       5.648  -4.682 -12.058  0.00  0.00    +0.170 HD
ATOM     10  C   UNL     1       6.053  -6.644 -11.837  0.00  0.00    +0.289 A 
ATOM     11  O   UNL     1       6.449  -6.983 -12.938  0.00  0.00    -0.260 OA
ATOM     12  S   UNL     1       5.881  -7.587 -10.455  0.00  0.00    -0.030 S 
ATOM     13  S   UNL     1       4.712  -3.654  -9.483  0.00  0.00    -0.093 S 
ATOM     14  C   UNL     1       4.762  -4.031  -7.702  0.00  0.00    +0.152 C 
ATOM     15  C   UNL     1       3.914  -3.117  -6.858  0.00  0.00    +0.240 C 
ATOM     16  O   UNL     1       3.751  -1.926  -7.012  0.00  0.00    -0.274 OA
ENDROOT
BRANCH   1  20
ATOM     17  C   UNL     1       1.454  -2.347  -2.525  0.00  0.00    +0.059 A 
ATOM     18  C   UNL     1       1.993  -1.484  -3.483  0.00  0.00    +0.017 A 
ATOM     19  C   UNL     1       2.625  -2.000  -4.593  0.00  0.00    +0.025 A 
ATOM     20  C   UNL     1       2.727  -3.376  -4.760  0.00  0.00    +0.044 A 
ATOM     21  C   UNL     1       2.192  -4.238  -3.808  0.00  0.00    +0.025 A 
ATOM     22  C   UNL     1       1.563  -3.730  -2.694  0.00  0.00    +0.017 A 
BRANCH  17  23
ATOM     23  C   UNL     1       0.776  -1.799  -1.335  0.00  0.00    +0.339 C 
ATOM     24  O   UNL     1       0.312  -2.550  -0.500  0.00  0.00    -0.245 OA
BRANCH  23  25
ATOM     25  O   UNL     1       0.671  -0.465  -1.174  0.00  0.00    -0.461 OA
BRANCH  25  27
ATOM     26  C   UNL     1      -0.019   1.526   0.010  0.00  0.00    +0.048 C 
ATOM     27  C   UNL     1       0.002  -0.004   0.002  0.00  0.00    +0.229 C 
ENDBRANCH  25  27
ENDBRANCH  23  25
ENDBRANCH  17  23
ENDBRANCH   1  20
BRANCH   5  28
ATOM     28  C   UNL     1       4.147  -7.807  -7.731  0.00  0.00    -0.039 A 
ATOM     29  C   UNL     1       2.988  -8.064  -8.440  0.00  0.00    +0.004 A 
ATOM     30  C   UNL     1       2.324  -9.264  -8.268  0.00  0.00    +0.004 A 
ATOM     31  C   UNL     1       2.819 -10.208  -7.388  0.00  0.00    -0.042 A 
ATOM     32  C   UNL     1       3.979  -9.951  -6.680  0.00  0.00    +0.004 A 
ATOM     33  C   UNL     1       4.645  -8.753  -6.855  0.00  0.00    +0.004 A 
BRANCH  31  34
ATOM     34  C   UNL     1       2.095 -11.516  -7.199  0.00  0.00    -0.013 C 
ATOM     35  C   UNL     1       2.026 -12.258  -8.536  0.00  0.00    +0.015 C 
ATOM     36  C   UNL     1       2.847 -12.373  -6.179  0.00  0.00    +0.015 C 
ATOM     37  C   UNL     1       0.677 -11.246  -6.692  0.00  0.00    +0.015 C 
ENDBRANCH  31  34
ENDBRANCH   5  28
TORSDOF 6
