REMARK  Name = ZINC38787510
REMARK  9 active torsions:
REMARK  status: ('A' for Active; 'I' for Inactive)
REMARK    1  A    between atoms: C_1  and  C_2
REMARK    2  A    between atoms: C_2  and  C_3
REMARK    3  A    between atoms: C_6  and  N_9
REMARK    4  A    between atoms: C_13  and  S_15
REMARK    5  A    between atoms: S_15  and  C_16
REMARK    6  A    between atoms: C_16  and  C_17
REMARK    7  A    between atoms: N_19  and  C_20
REMARK    8  A    between atoms: C_21  and  C_27
REMARK    9  A    between atoms: C_24  and  C_26
REMARK                            x       y       z     vdW  Elec       q    Type
REMARK                         _______ _______ _______ _____ _____    ______ ____
ROOT
ATOM      1  N   UNL     1      -5.293  -2.148   0.042  0.00  0.00    -0.292 N 
ATOM      2  C   UNL     1      -5.992  -2.271  -1.153  0.00  0.00    +0.187 A 
ATOM      3  N   UNL     1      -5.588  -2.034  -2.386  0.00  0.00    -0.125 NA
ATOM      4  N   UNL     1      -6.453  -2.223  -3.438  0.00  0.00    -0.133 NA
ATOM      5  C   UNL     1      -7.683  -2.641  -3.210  0.00  0.00    +0.160 A 
ATOM      6  S   UNL     1      -7.675  -2.800  -1.431  0.00  0.00    -0.024 S 
ATOM      7  H   UNL     1      -5.698  -2.441   0.874  0.00  0.00    +0.154 HD
ENDROOT
BRANCH   1  11
ATOM      8  C   UNL     1      -1.458  -0.524   0.055  0.00  0.00    -0.048 A 
ATOM      9  C   UNL     1      -2.341  -0.201  -0.959  0.00  0.00    +0.005 A 
ATOM     10  C   UNL     1      -3.613  -0.738  -0.967  0.00  0.00    +0.023 A 
ATOM     11  C   UNL     1      -4.006  -1.604   0.046  0.00  0.00    +0.033 A 
ATOM     12  C   UNL     1      -3.116  -1.927   1.063  0.00  0.00    +0.023 A 
ATOM     13  C   UNL     1      -1.844  -1.390   1.062  0.00  0.00    +0.005 A 
BRANCH   8  15
ATOM     14  C   UNL     1       0.875  -0.854  -0.718  0.00  0.00    +0.009 C 
ATOM     15  C   UNL     1      -0.071   0.064   0.059  0.00  0.00    +0.032 C 
ENDBRANCH   8  15
ENDBRANCH   1  11
BRANCH   5  16
ATOM     16  S   UNL     1      -8.984  -2.963  -4.354  0.00  0.00    -0.088 S 
BRANCH  16  17
ATOM     17  C   UNL     1      -8.251  -2.587  -5.970  0.00  0.00    +0.172 C 
BRANCH  17  18
ATOM     18  C   UNL     1      -9.272  -2.824  -7.052  0.00  0.00    +0.227 C 
ATOM     19  O   UNL     1     -10.385  -3.209  -6.762  0.00  0.00    -0.275 OA
ATOM     20  N   UNL     1      -8.948  -2.608  -8.343  0.00  0.00    -0.285 N 
ATOM     21  H   UNL     1      -8.039  -2.370  -8.581  0.00  0.00    +0.155 HD
BRANCH  20  22
ATOM     22  C   UNL     1      -9.910  -2.724  -9.323  0.00  0.00    +0.059 C 
ATOM     23  C   UNL     1     -10.298  -1.798 -10.226  0.00  0.00    +0.079 C 
ATOM     24  N   UNL     1     -11.262  -2.283 -11.016  0.00  0.00    -0.157 NA
ATOM     25  N   UNL     1     -11.597  -3.445 -10.773  0.00  0.00    -0.178 NA
ATOM     26  C   UNL     1     -10.780  -3.927  -9.647  0.00  0.00    +0.171 C 
ATOM     27  C   UNL     1      -9.919  -5.119 -10.070  0.00  0.00    +0.041 C 
ATOM     28  C   UNL     1      -9.723  -0.409 -10.329  0.00  0.00    +0.069 C 
ENDBRANCH  20  22
ENDBRANCH  17  18
ENDBRANCH  16  17
ENDBRANCH   5  16
TORSDOF 6
