REMARK  Name = ZINC32087064
REMARK  6 active torsions:
REMARK  status: ('A' for Active; 'I' for Inactive)
REMARK    1  A    between atoms: C_1  and  N_2
REMARK    2  A    between atoms: N_2  and  C_3
REMARK    3  A    between atoms: N_2  and  C_9
REMARK    4  A    between atoms: C_9  and  C_11
REMARK    5  A    between atoms: C_9  and  C_18
REMARK    6  A    between atoms: C_16  and  O_17
REMARK                            x       y       z     vdW  Elec       q    Type
REMARK                         _______ _______ _______ _____ _____    ______ ____
ROOT
ATOM      1  C   UNL     1       2.345   5.345  -0.080  0.00  0.00    +0.194 C 
ENDROOT
BRANCH   1   2
ATOM      2  C   UNL     1       3.081   5.782  -1.321  0.00  0.00    +0.241 C 
ATOM      3  O   UNL     1       3.427   4.959  -2.142  0.00  0.00    -0.273 OA
ATOM      4  N   UNL     1       3.355   7.087  -1.517  0.00  0.00    -0.297 N 
ATOM      5  C   UNL     1       3.053   8.086  -0.480  0.00  0.00    +0.123 C 
ATOM      6  C   UNL     1       2.254   9.224  -1.113  0.00  0.00    +0.100 C 
ATOM      7  N   UNL     1       2.980   9.740  -2.281  0.00  0.00    -0.313 NA
ATOM      8  C   UNL     1       3.119   8.710  -3.320  0.00  0.00    +0.100 C 
ATOM      9  C   UNL     1       3.959   7.550  -2.775  0.00  0.00    +0.123 C 
ATOM     10  H   UNL     1       2.432  10.594  -2.705  0.00  0.00    +0.122 HD
ENDBRANCH   1   2
BRANCH   1  11
ATOM     11  C   UNL     1       3.251   5.481   1.116  0.00  0.00    +0.023 A 
ATOM     12  C   UNL     1       4.616   5.605   0.939  0.00  0.00    +0.009 A 
ATOM     13  C   UNL     1       5.447   5.736   2.036  0.00  0.00    +0.001 A 
ATOM     14  C   UNL     1       4.916   5.731   3.313  0.00  0.00    +0.004 A 
ATOM     15  C   UNL     1       3.553   5.603   3.495  0.00  0.00    +0.046 A 
ATOM     16  C   UNL     1       2.716   5.477   2.396  0.00  0.00    +0.122 A 
BRANCH  16  17
ATOM     17  O   UNL     1       1.375   5.351   2.573  0.00  0.00    -0.506 OA
ATOM     18  H   UNL     1       0.952   5.348   3.588  0.00  0.00    +0.292 HD
ENDBRANCH  16  17
ENDBRANCH   1  11
BRANCH   1  20
ATOM     19  C   UNL     1       2.945   2.889  -0.299  0.00  0.00    +0.130 C 
ATOM     20  N   UNL     1       1.933   3.946  -0.224  0.00  0.00    -0.318 N 
BRANCH  20  21
ATOM     21  C   UNL     1       0.577   3.620  -0.290  0.00  0.00    +0.030 A 
ATOM     22  C   UNL     1       0.186   2.310  -0.535  0.00  0.00    +0.023 A 
ATOM     23  C   UNL     1      -1.156   1.992  -0.599  0.00  0.00    +0.002 A 
ATOM     24  C   UNL     1      -2.111   2.976  -0.425  0.00  0.00    +0.000 A 
ATOM     25  C   UNL     1      -1.726   4.281  -0.174  0.00  0.00    +0.002 A 
ATOM     26  C   UNL     1      -0.385   4.606  -0.109  0.00  0.00    +0.023 A 
ENDBRANCH  20  21
ENDBRANCH   1  20
TORSDOF 5
