REMARK  Name = ZINC49389719
REMARK  7 active torsions:
REMARK  status: ('A' for Active; 'I' for Inactive)
REMARK    1  A    between atoms: C_1  and  C_2
REMARK    2  A    between atoms: N_10  and  C_11
REMARK    3  A    between atoms: C_11  and  C_13
REMARK    4  A    between atoms: C_11  and  C_14
REMARK    5  A    between atoms: C_15  and  C_21
REMARK    6  A    between atoms: N_17  and  C_20
REMARK    7  A    between atoms: C_18  and  C_19
REMARK                            x       y       z     vdW  Elec       q    Type
REMARK                         _______ _______ _______ _____ _____    ______ ____
ROOT
ATOM      1  C   UNL     1       1.312   1.423  -0.288  0.00  0.00    +0.067 C 
ATOM      2  C   UNL     1       1.082  -0.066  -0.245  0.00  0.00    +0.059 A 
ATOM      3  C   UNL     1       0.802  -0.851  -1.301  0.00  0.00    +0.138 A 
ATOM      4  N   UNL     1       0.664  -2.152  -0.837  0.00  0.00    -0.212 N 
ATOM      5  C   UNL     1       0.875  -2.068   0.512  0.00  0.00    +0.197 A 
ATOM      6  N   UNL     1       1.127  -0.836   0.852  0.00  0.00    -0.225 NA
ATOM      7  S   UNL     1       0.684  -3.755   1.036  0.00  0.00    -0.013 S 
ATOM      8  C   UNL     1       0.337  -4.464  -0.566  0.00  0.00    +0.182 A 
ATOM      9  N   UNL     1       0.389  -3.417  -1.345  0.00  0.00    -0.142 NA
ATOM     10  N   UNL     1       0.079  -5.785  -0.897  0.00  0.00    -0.315 N 
ATOM     11  H   UNL     1      -0.095  -6.028  -1.819  0.00  0.00    +0.149 HD
ENDROOT
BRANCH  10  12
ATOM     12  C   UNL     1       0.069  -6.813   0.147  0.00  0.00    +0.103 C 
ATOM     13  C   UNL     1       1.507  -7.150   0.544  0.00  0.00    +0.033 C 
BRANCH  12  14
ATOM     14  C   UNL     1      -0.612  -8.052  -0.375  0.00  0.00    +0.016 A 
ATOM     15  C   UNL     1      -0.351  -8.681  -1.597  0.00  0.00    +0.065 A 
ATOM     16  N   UNL     1      -1.137  -9.722  -1.696  0.00  0.00    -0.176 NA
ATOM     17  N   UNL     1      -1.925  -9.788  -0.539  0.00  0.00    -0.271 N 
ATOM     18  C   UNL     1      -1.579  -8.755   0.257  0.00  0.00    +0.041 A 
ATOM     19  C   UNL     1      -2.168  -8.440   1.608  0.00  0.00    +0.065 C 
ATOM     20  C   UNL     1      -2.939 -10.803  -0.244  0.00  0.00    +0.172 C 
ATOM     21  C   UNL     1       0.661  -8.237  -2.622  0.00  0.00    +0.068 C 
ENDBRANCH  12  14
ENDBRANCH  10  12
TORSDOF 2
