REMARK  Name = ZINC41426587
REMARK  7 active torsions:
REMARK  status: ('A' for Active; 'I' for Inactive)
REMARK    1  A    between atoms: C_1  and  C_2
REMARK    2  A    between atoms: C_2  and  C_8
REMARK    3  A    between atoms: C_8  and  C_9
REMARK    4  A    between atoms: C_9  and  N_10
REMARK    5  A    between atoms: N_10  and  S_11
REMARK    6  A    between atoms: S_11  and  C_14
REMARK    7  A    between atoms: C_18  and  N_20
REMARK                            x       y       z     vdW  Elec       q    Type
REMARK                         _______ _______ _______ _____ _____    ______ ____
ROOT
ATOM      1  S   UNL     1      -3.088  -4.155  -0.362  0.00  0.00    +0.058 S 
ATOM      2  O   UNL     1      -4.491  -4.342  -0.238  0.00  0.00    -0.153 OA
ATOM      3  O   UNL     1      -2.386  -4.426  -1.568  0.00  0.00    -0.153 OA
ENDROOT
BRANCH   1   4
ATOM      4  C   UNL     1      -2.336  -5.140   0.890  0.00  0.00    +0.107 A 
ATOM      5  C   UNL     1      -1.027  -5.562   0.745  0.00  0.00    +0.028 A 
ATOM      6  C   UNL     1      -0.437  -6.335   1.728  0.00  0.00    +0.004 A 
ATOM      7  C   UNL     1      -1.156  -6.686   2.856  0.00  0.00    +0.033 A 
ATOM      8  C   UNL     1      -2.464  -6.263   3.001  0.00  0.00    +0.128 A 
ATOM      9  C   UNL     1      -3.052  -5.486   2.020  0.00  0.00    +0.061 A 
BRANCH   8  10
ATOM     10  N   UNL     1      -3.233  -6.639   4.208  0.00  0.00    +0.056 N 
ATOM     11  O   UNL     1      -2.717  -7.316   5.067  0.00  0.00    -0.126 OA
ATOM     12  O   UNL     1      -4.377  -6.269   4.336  0.00  0.00    -0.126 OA
ENDBRANCH   8  10
ENDBRANCH   1   4
BRANCH   1  13
ATOM     13  N   UNL     1      -2.787  -2.571   0.015  0.00  0.00    -0.190 NA
ATOM     14  H   UNL     1      -3.521  -1.978   0.242  0.00  0.00    +0.148 HD
BRANCH  13  15
ATOM     15  C   UNL     1      -1.413  -2.063   0.004  0.00  0.00    +0.111 C 
BRANCH  15  16
ATOM     16  C   UNL     1      -1.433  -0.534   0.013  0.00  0.00    +0.081 C 
BRANCH  16  18
ATOM     17  C   UNL     1      -0.019   1.526   0.010  0.00  0.00    +0.074 C 
ATOM     18  C   UNL     1       0.002  -0.004   0.002  0.00  0.00    +0.168 C 
ATOM     19  O   UNL     1       0.671  -0.465  -1.174  0.00  0.00    -0.349 OA
ATOM     20  C   UNL     1       2.036  -0.044  -1.264  0.00  0.00    +0.165 C 
ATOM     21  C   UNL     1       2.792  -0.540  -0.028  0.00  0.00    +0.056 C 
ATOM     22  C   UNL     1       2.059  -0.057   1.229  0.00  0.00    +0.165 C 
ATOM     23  O   UNL     1       0.694  -0.478   1.160  0.00  0.00    -0.349 OA
ENDBRANCH  16  18
ENDBRANCH  15  16
ENDBRANCH  13  15
ENDBRANCH   1  13
TORSDOF 6
