REMARK  Name = ZINC67329505
REMARK  5 active torsions:
REMARK  status: ('A' for Active; 'I' for Inactive)
REMARK    1  A    between atoms: C_3  and  C_10
REMARK    2  A    between atoms: C_5  and  N_7
REMARK    3  A    between atoms: C_10  and  N_11
REMARK    4  A    between atoms: C_12  and  C_14
REMARK    5  A    between atoms: C_20  and  C_22
REMARK                            x       y       z     vdW  Elec       q    Type
REMARK                         _______ _______ _______ _____ _____    ______ ____
ROOT
ATOM      1  N   UNL     1       4.105   2.425   1.356  0.00  0.00    -0.310 N 
ATOM      2  C   UNL     1       5.246   3.102   1.594  0.00  0.00    +0.234 C 
ATOM      3  O   UNL     1       5.914   3.510   0.667  0.00  0.00    -0.274 OA
ATOM      4  H   UNL     1       3.571   2.099   2.097  0.00  0.00    +0.149 HD
ENDROOT
BRANCH   2   5
ATOM      5  C   UNL     1       5.692   3.353   3.012  0.00  0.00    +0.162 C 
ATOM      6  C   UNL     1       6.382   2.093   3.575  0.00  0.00    +0.033 C 
ATOM      7  C   UNL     1       7.888   2.398   3.364  0.00  0.00    +0.021 C 
ATOM      8  C   UNL     1       7.935   3.925   3.616  0.00  0.00    +0.109 C 
ATOM      9  N   UNL     1       6.677   4.444   3.041  0.00  0.00    -0.283 N 
ATOM     10  C   UNL     1       6.465   5.704   2.613  0.00  0.00    +0.283 C 
ATOM     11  O   UNL     1       5.383   6.018   2.154  0.00  0.00    -0.267 OA
BRANCH  10  12
ATOM     12  C   UNL     1       7.540   6.698   2.700  0.00  0.00    +0.189 A 
ATOM     13  C   UNL     1       7.459   8.004   2.310  0.00  0.00    +0.054 A 
ATOM     14  C   UNL     1       8.711   8.582   2.573  0.00  0.00    +0.042 A 
ATOM     15  C   UNL     1       9.491   7.617   3.106  0.00  0.00    +0.196 A 
ATOM     16  O   UNL     1       8.781   6.484   3.186  0.00  0.00    -0.458 OA
ENDBRANCH  10  12
ENDBRANCH   2   5
BRANCH   1  17
ATOM     17  C   UNL     1       3.672   2.182  -0.022  0.00  0.00    +0.139 C 
BRANCH  17  20
ATOM     18  C   UNL     1      -0.017   1.378   0.010  0.00  0.00    +0.003 A 
ATOM     19  C   UNL     1       1.171   2.085   0.002  0.00  0.00    +0.005 A 
ATOM     20  C   UNL     1       2.377   1.411  -0.013  0.00  0.00    -0.028 A 
ATOM     21  C   UNL     1       2.396   0.028  -0.020  0.00  0.00    +0.038 A 
ATOM     22  C   UNL     1       1.209  -0.679  -0.012  0.00  0.00    +0.127 A 
ATOM     23  C   UNL     1       0.002  -0.004   0.002  0.00  0.00    +0.033 A 
BRANCH  22  24
ATOM     24  N   UNL     1       1.229  -2.159  -0.020  0.00  0.00    +0.056 N 
ATOM     25  O   UNL     1       2.284  -2.749  -0.035  0.00  0.00    -0.126 OA
ATOM     26  O   UNL     1       0.190  -2.778  -0.013  0.00  0.00    -0.126 OA
ENDBRANCH  22  24
ENDBRANCH  17  20
ENDBRANCH   1  17
TORSDOF 5
