REMARK  Name = ZINC13515720
REMARK  8 active torsions:
REMARK  status: ('A' for Active; 'I' for Inactive)
REMARK    1  A    between atoms: C_1  and  C_2
REMARK    2  A    between atoms: N_12  and  C_30
REMARK    3  A    between atoms: N_16  and  C_17
REMARK    4  A    between atoms: C_17  and  C_18
REMARK    5  A    between atoms: C_18  and  C_19
REMARK    6  A    between atoms: C_19  and  N_20
REMARK    7  A    between atoms: C_21  and  C_29
REMARK    8  A    between atoms: C_26  and  C_28
REMARK                            x       y       z     vdW  Elec       q    Type
REMARK                         _______ _______ _______ _____ _____    ______ ____
ROOT
ATOM      1  C   UNL     1       0.079   0.918  -0.015  0.00  0.00    +0.065 C 
ATOM      2  C   UNL     1       0.084  -0.577   0.171  0.00  0.00    +0.035 A 
ATOM      3  C   UNL     1       0.105  -1.484  -0.802  0.00  0.00    +0.116 A 
ATOM      4  N   UNL     1       0.103  -2.742  -0.224  0.00  0.00    -0.277 N 
ATOM      5  C   UNL     1       0.116  -4.105  -0.476  0.00  0.00    +0.157 A 
ATOM      6  C   UNL     1       0.140  -4.890  -1.641  0.00  0.00    +0.280 A 
ATOM      7  O   UNL     1       0.155  -4.362  -2.739  0.00  0.00    -0.265 OA
ATOM      8  N   UNL     1       0.146  -6.235  -1.531  0.00  0.00    -0.273 N 
ATOM      9  H   UNL     1       0.164  -6.779  -2.334  0.00  0.00    +0.173 HD
ATOM     10  C   UNL     1       0.130  -6.833  -0.327  0.00  0.00    +0.331 A 
ATOM     11  O   UNL     1       0.137  -8.047  -0.268  0.00  0.00    -0.246 OA
ATOM     12  N   UNL     1       0.106  -6.120   0.815  0.00  0.00    -0.280 N 
ATOM     13  C   UNL     1       0.099  -4.734   0.768  0.00  0.00    +0.170 A 
ATOM     14  N   UNL     1       0.078  -3.782   1.696  0.00  0.00    -0.193 NA
ATOM     15  C   UNL     1       0.080  -2.588   1.120  0.00  0.00    +0.218 A 
ATOM     16  N   UNL     1       0.073  -1.244   1.381  0.00  0.00    -0.314 N 
ATOM     17  C   UNL     1       0.089  -6.809   2.108  0.00  0.00    +0.155 C 
ENDROOT
BRANCH  16  18
ATOM     18  C   UNL     1       0.055  -0.622   2.708  0.00  0.00    +0.123 C 
BRANCH  18  19
ATOM     19  C   UNL     1      -1.394  -0.414   3.154  0.00  0.00    +0.003 C 
BRANCH  19  20
ATOM     20  C   UNL     1      -1.413   0.235   4.539  0.00  0.00    -0.076 C 
BRANCH  20  21
ATOM     21  N   UNL     1      -2.803   0.485   4.944  0.00  0.00    +0.383 N 
ATOM     22  C   UNL     1      -3.423   1.426   4.003  0.00  0.00    -0.071 C 
ATOM     23  C   UNL     1      -4.845   1.752   4.465  0.00  0.00    -0.016 C 
ATOM     24  C   UNL     1      -5.668   0.462   4.516  0.00  0.00    -0.003 C 
ATOM     25  C   UNL     1      -4.972  -0.539   5.443  0.00  0.00    -0.016 C 
ATOM     26  C   UNL     1      -3.546  -0.781   4.945  0.00  0.00    -0.071 C 
ATOM     27  C   UNL     1      -2.846  -1.781   5.867  0.00  0.00    -0.013 C 
ATOM     28  C   UNL     1      -2.597   2.712   3.950  0.00  0.00    -0.013 C 
ATOM     29  H   UNL     1      -2.816   0.882   5.871  0.00  0.00    -0.081 HD
ENDBRANCH  20  21
ENDBRANCH  19  20
ENDBRANCH  18  19
ENDBRANCH  16  18
TORSDOF 4
