REMARK  Name = ZINC20929303
REMARK  11 active torsions:
REMARK  status: ('A' for Active; 'I' for Inactive)
REMARK    1  A    between atoms: C_1  and  C_2
REMARK    2  A    between atoms: C_2  and  C_3
REMARK    3  A    between atoms: C_3  and  O_4
REMARK    4  A    between atoms: O_4  and  C_5
REMARK    5  A    between atoms: C_10  and  C_11
REMARK    6  A    between atoms: C_11  and  N_12
REMARK    7  A    between atoms: N_12  and  C_13
REMARK    8  A    between atoms: C_13  and  C_14
REMARK    9  A    between atoms: C_14  and  N_15
REMARK   10  A    between atoms: N_15  and  C_16
REMARK   11  A    between atoms: C_19  and  N_22
REMARK                            x       y       z     vdW  Elec       q    Type
REMARK                         _______ _______ _______ _____ _____    ______ ____
ROOT
ATOM      1  N   UNL     1       2.981   4.000  -1.370  0.00  0.00    +0.383 N 
ATOM      2  H   UNL     1       3.163   2.978  -1.732  0.00  0.00    -0.085 HD
ATOM      3  H   UNL     1       2.251   4.497  -2.026  0.00  0.00    -0.085 HD
ENDROOT
BRANCH   1   4
ATOM      4  C   UNL     1       2.450   3.947  -0.001  0.00  0.00    -0.043 C 
BRANCH   4  10
ATOM      5  C   UNL     1       1.179   1.786   0.000  0.00  0.00    +0.122 A 
ATOM      6  C   UNL     1      -0.013   1.076   0.008  0.00  0.00    +0.047 A 
ATOM      7  C   UNL     1      -1.218   1.751   0.017  0.00  0.00    +0.019 A 
ATOM      8  C   UNL     1      -1.237   3.134   0.030  0.00  0.00    +0.018 A 
ATOM      9  C   UNL     1      -0.050   3.844   0.023  0.00  0.00    +0.020 A 
ATOM     10  C   UNL     1       1.158   3.173   0.008  0.00  0.00    -0.022 A 
ATOM     11 BR   UNL     1      -2.888   4.055   0.050  0.00  0.00    -0.050 Br
BRANCH   5  12
ATOM     12  O   UNL     1       2.366   1.124  -0.015  0.00  0.00    -0.492 OA
BRANCH  12  13
ATOM     13  C   UNL     1       2.312  -0.304  -0.023  0.00  0.00    +0.229 C 
BRANCH  13  15
ATOM     14  C   UNL     1       3.677  -2.396  -0.048  0.00  0.00    +0.007 C 
ATOM     15  C   UNL     1       3.735  -0.868  -0.040  0.00  0.00    +0.038 C 
ENDBRANCH  13  15
ENDBRANCH  12  13
ENDBRANCH   5  12
ENDBRANCH   4  10
ENDBRANCH   1   4
BRANCH   1  16
ATOM     16  C   UNL     1       4.243   4.749  -1.417  0.00  0.00    -0.063 C 
BRANCH  16  17
ATOM     17  C   UNL     1       4.763   4.782  -2.855  0.00  0.00    +0.082 C 
BRANCH  17  18
ATOM     18  N   UNL     1       6.023   5.529  -2.902  0.00  0.00    -0.346 N 
ATOM     19  H   UNL     1       6.442   5.959  -1.981  0.00  0.00    +0.146 HD
BRANCH  18  20
ATOM     20  C   UNL     1       6.692   5.694  -4.117  0.00  0.00    +0.027 A 
ATOM     21  C   UNL     1       6.167   5.147  -5.281  0.00  0.00    +0.025 A 
ATOM     22  C   UNL     1       6.827   5.318  -6.482  0.00  0.00    +0.034 A 
ATOM     23  C   UNL     1       8.016   6.023  -6.524  0.00  0.00    +0.126 A 
ATOM     24  C   UNL     1       8.544   6.564  -5.367  0.00  0.00    +0.034 A 
ATOM     25  C   UNL     1       7.886   6.402  -4.164  0.00  0.00    +0.025 A 
BRANCH  23  26
ATOM     26  N   UNL     1       8.725   6.199  -7.812  0.00  0.00    +0.056 N 
ATOM     27  O   UNL     1       9.772   6.820  -7.851  0.00  0.00    -0.126 OA
ATOM     28  O   UNL     1       8.261   5.723  -8.832  0.00  0.00    -0.126 OA
ENDBRANCH  23  26
ENDBRANCH  18  20
ENDBRANCH  17  18
ENDBRANCH  16  17
ENDBRANCH   1  16
TORSDOF 10
