REMARK  Name = ZINC11207594
REMARK  12 active torsions:
REMARK  status: ('A' for Active; 'I' for Inactive)
REMARK    1  A    between atoms: C_1  and  C_2
REMARK    2  A    between atoms: C_2  and  C_4
REMARK    3  A    between atoms: C_2  and  S_17
REMARK    4  A    between atoms: N_6  and  C_7
REMARK    5  A    between atoms: C_10  and  S_13
REMARK    6  A    between atoms: S_13  and  N_16
REMARK    7  A    between atoms: S_17  and  C_18
REMARK    8  A    between atoms: N_28  and  C_29
REMARK    9  A    between atoms: C_29  and  C_30
REMARK   10  A    between atoms: C_30  and  C_31
REMARK   11  A    between atoms: C_31  and  C_32
REMARK   12  A    between atoms: C_31  and  C_33
REMARK                            x       y       z     vdW  Elec       q    Type
REMARK                         _______ _______ _______ _____ _____    ______ ____
ROOT
ATOM      1  C   UNL     1      -0.007   1.532   0.016  0.00  0.00    +0.029 C 
ATOM      2  C   UNL     1       0.003   0.002   0.004  0.00  0.00    +0.137 C 
ENDROOT
BRANCH   2   3
ATOM      3  C   UNL     1       0.730  -0.505   1.222  0.00  0.00    +0.230 C 
ATOM      4  O   UNL     1       1.909  -0.785   1.153  0.00  0.00    -0.274 OA
ATOM      5  N   UNL     1       0.071  -0.647   2.389  0.00  0.00    -0.285 N 
ATOM      6  H   UNL     1      -0.852  -0.361   2.463  0.00  0.00    +0.155 HD
BRANCH   5   7
ATOM      7  C   UNL     1       0.720  -1.209   3.495  0.00  0.00    +0.034 A 
ATOM      8  C   UNL     1       0.015  -2.013   4.381  0.00  0.00    +0.025 A 
ATOM      9  C   UNL     1       0.658  -2.566   5.471  0.00  0.00    +0.030 A 
ATOM     10  C   UNL     1       2.002  -2.319   5.681  0.00  0.00    +0.105 A 
ATOM     11  C   UNL     1       2.707  -1.518   4.801  0.00  0.00    +0.030 A 
ATOM     12  C   UNL     1       2.071  -0.968   3.706  0.00  0.00    +0.025 A 
BRANCH  10  13
ATOM     13  S   UNL     1       2.819  -3.026   7.073  0.00  0.00    +0.056 S 
ATOM     14  O   UNL     1       3.943  -2.201   7.346  0.00  0.00    -0.153 OA
ATOM     15  O   UNL     1       1.814  -3.289   8.043  0.00  0.00    -0.153 OA
BRANCH  13  16
ATOM     16  N   UNL     1       3.414  -4.496   6.597  0.00  0.00    -0.204 NA
ATOM     17  H   UNL     1       4.220  -4.849   7.007  0.00  0.00    +0.144 HD
ATOM     18  H   UNL     1       2.958  -5.004   5.909  0.00  0.00    +0.144 HD
ENDBRANCH  13  16
ENDBRANCH  10  13
ENDBRANCH   5   7
ENDBRANCH   2   3
BRANCH   2  19
ATOM     19  S   UNL     1       0.847  -0.585  -1.491  0.00  0.00    -0.075 S 
BRANCH  19  20
ATOM     20  C   UNL     1      -0.192  -0.042  -2.807  0.00  0.00    +0.173 A 
ATOM     21  N   UNL     1      -1.278   0.628  -2.510  0.00  0.00    -0.223 NA
ATOM     22  C   UNL     1      -2.118   1.073  -3.466  0.00  0.00    +0.079 A 
ATOM     23  C   UNL     1      -3.277   1.788  -3.149  0.00  0.00    +0.028 A 
ATOM     24  C   UNL     1      -4.099   2.221  -4.151  0.00  0.00    +0.002 A 
ATOM     25  C   UNL     1      -3.802   1.961  -5.482  0.00  0.00    +0.001 A 
ATOM     26  C   UNL     1      -2.676   1.264  -5.824  0.00  0.00    +0.015 A 
ATOM     27  C   UNL     1      -1.818   0.811  -4.823  0.00  0.00    +0.065 A 
ATOM     28  C   UNL     1      -0.595   0.059  -5.131  0.00  0.00    +0.262 A 
ATOM     29  O   UNL     1      -0.283  -0.198  -6.279  0.00  0.00    -0.267 OA
ATOM     30  N   UNL     1       0.176  -0.334  -4.090  0.00  0.00    -0.287 N 
BRANCH  30  31
ATOM     31  C   UNL     1       1.410  -1.082  -4.340  0.00  0.00    +0.127 C 
BRANCH  31  32
ATOM     32  C   UNL     1       1.104  -2.581  -4.356  0.00  0.00    +0.025 C 
BRANCH  32  33
ATOM     33  C   UNL     1       2.393  -3.363  -4.617  0.00  0.00    -0.016 C 
ATOM     34  C   UNL     1       2.111  -4.862  -4.510  0.00  0.00    +0.007 C 
ATOM     35  C   UNL     1       2.909  -3.040  -6.021  0.00  0.00    +0.007 C 
ENDBRANCH  32  33
ENDBRANCH  31  32
ENDBRANCH  30  31
ENDBRANCH  19  20
ENDBRANCH   2  19
TORSDOF 9
