REMARK  Name = ZINC14242275
REMARK  8 active torsions:
REMARK  status: ('A' for Active; 'I' for Inactive)
REMARK    1  A    between atoms: C_1  and  N_2
REMARK    2  A    between atoms: C_3  and  C_19
REMARK    3  A    between atoms: N_5  and  C_8
REMARK    4  A    between atoms: C_8  and  N_49
REMARK    5  A    between atoms: C_9  and  N_49
REMARK    6  A    between atoms: C_10  and  C_11
REMARK    7  A    between atoms: C_10  and  N_49
REMARK    8  A    between atoms: C_19  and  C_20
REMARK                            x       y       z     vdW  Elec       q    Type
REMARK                         _______ _______ _______ _____ _____    ______ ____
ROOT
ATOM      1  C   UNL     1       3.234  -1.558   3.438  0.00  0.00    +0.152 C 
ATOM      2  N   UNL     1       1.992  -1.172   2.764  0.00  0.00    -0.310 N 
ATOM      3  C   UNL     1       0.737  -1.188   3.320  0.00  0.00    +0.132 A 
ATOM      4  N   UNL     1      -0.117  -0.785   2.436  0.00  0.00    -0.158 NA
ATOM      5  N   UNL     1       0.581  -0.491   1.256  0.00  0.00    -0.258 N 
ATOM      6  C   UNL     1       1.886  -0.747   1.489  0.00  0.00    +0.176 A 
ATOM      7  S   UNL     1       3.170  -0.562   0.371  0.00  0.00    -0.011 S 
ENDROOT
BRANCH   5   8
ATOM      8  C   UNL     1       0.002  -0.004   0.002  0.00  0.00    +0.072 C 
BRANCH   8  10
ATOM      9  C   UNL     1       1.346   2.010   0.000  0.00  0.00    -0.093 C 
ATOM     10  N   UNL     1      -0.030   1.473   0.034  0.00  0.00    +0.394 N 
ATOM     11  H   UNL     1      -0.486   1.778   0.903  0.00  0.00    -0.079 HD
BRANCH  10  12
ATOM     12  C   UNL     1      -0.802   1.987  -1.117  0.00  0.00    -0.041 C 
BRANCH  12  13
ATOM     13  C   UNL     1      -1.007   3.470  -0.943  0.00  0.00    -0.062 A 
ATOM     14  C   UNL     1      -0.089   4.361  -1.468  0.00  0.00    +0.003 A 
ATOM     15  C   UNL     1      -0.276   5.721  -1.308  0.00  0.00    +0.021 A 
ATOM     16  C   UNL     1      -1.382   6.191  -0.623  0.00  0.00    +0.059 A 
ATOM     17  C   UNL     1      -2.300   5.299  -0.097  0.00  0.00    +0.059 A 
ATOM     18  C   UNL     1      -2.115   3.938  -0.262  0.00  0.00    +0.023 A 
ATOM     19 CL   UNL     1      -3.688   5.888   0.764  0.00  0.00    -0.082 Cl
ATOM     20 CL   UNL     1      -1.617   7.899  -0.422  0.00  0.00    -0.082 Cl
ENDBRANCH  12  13
ENDBRANCH  10  12
ENDBRANCH   8  10
ENDBRANCH   5   8
BRANCH   3  21
ATOM     21  C   UNL     1       0.408  -1.606   4.730  0.00  0.00    +0.081 C 
BRANCH  21  22
ATOM     22  C   UNL     1       0.116  -3.107   4.762  0.00  0.00    +0.019 C 
ATOM     23  C   UNL     1      -0.341  -3.509   6.174  0.00  0.00    +0.028 C 
ATOM     24  C   UNL     1      -0.327  -5.061   6.265  0.00  0.00    +0.166 C 
ATOM     25  S   UNL     1       1.231  -5.438   5.356  0.00  0.00    -0.031 S 
ATOM     26  O   UNL     1       2.302  -5.515   6.286  0.00  0.00    -0.174 OA
ATOM     27  O   UNL     1       0.997  -6.522   4.467  0.00  0.00    -0.174 OA
ATOM     28  C   UNL     1       1.396  -3.888   4.380  0.00  0.00    +0.170 C 
ENDBRANCH  21  22
ENDBRANCH   3  21
TORSDOF 6
