REMARK  Name = ZINC51988778
REMARK  6 active torsions:
REMARK  status: ('A' for Active; 'I' for Inactive)
REMARK    1  A    between atoms: C_1  and  C_2
REMARK    2  A    between atoms: C_2  and  N_3
REMARK    3  A    between atoms: C_5  and  N_20
REMARK    4  A    between atoms: C_7  and  C_8
REMARK    5  A    between atoms: N_10  and  C_11
REMARK    6  A    between atoms: C_17  and  O_19
REMARK                            x       y       z     vdW  Elec       q    Type
REMARK                         _______ _______ _______ _____ _____    ______ ____
ROOT
ATOM      1  C   UNL     1      -1.284  -0.641   2.751  0.00  0.00    +0.261 C 
ATOM      2  O   UNL     1      -1.648  -0.782   3.903  0.00  0.00    -0.269 OA
ATOM      3  N   UNL     1      -2.186  -0.367   1.788  0.00  0.00    -0.305 N 
ATOM      4  H   UNL     1      -1.907  -0.328   0.859  0.00  0.00    +0.149 HD
ENDROOT
BRANCH   3   5
ATOM      5  C   UNL     1      -3.587  -0.127   2.143  0.00  0.00    +0.102 C 
ATOM      6  C   UNL     1      -4.322  -1.465   2.246  0.00  0.00    +0.025 C 
ATOM      7  C   UNL     1      -5.785  -1.215   2.617  0.00  0.00    +0.002 C 
ATOM      8  C   UNL     1      -6.445  -0.353   1.539  0.00  0.00    +0.003 C 
ATOM      9  C   UNL     1      -5.709   0.985   1.435  0.00  0.00    +0.033 C 
ATOM     10  C   UNL     1      -4.246   0.735   1.065  0.00  0.00    +0.135 C 
BRANCH  10  11
ATOM     11  O   UNL     1      -3.559   1.985   0.968  0.00  0.00    -0.390 OA
ATOM     12  H   UNL     1      -3.924   2.584   0.302  0.00  0.00    +0.210 HD
ENDBRANCH  10  11
ENDBRANCH   3   5
BRANCH   1  17
ATOM     13  N   UNL     1       1.146  -1.145   3.266  0.00  0.00    -0.342 N 
ATOM     14  C   UNL     1       2.320  -1.153   2.579  0.00  0.00    +0.109 A 
ATOM     15  C   UNL     1       2.076  -0.781   1.294  0.00  0.00    +0.043 A 
ATOM     16  C   UNL     1       0.702  -0.532   1.174  0.00  0.00    +0.055 A 
ATOM     17  C   UNL     1       0.137  -0.769   2.410  0.00  0.00    +0.106 A 
BRANCH  15  18
ATOM     18  N   UNL     1       3.033  -0.666   0.269  0.00  0.00    -0.357 N 
ATOM     19  H   UNL     1       3.966  -0.861   0.451  0.00  0.00    +0.142 HD
ATOM     20  H   UNL     1       2.760  -0.392  -0.621  0.00  0.00    +0.142 HD
ENDBRANCH  15  18
BRANCH  13  22
ATOM     21  C   UNL     1       0.494  -2.930   4.805  0.00  0.00    +0.027 C 
ATOM     22  C   UNL     1       0.984  -1.486   4.681  0.00  0.00    +0.118 C 
ENDBRANCH  13  22
ENDBRANCH   1  17
TORSDOF 5
