REMARK  Name = ZINC65384372
REMARK  7 active torsions:
REMARK  status: ('A' for Active; 'I' for Inactive)
REMARK    1  A    between atoms: C_1  and  N_2
REMARK    2  A    between atoms: N_2  and  C_3
REMARK    3  A    between atoms: C_3  and  C_4
REMARK    4  A    between atoms: C_4  and  N_5
REMARK    5  A    between atoms: C_14  and  C_16
REMARK    6  A    between atoms: N_18  and  C_21
REMARK    7  A    between atoms: C_21  and  C_22
REMARK                            x       y       z     vdW  Elec       q    Type
REMARK                         _______ _______ _______ _____ _____    ______ ____
ROOT
ATOM      1  C   UNL     1      -0.064   1.461   0.012  0.00  0.00    +0.132 C 
ATOM      2  N   UNL     1      -0.017  -0.003   0.003  0.00  0.00    -0.298 N 
ATOM      3  C   UNL     1      -0.102  -0.673  -1.163  0.00  0.00    +0.268 C 
ATOM      4  O   UNL     1      -0.160  -1.888  -1.164  0.00  0.00    -0.268 OA
ENDROOT
BRANCH   3   5
ATOM      5  C   UNL     1      -0.124   0.067  -2.439  0.00  0.00    +0.167 A 
ATOM      6  C   UNL     1      -0.326  -0.478  -3.675  0.00  0.00    +0.143 A 
ATOM      7  N   UNL     1      -0.271   0.535  -4.563  0.00  0.00    -0.251 N 
ATOM      8  N   UNL     1      -0.030   1.705  -3.829  0.00  0.00    -0.065 NA
ATOM      9  N   UNL     1       0.045   1.393  -2.582  0.00  0.00    -0.125 NA
BRANCH   7  10
ATOM     10  C   UNL     1      -0.432   0.433  -6.016  0.00  0.00    +0.147 C 
BRANCH  10  11
ATOM     11  C   UNL     1      -1.542   1.381  -6.473  0.00  0.00    -0.007 C 
ATOM     12  C   UNL     1      -1.117   2.829  -6.216  0.00  0.00    +0.001 C 
ATOM     13  C   UNL     1      -2.200   3.772  -6.748  0.00  0.00    -0.019 C 
ATOM     14  C   UNL     1      -2.427   3.490  -8.235  0.00  0.00    -0.083 C 
ATOM     15  N   UNL     1      -2.857   2.098  -8.413  0.00  0.00    +0.379 N 
ATOM     16  C   UNL     1      -1.795   1.187  -7.970  0.00  0.00    -0.077 C 
ATOM     17  H   UNL     1      -3.689   1.932  -7.867  0.00  0.00    -0.086 HD
ATOM     18  H   UNL     1      -3.058   1.931  -9.387  0.00  0.00    -0.086 HD
ENDBRANCH  10  11
ENDBRANCH   7  10
ENDBRANCH   3   5
BRANCH   2  19
ATOM     19  C   UNL     1       0.122  -0.739   1.262  0.00  0.00    +0.129 C 
BRANCH  19  20
ATOM     20  C   UNL     1      -1.265  -1.042   1.832  0.00  0.00    +0.141 C 
BRANCH  20  21
ATOM     21  N   UNL     1      -1.126  -1.778   3.091  0.00  0.00    -0.345 N 
ATOM     22  C   UNL     1      -1.162  -3.140   3.213  0.00  0.00    +0.087 A 
ATOM     23  C   UNL     1      -1.004  -3.489   4.500  0.00  0.00    +0.027 A 
ATOM     24  C   UNL     1      -0.854  -2.248   5.264  0.00  0.00    -0.000 A 
ATOM     25  C   UNL     1      -0.933  -1.202   4.326  0.00  0.00    +0.049 A 
ATOM     26  C   UNL     1      -0.817   0.114   4.762  0.00  0.00    +0.026 A 
ATOM     27  C   UNL     1      -0.624   0.377   6.101  0.00  0.00    +0.002 A 
ATOM     28  C   UNL     1      -0.544  -0.659   7.021  0.00  0.00    +0.001 A 
ATOM     29  C   UNL     1      -0.664  -1.959   6.616  0.00  0.00    +0.010 A 
ENDBRANCH  20  21
ENDBRANCH  19  20
ENDBRANCH   2  19
TORSDOF 6
