REMARK  Name = ZINC16038774
REMARK  11 active torsions:
REMARK  status: ('A' for Active; 'I' for Inactive)
REMARK    1  A    between atoms: C_1  and  C_2
REMARK    2  A    between atoms: C_6  and  O_9
REMARK    3  A    between atoms: C_7  and  C_8
REMARK    4  A    between atoms: O_9  and  C_10
REMARK    5  A    between atoms: C_10  and  C_11
REMARK    6  A    between atoms: N_13  and  N_14
REMARK    7  A    between atoms: N_22  and  C_25
REMARK    8  A    between atoms: C_25  and  N_26
REMARK    9  A    between atoms: C_28  and  C_37
REMARK   10  A    between atoms: C_33  and  C_35
REMARK   11  A    between atoms: C_33  and  C_36
REMARK                            x       y       z     vdW  Elec       q    Type
REMARK                         _______ _______ _______ _____ _____    ______ ____
ROOT
ATOM      1  N   UNL     1       0.114  -6.669   5.120  0.00  0.00    -0.174 NA
ATOM      2  C   UNL     1       0.132  -7.969   5.283  0.00  0.00    +0.153 C 
ATOM      3  C   UNL     1       0.142  -8.719   6.561  0.00  0.00    +0.028 A 
ATOM      4  C   UNL     1       0.136  -8.326   7.895  0.00  0.00    +0.012 A 
ATOM      5  C   UNL     1       0.149  -9.283   8.890  0.00  0.00    +0.001 A 
ATOM      6  C   UNL     1       0.168 -10.628   8.560  0.00  0.00    +0.002 A 
ATOM      7  C   UNL     1       0.174 -11.027   7.239  0.00  0.00    +0.024 A 
ATOM      8  C   UNL     1       0.161 -10.078   6.222  0.00  0.00    +0.044 A 
ATOM      9  N   UNL     1       0.164 -10.207   4.838  0.00  0.00    -0.282 N 
ATOM     10  C   UNL     1       0.141  -9.008   4.232  0.00  0.00    +0.270 C 
ATOM     11  O   UNL     1       0.132  -8.811   3.031  0.00  0.00    -0.268 OA
ENDROOT
BRANCH   1  14
ATOM     12  C   UNL     1       0.083  -4.787   3.662  0.00  0.00    +0.270 C 
ATOM     13  O   UNL     1       0.077  -4.056   4.629  0.00  0.00    -0.270 OA
ATOM     14  N   UNL     1       0.101  -6.125   3.830  0.00  0.00    -0.203 N 
ATOM     15  H   UNL     1       0.105  -6.710   3.056  0.00  0.00    +0.177 HD
BRANCH  12  16
ATOM     16  C   UNL     1       0.069  -4.202   2.274  0.00  0.00    +0.326 C 
BRANCH  16  17
ATOM     17  O   UNL     1       0.050  -2.776   2.358  0.00  0.00    -0.482 OA
BRANCH  17  23
ATOM     18  C   UNL     1      -0.018   1.503   0.010  0.00  0.00    +0.044 C 
ATOM     19  C   UNL     1       0.002  -0.004   0.002  0.00  0.00    -0.044 A 
ATOM     20  C   UNL     1       0.006  -0.688  -1.200  0.00  0.00    +0.004 A 
ATOM     21  C   UNL     1       0.024  -2.071  -1.211  0.00  0.00    +0.004 A 
ATOM     22  C   UNL     1       0.039  -2.772  -0.020  0.00  0.00    +0.046 A 
ATOM     23  C   UNL     1       0.035  -2.088   1.186  0.00  0.00    +0.124 A 
ATOM     24  C   UNL     1       0.023  -0.700   1.195  0.00  0.00    -0.006 A 
ATOM     25  C   UNL     1       0.026   0.046   2.504  0.00  0.00    +0.048 C 
ENDBRANCH  17  23
ENDBRANCH  16  17
ENDBRANCH  12  16
ENDBRANCH   1  14
BRANCH   9  26
ATOM     26  C   UNL     1       0.182 -11.489   4.129  0.00  0.00    +0.039 C 
BRANCH  26  27
ATOM     27  N   UNL     1      -1.187 -11.933   3.893  0.00  0.00    +0.393 N 
ATOM     28  C   UNL     1      -1.893 -12.204   5.159  0.00  0.00    -0.070 C 
ATOM     29  C   UNL     1      -2.707 -13.500   4.935  0.00  0.00    -0.048 C 
ATOM     30  C   UNL     1      -2.707 -13.675   3.394  0.00  0.00    -0.011 C 
ATOM     31  C   UNL     1      -1.274 -13.162   3.079  0.00  0.00    -0.065 C 
ATOM     32  C   UNL     1      -0.293 -14.227   3.529  0.00  0.00    -0.009 C 
ATOM     33  C   UNL     1      -0.569 -14.908   4.851  0.00  0.00    -0.036 C 
ATOM     34  C   UNL     1      -1.909 -14.667   5.515  0.00  0.00    +0.011 C 
ATOM     35  C   UNL     1       0.550 -14.540   5.847  0.00  0.00    +0.011 C 
ATOM     36  C   UNL     1      -0.444 -16.435   4.615  0.00  0.00    +0.011 C 
ATOM     37  C   UNL     1      -4.126 -13.405   5.515  0.00  0.00    +0.009 C 
ATOM     38  H   UNL     1      -1.690 -11.190   3.405  0.00  0.00    -0.079 HD
ENDBRANCH  26  27
ENDBRANCH   9  26
TORSDOF 6
