REMARK  Name = ZINC37010477
REMARK  6 active torsions:
REMARK  status: ('A' for Active; 'I' for Inactive)
REMARK    1  A    between atoms: C_1  and  C_2
REMARK    2  A    between atoms: C_2  and  C_3
REMARK    3  A    between atoms: C_3  and  C_5
REMARK    4  A    between atoms: C_3  and  N_14
REMARK    5  A    between atoms: C_9  and  N_11
REMARK    6  A    between atoms: N_14  and  C_15
REMARK                            x       y       z     vdW  Elec       q    Type
REMARK                         _______ _______ _______ _____ _____    ______ ____
ROOT
ATOM      1  C   UNL     1       0.718  -0.497  -1.257  0.00  0.00    +0.100 C 
ENDROOT
BRANCH   1   2
ATOM      2  C   UNL     1       0.847  -1.998  -1.206  0.00  0.00    -0.025 A 
ATOM      3  C   UNL     1      -0.227  -2.796  -1.552  0.00  0.00    +0.005 A 
ATOM      4  C   UNL     1      -0.109  -4.173  -1.505  0.00  0.00    +0.003 A 
ATOM      5  C   UNL     1       1.084  -4.751  -1.113  0.00  0.00    +0.033 A 
ATOM      6  C   UNL     1       2.158  -3.953  -0.767  0.00  0.00    +0.127 A 
ATOM      7  C   UNL     1       2.041  -2.576  -0.818  0.00  0.00    +0.038 A 
BRANCH   6   8
ATOM      8  N   UNL     1       3.435  -4.572  -0.346  0.00  0.00    +0.056 N 
ATOM      9  O   UNL     1       3.538  -5.776  -0.304  0.00  0.00    -0.126 OA
ATOM     10  O   UNL     1       4.375  -3.874  -0.044  0.00  0.00    -0.126 OA
ENDBRANCH   6   8
ENDBRANCH   1   2
BRANCH   1  12
ATOM     11  C   UNL     1      -0.019   1.526   0.010  0.00  0.00    +0.006 C 
ATOM     12  C   UNL     1       0.002  -0.004   0.002  0.00  0.00    +0.023 C 
ENDBRANCH   1  12
BRANCH   1  13
ATOM     13  N   UNL     1      -0.055  -0.114  -2.441  0.00  0.00    -0.337 N 
ATOM     14  H   UNL     1      -0.683  -0.740  -2.833  0.00  0.00    +0.147 HD
BRANCH  13  15
ATOM     15  C   UNL     1       0.113   1.153  -3.004  0.00  0.00    +0.033 A 
ATOM     16  C   UNL     1       1.017   2.048  -2.446  0.00  0.00    +0.061 A 
ATOM     17  C   UNL     1       1.181   3.303  -3.005  0.00  0.00    +0.128 A 
ATOM     18  C   UNL     1       0.445   3.666  -4.121  0.00  0.00    +0.076 A 
ATOM     19  C   UNL     1      -0.457   2.776  -4.678  0.00  0.00    +0.128 A 
ATOM     20  C   UNL     1      -0.620   1.518  -4.126  0.00  0.00    +0.061 A 
ATOM     21  F   UNL     1      -1.174   3.134  -5.766  0.00  0.00    -0.205 F 
ATOM     22  F   UNL     1       2.060   4.173  -2.463  0.00  0.00    -0.205 F 
ENDBRANCH  13  15
ENDBRANCH   1  13
TORSDOF 5
