REMARK  Name = ZINC05639974
REMARK  5 active torsions:
REMARK  status: ('A' for Active; 'I' for Inactive)
REMARK    1  A    between atoms: C_1  and  O_2
REMARK    2  A    between atoms: O_2  and  C_3
REMARK    3  A    between atoms: C_10  and  C_15
REMARK    4  A    between atoms: C_28  and  N_32
REMARK    5  A    between atoms: C_29  and  C_30
REMARK                            x       y       z     vdW  Elec       q    Type
REMARK                         _______ _______ _______ _____ _____    ______ ____
ROOT
ATOM      1  C   UNL     1      -0.018   1.499   0.010  0.00  0.00    +0.104 C 
ATOM      2  C   UNL     1       1.387   2.039  -0.000  0.00  0.00    +0.015 A 
ATOM      3  C   UNL     1       1.614   3.378   0.365  0.00  0.00    -0.010 A 
ATOM      4  C   UNL     1       0.551   4.219   0.740  0.00  0.00    +0.009 A 
ATOM      5  C   UNL     1       0.805   5.510   1.087  0.00  0.00    +0.001 A 
ATOM      6  C   UNL     1       2.104   6.014   1.077  0.00  0.00    +0.001 A 
ATOM      7  C   UNL     1       3.158   5.230   0.720  0.00  0.00    +0.008 A 
ATOM      8  C   UNL     1       2.935   3.891   0.356  0.00  0.00    -0.017 A 
ATOM      9  C   UNL     1       3.997   3.050  -0.018  0.00  0.00    +0.012 A 
ATOM     10  C   UNL     1       3.744   1.761  -0.366  0.00  0.00    +0.047 A 
ATOM     11  C   UNL     1       2.438   1.249  -0.360  0.00  0.00    +0.135 A 
ATOM     12  O   UNL     1       2.244  -0.046  -0.718  0.00  0.00    -0.441 OA
ATOM     13  C   UNL     1       1.119  -0.683  -0.357  0.00  0.00    +0.199 C 
ATOM     14  C   UNL     1       0.002  -0.004   0.002  0.00  0.00    +0.098 C 
ENDROOT
BRANCH   1  22
ATOM     15  C   UNL     1      -4.333   4.436  -3.334  0.00  0.00    +0.121 A 
ATOM     16  C   UNL     1      -3.825   4.080  -4.580  0.00  0.00    +0.047 A 
ATOM     17  C   UNL     1      -2.692   3.302  -4.681  0.00  0.00    +0.030 A 
ATOM     18  C   UNL     1      -2.045   2.866  -3.529  0.00  0.00    +0.049 A 
ATOM     19  C   UNL     1      -2.556   3.223  -2.267  0.00  0.00    +0.002 A 
ATOM     20  C   UNL     1      -3.707   4.013  -2.179  0.00  0.00    +0.055 A 
ATOM     21  C   UNL     1      -1.865   2.757  -1.063  0.00  0.00    +0.020 A 
ATOM     22  C   UNL     1      -0.753   1.995  -1.209  0.00  0.00    +0.030 A 
ATOM     23  C   UNL     1      -0.278   1.669  -2.497  0.00  0.00    +0.253 A 
ATOM     24  O   UNL     1       0.726   0.986  -2.605  0.00  0.00    -0.268 OA
ATOM     25  N   UNL     1      -0.909   2.087  -3.608  0.00  0.00    -0.322 N 
ATOM     26  H   UNL     1      -0.549   1.830  -4.505  0.00  0.00    +0.169 HD
BRANCH  15  28
ATOM     27  C   UNL     1      -6.052   5.607  -4.487  0.00  0.00    +0.277 C 
ATOM     28  O   UNL     1      -5.453   5.203  -3.254  0.00  0.00    -0.495 OA
ENDBRANCH  15  28
ENDBRANCH   1  22
BRANCH  13  29
ATOM     29  N   UNL     1       1.098  -2.056  -0.351  0.00  0.00    -0.328 N 
ATOM     30  H   UNL     1       0.291  -2.528  -0.093  0.00  0.00    +0.145 HD
ATOM     31  H   UNL     1       1.891  -2.554  -0.606  0.00  0.00    +0.145 HD
ENDBRANCH  13  29
BRANCH  14  32
ATOM     32  C   UNL     1      -1.174  -0.728   0.379  0.00  0.00    +0.101 C 
ATOM     33  N   UNL     1      -2.108  -1.303   0.678  0.00  0.00    -0.191 NA
ENDBRANCH  14  32
TORSDOF 4
