REMARK  Name = ZINC39532100
REMARK  10 active torsions:
REMARK  status: ('A' for Active; 'I' for Inactive)
REMARK    1  A    between atoms: C_1  and  C_2
REMARK    2  A    between atoms: C_2  and  C_3
REMARK    3  A    between atoms: C_6  and  C_9
REMARK    4  A    between atoms: C_9  and  C_11
REMARK    5  A    between atoms: C_9  and  N_20
REMARK    6  A    between atoms: C_11  and  N_12
REMARK    7  A    between atoms: N_12  and  C_13
REMARK    8  A    between atoms: C_18  and  O_19
REMARK    9  A    between atoms: C_24  and  C_27
REMARK   10  A    between atoms: C_32  and  O_33
REMARK                            x       y       z     vdW  Elec       q    Type
REMARK                         _______ _______ _______ _____ _____    ______ ____
ROOT
ATOM      1  C   UNL     1       2.792  -1.926   4.685  0.00  0.00    -0.021 C 
ENDROOT
BRANCH   1   2
ATOM      2  N   UNL     1       2.325  -1.307   5.932  0.00  0.00    +0.383 N 
ATOM      3  C   UNL     1       2.362   0.155   5.797  0.00  0.00    -0.097 C 
ATOM      4  C   UNL     1       1.876   0.800   7.097  0.00  0.00    -0.101 C 
ATOM      5  N   UNL     1       2.749   0.389   8.204  0.00  0.00    +0.381 N 
ATOM      6  C   UNL     1       2.712  -1.073   8.339  0.00  0.00    -0.054 C 
ATOM      7  C   UNL     1       3.198  -1.718   7.040  0.00  0.00    -0.089 C 
ATOM      8  H   UNL     1       3.695   0.685   8.014  0.00  0.00    -0.085 HD
ATOM      9  H   UNL     1       2.429   0.814   9.061  0.00  0.00    -0.085 HD
ATOM     10  H   UNL     1       1.379  -1.603   6.122  0.00  0.00    -0.081 HD
BRANCH   6  11
ATOM     11  C   UNL     1       3.608  -1.496   9.475  0.00  0.00    -0.022 A 
ATOM     12  C   UNL     1       4.596  -0.643   9.930  0.00  0.00    +0.005 A 
ATOM     13  C   UNL     1       5.418  -1.030  10.972  0.00  0.00    +0.000 A 
ATOM     14  C   UNL     1       5.254  -2.270  11.562  0.00  0.00    +0.004 A 
ATOM     15  C   UNL     1       4.268  -3.126  11.111  0.00  0.00    +0.045 A 
ATOM     16  C   UNL     1       3.438  -2.737  10.069  0.00  0.00    +0.118 A 
BRANCH  16  17
ATOM     17  O   UNL     1       2.463  -3.575   9.627  0.00  0.00    -0.507 OA
ATOM     18  H   UNL     1       2.747  -4.171   8.921  0.00  0.00    +0.292 HD
ENDBRANCH  16  17
ENDBRANCH   6  11
ENDBRANCH   1   2
BRANCH   1  22
ATOM     19  C   UNL     1       0.316  -0.649   1.447  0.00  0.00    -0.048 A 
ATOM     20  C   UNL     1       1.682  -0.763   1.269  0.00  0.00    +0.004 A 
ATOM     21  C   UNL     1       2.483  -1.177   2.317  0.00  0.00    +0.002 A 
ATOM     22  C   UNL     1       1.918  -1.475   3.543  0.00  0.00    -0.059 A 
ATOM     23  C   UNL     1       0.552  -1.359   3.721  0.00  0.00    +0.002 A 
ATOM     24  C   UNL     1      -0.248  -0.942   2.674  0.00  0.00    +0.004 A 
BRANCH  19  26
ATOM     25  C   UNL     1      -0.679   1.326   0.326  0.00  0.00    +0.009 C 
ATOM     26  C   UNL     1      -0.558  -0.199   0.304  0.00  0.00    +0.032 C 
ENDBRANCH  19  26
ENDBRANCH   1  22
BRANCH   1  27
ATOM     27  C   UNL     1       2.718  -3.449   4.812  0.00  0.00    +0.091 C 
BRANCH  27  28
ATOM     28  N   UNL     1       3.273  -4.068   3.606  0.00  0.00    -0.342 N 
ATOM     29  H   UNL     1       3.680  -3.515   2.921  0.00  0.00    +0.146 HD
BRANCH  28  30
ATOM     30  C   UNL     1       3.216  -5.457   3.443  0.00  0.00    +0.069 A 
ATOM     31  C   UNL     1       2.630  -6.248   4.419  0.00  0.00    +0.026 A 
ATOM     32  C   UNL     1       2.575  -7.620   4.255  0.00  0.00    +0.002 A 
ATOM     33  C   UNL     1       3.103  -8.205   3.119  0.00  0.00    +0.004 A 
ATOM     34  C   UNL     1       3.689  -7.422   2.142  0.00  0.00    +0.047 A 
ATOM     35  C   UNL     1       3.744  -6.047   2.296  0.00  0.00    +0.138 A 
BRANCH  35  36
ATOM     36  O   UNL     1       4.315  -5.275   1.333  0.00  0.00    -0.505 OA
ATOM     37  H   UNL     1       5.263  -5.131   1.456  0.00  0.00    +0.292 HD
ENDBRANCH  35  36
ENDBRANCH  28  30
ENDBRANCH  27  28
ENDBRANCH   1  27
TORSDOF 9
