REMARK  Name = ZINC36038466
REMARK  8 active torsions:
REMARK  status: ('A' for Active; 'I' for Inactive)
REMARK    1  A    between atoms: C_1  and  C_2
REMARK    2  A    between atoms: C_2  and  C_3
REMARK    3  A    between atoms: C_2  and  C_4
REMARK    4  A    between atoms: C_4  and  C_5
REMARK    5  A    between atoms: N_9  and  C_28
REMARK    6  A    between atoms: N_14  and  S_17
REMARK    7  A    between atoms: S_17  and  C_20
REMARK    8  A    between atoms: C_28  and  C_29
REMARK                            x       y       z     vdW  Elec       q    Type
REMARK                         _______ _______ _______ _____ _____    ______ ____
ROOT
ATOM      1  C   UNL     1       2.266  -0.309  -1.061  0.00  0.00    +0.019 C 
ATOM      2  C   UNL     1       3.026  -0.844  -2.255  0.00  0.00    +0.200 C 
ATOM      3  O   UNL     1       2.932  -1.964  -2.712  0.00  0.00    -0.277 OA
ATOM      4  N   UNL     1       3.827   0.134  -2.727  0.00  0.00    -0.313 N 
ATOM      5  C   UNL     1       3.663   1.337  -1.906  0.00  0.00    +0.006 C 
ATOM      6  N   UNL     1       2.401   1.165  -1.153  0.00  0.00    +0.401 N 
ATOM      7  C   UNL     1       4.830   1.472  -0.929  0.00  0.00    +0.023 C 
ATOM      8  C   UNL     1       6.138   1.610  -1.716  0.00  0.00    +0.109 C 
ATOM      9  N   UNL     1       6.003   2.723  -2.665  0.00  0.00    -0.177 NA
ATOM     10  C   UNL     1       4.867   2.723  -3.598  0.00  0.00    +0.109 C 
ATOM     11  C   UNL     1       3.570   2.575  -2.796  0.00  0.00    +0.023 C 
ATOM     12  H   UNL     1       1.626   1.563  -1.662  0.00  0.00    -0.082 HD
ATOM     13  H   UNL     1       2.474   1.574  -0.234  0.00  0.00    -0.082 HD
ENDROOT
BRANCH   9  14
ATOM     14  S   UNL     1       7.109   3.955  -2.684  0.00  0.00    +0.061 S 
ATOM     15  O   UNL     1       6.452   5.082  -3.248  0.00  0.00    -0.153 OA
ATOM     16  O   UNL     1       7.703   3.986  -1.394  0.00  0.00    -0.153 OA
BRANCH  14  17
ATOM     17  C   UNL     1       8.381   3.496  -3.813  0.00  0.00    +0.107 A 
ATOM     18  C   UNL     1       9.479   2.784  -3.366  0.00  0.00    +0.030 A 
ATOM     19  C   UNL     1      10.477   2.424  -4.251  0.00  0.00    +0.023 A 
ATOM     20  C   UNL     1      10.379   2.775  -5.585  0.00  0.00    +0.059 A 
ATOM     21  C   UNL     1       9.280   3.487  -6.033  0.00  0.00    +0.061 A 
ATOM     22  C   UNL     1       8.278   3.842  -5.147  0.00  0.00    +0.050 A 
ATOM     23 CL   UNL     1       9.155   3.929  -7.708  0.00  0.00    -0.082 Cl
ATOM     24 CL   UNL     1      11.633   2.323  -6.697  0.00  0.00    -0.082 Cl
ENDBRANCH  14  17
ENDBRANCH   9  14
BRANCH   1  25
ATOM     25  C   UNL     1       0.793  -0.715  -1.142  0.00  0.00    -0.004 C 
BRANCH  25  27
ATOM     26  C   UNL     1      -1.449  -0.457  -0.071  0.00  0.00    +0.007 C 
ATOM     27  C   UNL     1       0.046  -0.172   0.078  0.00  0.00    -0.018 C 
ATOM     28  C   UNL     1       0.572  -0.853   1.343  0.00  0.00    +0.007 C 
ENDBRANCH  25  27
ENDBRANCH   1  25
BRANCH   4  29
ATOM     29  C   UNL     1       4.721   0.013  -3.881  0.00  0.00    +0.109 C 
BRANCH  29  30
ATOM     30  C   UNL     1       3.966   0.401  -5.154  0.00  0.00    +0.006 C 
ATOM     31  C   UNL     1       3.767  -0.682  -6.215  0.00  0.00    +0.005 C 
ATOM     32  C   UNL     1       4.763   0.453  -6.459  0.00  0.00    +0.005 C 
ENDBRANCH  29  30
ENDBRANCH   4  29
TORSDOF 6
