REMARK  Name = ZINC50567367
REMARK  7 active torsions:
REMARK  status: ('A' for Active; 'I' for Inactive)
REMARK    1  A    between atoms: C_5  and  C_7
REMARK    2  A    between atoms: N_9  and  C_10
REMARK    3  A    between atoms: C_10  and  C_17
REMARK    4  A    between atoms: C_11  and  C_12
REMARK    5  A    between atoms: N_19  and  C_20
REMARK    6  A    between atoms: C_20  and  C_21
REMARK    7  A    between atoms: C_21  and  C_22
REMARK                            x       y       z     vdW  Elec       q    Type
REMARK                         _______ _______ _______ _____ _____    ______ ____
ROOT
ATOM      1  C   UNL     1       0.135  -4.270   0.092  0.00  0.00    +0.100 C 
ATOM      2  C   UNL     1       1.306  -4.961   0.072  0.00  0.00    +0.074 C 
ENDROOT
BRANCH   2   3
ATOM      3  C   UNL     1       1.293  -6.373  -0.043  0.00  0.00    +0.130 A 
ATOM      4  C   UNL     1       2.391  -7.204   0.034  0.00  0.00    +0.049 A 
ATOM      5  C   UNL     1       1.913  -8.514  -0.134  0.00  0.00    +0.042 A 
ATOM      6  C   UNL     1       0.575  -8.432  -0.302  0.00  0.00    +0.195 A 
ATOM      7  O   UNL     1       0.205  -7.144  -0.242  0.00  0.00    -0.463 OA
ENDBRANCH   2   3
BRANCH   1  10
ATOM      8  C   UNL     1      -1.004  -2.185   0.217  0.00  0.00    +0.249 C 
ATOM      9  O   UNL     1      -2.064  -2.779   0.256  0.00  0.00    -0.270 OA
ATOM     10  N   UNL     1       0.148  -2.870   0.082  0.00  0.00    -0.277 N 
ATOM     11  H   UNL     1       0.987  -2.394  -0.022  0.00  0.00    +0.155 HD
BRANCH   8  16
ATOM     12  C   UNL     1       0.252   1.351   0.367  0.00  0.00    +0.001 A 
ATOM     13  C   UNL     1      -0.933   2.052   0.505  0.00  0.00    +0.001 A 
ATOM     14  C   UNL     1      -2.141   1.381   0.550  0.00  0.00    +0.016 A 
ATOM     15  C   UNL     1      -2.172   0.003   0.457  0.00  0.00    +0.030 A 
ATOM     16  C   UNL     1      -0.979  -0.711   0.317  0.00  0.00    +0.051 A 
ATOM     17  C   UNL     1       0.236  -0.025   0.272  0.00  0.00    +0.014 A 
ATOM     18 BR   UNL     1      -3.824  -0.914   0.519  0.00  0.00    -0.050 Br
ENDBRANCH   8  16
ENDBRANCH   1  10
BRANCH   1  19
ATOM     19  C   UNL     1      -1.140  -4.990   0.123  0.00  0.00    +0.258 C 
ATOM     20  O   UNL     1      -1.647  -5.285   1.190  0.00  0.00    -0.269 OA
ATOM     21  N   UNL     1      -1.752  -5.328  -1.029  0.00  0.00    -0.310 N 
ATOM     22  H   UNL     1      -1.315  -5.159  -1.878  0.00  0.00    +0.149 HD
BRANCH  21  23
ATOM     23  C   UNL     1      -3.079  -5.949  -1.000  0.00  0.00    +0.112 C 
BRANCH  23  24
ATOM     24  C   UNL     1      -3.543  -6.229  -2.430  0.00  0.00    +0.093 C 
BRANCH  24  25
ATOM     25  C   UNL     1      -4.907  -6.869  -2.400  0.00  0.00    +0.110 A 
ATOM     26  N   UNL     1      -6.000  -6.404  -3.063  0.00  0.00    -0.342 N 
ATOM     27  H   UNL     1      -6.038  -5.617  -3.629  0.00  0.00    +0.167 HD
ATOM     28  C   UNL     1      -7.046  -7.261  -2.782  0.00  0.00    +0.066 A 
ATOM     29  C   UNL     1      -8.382  -7.312  -3.156  0.00  0.00    +0.028 A 
ATOM     30  C   UNL     1      -9.184  -8.329  -2.687  0.00  0.00    +0.002 A 
ATOM     31  C   UNL     1      -8.666  -9.301  -1.843  0.00  0.00    +0.002 A 
ATOM     32  C   UNL     1      -7.354  -9.267  -1.463  0.00  0.00    +0.030 A 
ATOM     33  C   UNL     1      -6.521  -8.245  -1.927  0.00  0.00    +0.089 A 
ATOM     34  N   UNL     1      -5.210  -7.948  -1.740  0.00  0.00    -0.232 NA
ENDBRANCH  24  25
ENDBRANCH  23  24
ENDBRANCH  21  23
ENDBRANCH   1  19
TORSDOF 7
