REMARK  Name = ZINC14540181
REMARK  12 active torsions:
REMARK  status: ('A' for Active; 'I' for Inactive)
REMARK    1  A    between atoms: C_1  and  C_2
REMARK    2  A    between atoms: C_2  and  N_3
REMARK    3  A    between atoms: C_5  and  C_9
REMARK    4  A    between atoms: C_6  and  C_8
REMARK    5  A    between atoms: C_9  and  N_63
REMARK    6  A    between atoms: C_11  and  O_22
REMARK    7  A    between atoms: N_14  and  C_18
REMARK    8  A    between atoms: C_18  and  C_19
REMARK    9  A    between atoms: C_19  and  C_20
REMARK   10  A    between atoms: C_19  and  C_21
REMARK   11  A    between atoms: O_22  and  C_23
REMARK   12  A    between atoms: C_23  and  C_24
REMARK                            x       y       z     vdW  Elec       q    Type
REMARK                         _______ _______ _______ _____ _____    ______ ____
ROOT
ATOM      1  C   UNL     1      -0.031   1.200   1.150  0.00  0.00    -0.044 C 
ATOM      2  C   UNL     1       0.851   0.580   0.083  0.00  0.00    +0.120 C 
ATOM      3  C   UNL     1       2.287   1.097   0.198  0.00  0.00    +0.137 C 
ATOM      4  N   UNL     1       3.003   0.267   1.181  0.00  0.00    -0.300 N 
ATOM      5  C   UNL     1       2.691   0.353   2.477  0.00  0.00    +0.199 C 
ATOM      6  O   UNL     1       3.273  -0.338   3.286  0.00  0.00    -0.278 OA
ATOM      7  C   UNL     1       1.612   1.309   2.939  0.00  0.00    +0.019 C 
ATOM      8  N   UNL     1       0.303   0.753   2.516  0.00  0.00    +0.390 N 
ATOM      9  H   UNL     1       0.363  -0.272   2.523  0.00  0.00    -0.081 HD
ENDROOT
BRANCH   8  10
ATOM     10  C   UNL     1      -0.751   1.175   3.451  0.00  0.00    -0.039 C 
BRANCH  10  13
ATOM     11  N   UNL     1      -0.266  -0.343   6.731  0.00  0.00    -0.271 N 
ATOM     12  C   UNL     1      -0.184   0.712   5.894  0.00  0.00    +0.110 A 
ATOM     13  C   UNL     1      -0.655   0.319   4.688  0.00  0.00    -0.024 A 
ATOM     14  C   UNL     1      -1.043  -1.021   4.793  0.00  0.00    +0.061 A 
ATOM     15  N   UNL     1      -0.805  -1.421   6.016  0.00  0.00    -0.176 NA
ATOM     16  C   UNL     1      -1.631  -1.860   3.687  0.00  0.00    +0.068 C 
BRANCH  11  18
ATOM     17  C   UNL     1      -1.038  -0.824   9.001  0.00  0.00    +0.029 C 
ATOM     18  C   UNL     1       0.138  -0.360   8.139  0.00  0.00    +0.140 C 
ENDBRANCH  11  18
ENDBRANCH  10  13
ENDBRANCH   8  10
BRANCH   4  19
ATOM     19  C   UNL     1       4.055  -0.652   0.738  0.00  0.00    +0.110 C 
BRANCH  19  20
ATOM     20  C   UNL     1       5.403   0.071   0.751  0.00  0.00    +0.000 C 
ATOM     21  C   UNL     1       6.517  -0.920   0.409  0.00  0.00    +0.009 C 
ATOM     22  C   UNL     1       5.387   1.198  -0.285  0.00  0.00    +0.009 C 
ENDBRANCH  19  20
ENDBRANCH   4  19
BRANCH   2  23
ATOM     23  O   UNL     1       0.333   0.914  -1.207  0.00  0.00    -0.372 OA
BRANCH  23  24
ATOM     24  C   UNL     1       0.580  -0.077  -2.206  0.00  0.00    +0.198 C 
BRANCH  24  25
ATOM     25  C   UNL     1      -0.007   0.376  -3.519  0.00  0.00    +0.013 A 
ATOM     26  C   UNL     1      -0.660   1.591  -3.601  0.00  0.00    +0.009 A 
ATOM     27  C   UNL     1      -1.197   2.007  -4.805  0.00  0.00    +0.001 A 
ATOM     28  C   UNL     1      -1.082   1.209  -5.927  0.00  0.00    +0.003 A 
ATOM     29  C   UNL     1      -0.430  -0.007  -5.847  0.00  0.00    +0.039 A 
ATOM     30  C   UNL     1       0.114  -0.422  -4.643  0.00  0.00    +0.129 A 
ATOM     31  F   UNL     1       0.757  -1.608  -4.565  0.00  0.00    -0.205 F 
ENDBRANCH  24  25
ENDBRANCH  23  24
ENDBRANCH   2  23
TORSDOF 8
