REMARK  Name = ZINC19890165
REMARK  13 active torsions:
REMARK  status: ('A' for Active; 'I' for Inactive)
REMARK    1  A    between atoms: C_1  and  C_2
REMARK    2  A    between atoms: C_2  and  C_3
REMARK    3  A    between atoms: C_3  and  C_4
REMARK    4  A    between atoms: C_4  and  O_5
REMARK    5  A    between atoms: O_5  and  C_6
REMARK    6  A    between atoms: C_6  and  C_8
REMARK    7  A    between atoms: C_11  and  N_14
REMARK    8  A    between atoms: C_18  and  N_22
REMARK    9  A    between atoms: C_25  and  C_28
REMARK   10  A    between atoms: C_28  and  C_29
REMARK   11  A    between atoms: C_29  and  C_30
REMARK   12  A    between atoms: C_33  and  O_36
REMARK   13  A    between atoms: O_36  and  C_37
REMARK                            x       y       z     vdW  Elec       q    Type
REMARK                         _______ _______ _______ _____ _____    ______ ____
ROOT
ATOM      1  N   UNL     1       4.606   3.004   0.519  0.00  0.00    -0.212 N 
ATOM      2  C   UNL     1       4.107   4.099  -0.068  0.00  0.00    +0.225 C 
ATOM      3  O   UNL     1       4.251   5.235   0.329  0.00  0.00    -0.275 OA
ATOM      4  C   UNL     1       3.334   3.693  -1.304  0.00  0.00    +0.090 C 
ATOM      5  C   UNL     1       3.475   2.158  -1.331  0.00  0.00    +0.029 C 
ATOM      6  C   UNL     1       4.313   1.857  -0.107  0.00  0.00    +0.213 C 
ATOM      7  O   UNL     1       4.663   0.753   0.251  0.00  0.00    -0.277 OA
ENDROOT
BRANCH   5   8
ATOM      8  N   UNL     1       2.158   1.516  -1.227  0.00  0.00    +0.388 N 
ATOM      9  C   UNL     1       1.452   1.957  -0.018  0.00  0.00    -0.077 C 
ATOM     10  C   UNL     1       0.033   1.384  -0.017  0.00  0.00    -0.015 C 
ATOM     11  C   UNL     1       0.105  -0.145  -0.059  0.00  0.00    -0.014 C 
ATOM     12  C   UNL     1       0.887  -0.577  -1.302  0.00  0.00    -0.015 C 
ATOM     13  C   UNL     1       2.281   0.053  -1.266  0.00  0.00    -0.077 C 
ATOM     14  H   UNL     1       1.560   1.825  -2.097  0.00  0.00    -0.081 HD
BRANCH  11  15
ATOM     15  C   UNL     1      -1.311  -0.722  -0.120  0.00  0.00    +0.008 C 
BRANCH  15  16
ATOM     16  C   UNL     1      -1.244  -2.248  -0.036  0.00  0.00    +0.035 C 
BRANCH  16  17
ATOM     17  C   UNL     1      -2.638  -2.817  -0.096  0.00  0.00    -0.047 A 
ATOM     18  C   UNL     1      -3.351  -3.020   1.071  0.00  0.00    +0.007 A 
ATOM     19  C   UNL     1      -4.631  -3.536   1.019  0.00  0.00    +0.046 A 
ATOM     20  C   UNL     1      -5.198  -3.860  -0.206  0.00  0.00    +0.120 A 
ATOM     21  C   UNL     1      -4.478  -3.660  -1.375  0.00  0.00    +0.046 A 
ATOM     22  C   UNL     1      -3.200  -3.139  -1.317  0.00  0.00    +0.007 A 
BRANCH  20  23
ATOM     23  O   UNL     1      -6.455  -4.373  -0.260  0.00  0.00    -0.495 OA
ATOM     24  C   UNL     1      -7.137  -4.551   0.984  0.00  0.00    +0.277 C 
ENDBRANCH  20  23
ENDBRANCH  16  17
ENDBRANCH  15  16
ENDBRANCH  11  15
ENDBRANCH   5   8
BRANCH   1  28
ATOM     25  C   UNL     1       6.887   3.151   4.005  0.00  0.00    +0.059 A 
ATOM     26  C   UNL     1       5.618   2.566   4.022  0.00  0.00    +0.017 A 
ATOM     27  C   UNL     1       4.867   2.519   2.869  0.00  0.00    +0.025 A 
ATOM     28  C   UNL     1       5.371   3.053   1.688  0.00  0.00    +0.044 A 
ATOM     29  C   UNL     1       6.635   3.632   1.665  0.00  0.00    +0.025 A 
ATOM     30  C   UNL     1       7.389   3.687   2.816  0.00  0.00    +0.017 A 
BRANCH  25  31
ATOM     31  C   UNL     1       7.694   3.203   5.239  0.00  0.00    +0.339 C 
ATOM     32  O   UNL     1       7.256   2.736   6.271  0.00  0.00    -0.245 OA
BRANCH  31  33
ATOM     33  O   UNL     1       8.918   3.768   5.220  0.00  0.00    -0.461 OA
BRANCH  33  34
ATOM     34  C   UNL     1       9.655   3.783   6.470  0.00  0.00    +0.232 C 
BRANCH  34  35
ATOM     35  C   UNL     1      11.011   4.459   6.254  0.00  0.00    +0.041 C 
BRANCH  35  37
ATOM     36  C   UNL     1      13.144   5.151   7.356  0.00  0.00    +0.004 C 
ATOM     37  C   UNL     1      11.789   4.475   7.572  0.00  0.00    -0.000 C 
ENDBRANCH  35  37
ENDBRANCH  34  35
ENDBRANCH  33  34
ENDBRANCH  31  33
ENDBRANCH  25  31
ENDBRANCH   1  28
TORSDOF 11
