REMARK  Name = ZINC39695863
REMARK  7 active torsions:
REMARK  status: ('A' for Active; 'I' for Inactive)
REMARK    1  A    between atoms: C_1  and  C_2
REMARK    2  A    between atoms: C_10  and  C_12
REMARK    3  A    between atoms: C_12  and  C_14
REMARK    4  A    between atoms: C_12  and  N_15
REMARK    5  A    between atoms: C_16  and  C_18
REMARK    6  A    between atoms: C_29  and  C_31
REMARK    7  A    between atoms: N_35  and  C_36
REMARK                            x       y       z     vdW  Elec       q    Type
REMARK                         _______ _______ _______ _____ _____    ______ ____
ROOT
ATOM      1  C   UNL     1      -1.781  -9.066   0.085  0.00  0.00    +0.100 C 
ATOM      2  C   UNL     1      -0.563  -9.695  -0.630  0.00  0.00    +0.121 C 
ATOM      3  N   UNL     1      -0.029 -10.681   0.339  0.00  0.00    -0.295 N 
ATOM      4  C   UNL     1      -1.236 -11.292   0.947  0.00  0.00    +0.115 C 
ATOM      5  C   UNL     1      -2.221 -10.119   1.116  0.00  0.00    -0.004 C 
ATOM      6  C   UNL     1      -3.646 -10.579   0.825  0.00  0.00    -0.010 C 
ATOM      7  C   UNL     1      -4.082 -11.582   1.897  0.00  0.00    -0.082 C 
ATOM      8  N   UNL     1      -4.012 -10.948   3.219  0.00  0.00    +0.379 N 
ATOM      9  C   UNL     1      -2.622 -10.592   3.530  0.00  0.00    -0.082 C 
ATOM     10  C   UNL     1      -2.124  -9.548   2.527  0.00  0.00    -0.010 C 
ATOM     11  C   UNL     1       1.262 -10.959   0.608  0.00  0.00    +0.265 C 
ATOM     12  O   UNL     1       1.547 -11.927   1.288  0.00  0.00    -0.268 OA
ATOM     13  H   UNL     1      -4.580 -10.115   3.222  0.00  0.00    -0.086 HD
ATOM     14  H   UNL     1      -4.358 -11.590   3.917  0.00  0.00    -0.086 HD
ENDROOT
BRANCH  11  15
ATOM     15  C   UNL     1       2.324 -10.095   0.079  0.00  0.00    +0.124 A 
ATOM     16  C   UNL     1       2.182  -8.827  -0.409  0.00  0.00    +0.143 A 
ATOM     17  N   UNL     1       3.386  -8.397  -0.785  0.00  0.00    -0.243 NA
ATOM     18  C   UNL     1       4.277  -9.329  -0.559  0.00  0.00    +0.199 A 
ATOM     19  N   UNL     1       3.668 -10.400  -0.019  0.00  0.00    -0.330 N 
ATOM     20  C   UNL     1       4.309 -11.653   0.387  0.00  0.00    +0.150 C 
ENDBRANCH  11  15
BRANCH   1  22
ATOM     21  N   UNL     1      -2.276  -6.793   0.925  0.00  0.00    -0.305 N 
ATOM     22  C   UNL     1      -1.380  -7.789   0.777  0.00  0.00    +0.219 C 
ATOM     23  O   UNL     1      -0.252  -7.657   1.201  0.00  0.00    -0.275 OA
ATOM     24  H   UNL     1      -3.179  -6.899   0.586  0.00  0.00    +0.149 HD
BRANCH  21  25
ATOM     25  C   UNL     1      -1.887  -5.551   1.598  0.00  0.00    +0.136 C 
ATOM     26  C   UNL     1      -1.227  -4.609   0.589  0.00  0.00    +0.036 C 
BRANCH  25  36
ATOM     27  C   UNL     1      -7.072  -1.720   5.316  0.00  0.00    +0.044 C 
ATOM     28  C   UNL     1      -6.398  -2.632   4.323  0.00  0.00    -0.048 A 
ATOM     29  C   UNL     1      -7.158  -3.288   3.365  0.00  0.00    +0.005 A 
ATOM     30  C   UNL     1      -6.567  -4.119   2.456  0.00  0.00    +0.030 A 
ATOM     31  C   UNL     1      -5.183  -4.312   2.486  0.00  0.00    +0.089 A 
ATOM     32  C   UNL     1      -4.414  -3.647   3.455  0.00  0.00    +0.067 A 
ATOM     33  C   UNL     1      -5.031  -2.803   4.368  0.00  0.00    +0.031 A 
ATOM     34  N   UNL     1      -3.107  -4.033   3.234  0.00  0.00    -0.340 N 
ATOM     35  H   UNL     1      -2.329  -3.746   3.739  0.00  0.00    +0.167 HD
ATOM     36  C   UNL     1      -3.111  -4.889   2.177  0.00  0.00    +0.128 A 
ATOM     37  N   UNL     1      -4.325  -5.053   1.739  0.00  0.00    -0.231 NA
ENDBRANCH  25  36
ENDBRANCH  21  25
ENDBRANCH   1  22
TORSDOF 4
