REMARK  Name = ZINC40646439
REMARK  9 active torsions:
REMARK  status: ('A' for Active; 'I' for Inactive)
REMARK    1  A    between atoms: C_1  and  C_2
REMARK    2  A    between atoms: C_5  and  S_8
REMARK    3  A    between atoms: S_8  and  N_11
REMARK    4  A    between atoms: N_11  and  N_12
REMARK    5  A    between atoms: C_14  and  N_33
REMARK    6  A    between atoms: C_15  and  N_19
REMARK    7  A    between atoms: N_19  and  N_20
REMARK    8  A    between atoms: N_20  and  C_21
REMARK    9  A    between atoms: N_20  and  C_27
REMARK                            x       y       z     vdW  Elec       q    Type
REMARK                         _______ _______ _______ _____ _____    ______ ____
ROOT
ATOM      1  N   UNL     1       2.219  -2.708   3.591  0.00  0.00    -0.244 N 
ATOM      2  C   UNL     1       2.908  -3.910   3.547  0.00  0.00    +0.169 A 
ATOM      3  C   UNL     1       3.924  -4.175   4.460  0.00  0.00    +0.208 A 
ATOM      4  C   UNL     1       4.585  -5.396   4.373  0.00  0.00    +0.171 A 
ATOM      5  N   UNL     1       4.224  -6.261   3.426  0.00  0.00    -0.217 NA
ATOM      6  C   UNL     1       3.257  -5.973   2.580  0.00  0.00    +0.225 A 
ATOM      7  N   UNL     1       2.603  -4.830   2.633  0.00  0.00    -0.217 NA
ATOM      8  H   UNL     1       2.446  -2.042   4.259  0.00  0.00    +0.169 HD
ENDROOT
BRANCH   3   9
ATOM      9  N   UNL     1       4.292  -3.184   5.495  0.00  0.00    +0.063 N 
ATOM     10  O   UNL     1       3.744  -3.203   6.573  0.00  0.00    -0.126 OA
ATOM     11  O   UNL     1       5.141  -2.355   5.264  0.00  0.00    -0.126 OA
ENDBRANCH   3   9
BRANCH   1  12
ATOM     12  N   UNL     1       1.193  -2.453   2.671  0.00  0.00    -0.109 NA
ATOM     13  H   UNL     1       1.369  -2.519   1.719  0.00  0.00    +0.172 HD
BRANCH  12  14
ATOM     14  S   UNL     1      -0.318  -2.040   3.207  0.00  0.00    +0.074 S 
ATOM     15  O   UNL     1      -0.716  -3.054   4.120  0.00  0.00    -0.152 OA
ATOM     16  O   UNL     1      -1.081  -1.710   2.055  0.00  0.00    -0.152 OA
BRANCH  14  21
ATOM     17  C   UNL     1       0.251   3.039   6.414  0.00  0.00    +0.044 C 
ATOM     18  C   UNL     1       0.109   1.770   5.613  0.00  0.00    -0.050 A 
ATOM     19  C   UNL     1      -0.131   1.835   4.253  0.00  0.00    +0.005 A 
ATOM     20  C   UNL     1      -0.261   0.671   3.519  0.00  0.00    +0.029 A 
ATOM     21  C   UNL     1      -0.151  -0.557   4.144  0.00  0.00    +0.107 A 
ATOM     22  C   UNL     1       0.090  -0.622   5.503  0.00  0.00    +0.029 A 
ATOM     23  C   UNL     1       0.225   0.542   6.237  0.00  0.00    +0.005 A 
ENDBRANCH  14  21
ENDBRANCH  12  14
ENDBRANCH   1  12
BRANCH   4  24
ATOM     24  N   UNL     1       5.605  -5.708   5.259  0.00  0.00    -0.242 N 
ATOM     25  H   UNL     1       5.862  -5.073   5.946  0.00  0.00    +0.172 HD
BRANCH  24  26
ATOM     26  N   UNL     1       6.264  -6.941   5.163  0.00  0.00    -0.221 N 
BRANCH  26  27
ATOM     27  C   UNL     1       7.553  -7.004   4.628  0.00  0.00    +0.053 A 
ATOM     28  C   UNL     1       7.807  -6.492   3.361  0.00  0.00    +0.025 A 
ATOM     29  C   UNL     1       9.082  -6.556   2.836  0.00  0.00    +0.002 A 
ATOM     30  C   UNL     1      10.106  -7.129   3.568  0.00  0.00    +0.000 A 
ATOM     31  C   UNL     1       9.856  -7.640   4.828  0.00  0.00    +0.002 A 
ATOM     32  C   UNL     1       8.585  -7.574   5.363  0.00  0.00    +0.025 A 
ENDBRANCH  26  27
BRANCH  26  33
ATOM     33  C   UNL     1       5.632  -8.107   5.602  0.00  0.00    +0.053 A 
ATOM     34  C   UNL     1       4.437  -8.028   6.306  0.00  0.00    +0.025 A 
ATOM     35  C   UNL     1       3.815  -9.183   6.738  0.00  0.00    +0.002 A 
ATOM     36  C   UNL     1       4.380 -10.416   6.471  0.00  0.00    +0.000 A 
ATOM     37  C   UNL     1       5.570 -10.498   5.771  0.00  0.00    +0.002 A 
ATOM     38  C   UNL     1       6.194  -9.348   5.330  0.00  0.00    +0.025 A 
ENDBRANCH  26  33
ENDBRANCH  24  26
ENDBRANCH   4  24
TORSDOF 8
