REMARK  Name = ZINC04002416
REMARK  4 active torsions:
REMARK  status: ('A' for Active; 'I' for Inactive)
REMARK    1  A    between atoms: C_9  and  C_11
REMARK    2  A    between atoms: C_12  and  O_32
REMARK    3  A    between atoms: C_13  and  N_27
REMARK    4  A    between atoms: C_15  and  C_20
REMARK                            x       y       z     vdW  Elec       q    Type
REMARK                         _______ _______ _______ _____ _____    ______ ____
ROOT
ATOM      1  C   UNL     1       1.037   5.825   0.972  0.00  0.00    +0.025 C 
ATOM      2  C   UNL     1       2.142   6.409   0.474  0.00  0.00    +0.124 C 
ATOM      3  C   UNL     1       3.232   6.917   1.380  0.00  0.00    +0.182 C 
ATOM      4  C   UNL     1       3.271   6.071   2.655  0.00  0.00    +0.058 C 
ATOM      5  C   UNL     1       1.897   6.127   3.329  0.00  0.00    +0.090 C 
ATOM      6  C   UNL     1       0.848   5.663   2.352  0.00  0.00    +0.162 C 
ATOM      7  O   UNL     1      -0.169   5.139   2.762  0.00  0.00    -0.292 OA
ENDROOT
BRANCH   1  16
ATOM      8  C   UNL     1      -0.319   1.088   0.372  0.00  0.00    +0.000 A 
ATOM      9  C   UNL     1       0.916   1.710   0.355  0.00  0.00    +0.000 A 
ATOM     10  C   UNL     1       0.993   3.083   0.242  0.00  0.00    +0.002 A 
ATOM     11  C   UNL     1      -0.163   3.845   0.148  0.00  0.00    -0.054 A 
ATOM     12  C   UNL     1      -1.393   3.225   0.168  0.00  0.00    -0.047 A 
ATOM     13  C   UNL     1      -1.469   1.844   0.273  0.00  0.00    +0.004 A 
ATOM     14  C   UNL     1      -2.676   4.011   0.074  0.00  0.00    +0.016 C 
ATOM     15  C   UNL     1      -2.390   5.418  -0.450  0.00  0.00    -0.077 C 
ATOM     16  C   UNL     1      -0.028   5.340   0.022  0.00  0.00    -0.003 C 
ATOM     17  N   UNL     1      -1.297   6.003   0.349  0.00  0.00    +0.387 N 
ATOM     18  H   UNL     1      -1.500   5.877   1.347  0.00  0.00    -0.085 HD
ATOM     19  H   UNL     1      -1.222   7.005   0.139  0.00  0.00    -0.085 HD
ENDBRANCH   1  16
BRANCH   4  20
ATOM     20  C   UNL     1       4.316   6.619   3.593  0.00  0.00    -0.040 A 
ATOM     21  C   UNL     1       4.217   7.919   4.053  0.00  0.00    +0.004 A 
ATOM     22  C   UNL     1       5.172   8.422   4.917  0.00  0.00    +0.002 A 
ATOM     23  C   UNL     1       6.232   7.628   5.313  0.00  0.00    +0.020 A 
ATOM     24  C   UNL     1       6.334   6.329   4.849  0.00  0.00    +0.041 A 
ATOM     25  C   UNL     1       5.375   5.825   3.988  0.00  0.00    +0.024 A 
ATOM     26 CL   UNL     1       7.666   5.332   5.345  0.00  0.00    -0.084 Cl
ENDBRANCH   4  20
BRANCH   3  27
ATOM     27  N   UNL     1       4.522   6.823   0.692  0.00  0.00    -0.241 N 
ATOM     28  C   UNL     1       4.907   5.866  -0.171  0.00  0.00    +0.219 A 
ATOM     29  N   UNL     1       6.125   6.141  -0.564  0.00  0.00    -0.223 NA
ATOM     30  C   UNL     1       6.548   7.260   0.023  0.00  0.00    +0.245 A 
ATOM     31  N   UNL     1       5.600   7.717   0.797  0.00  0.00    -0.158 NA
ENDBRANCH   3  27
BRANCH   2  32
ATOM     32  O   UNL     1       2.276   6.542  -0.860  0.00  0.00    -0.509 OA
ATOM     33  H   UNL     1       3.146   6.991  -1.064  0.00  0.00    +0.292 HD
ENDBRANCH   2  32
TORSDOF 4
