REMARK  Name = ZINC39795875
REMARK  8 active torsions:
REMARK  status: ('A' for Active; 'I' for Inactive)
REMARK    1  A    between atoms: C_1  and  C_2
REMARK    2  A    between atoms: C_3  and  C_4
REMARK    3  A    between atoms: C_6  and  C_14
REMARK    4  A    between atoms: C_8  and  O_12
REMARK    5  A    between atoms: C_9  and  O_10
REMARK    6  A    between atoms: O_10  and  C_11
REMARK    7  A    between atoms: O_12  and  C_13
REMARK    8  A    between atoms: C_19  and  C_22
REMARK                            x       y       z     vdW  Elec       q    Type
REMARK                         _______ _______ _______ _____ _____    ______ ____
ROOT
ATOM      1  C   UNL     1      -0.604  -4.994   1.140  0.00  0.00    +0.247 C 
ATOM      2  O   UNL     1      -1.058  -4.417   2.109  0.00  0.00    -0.270 OA
ATOM      3  N   UNL     1      -0.664  -6.338   1.067  0.00  0.00    -0.293 N 
ATOM      4  C   UNL     1      -1.360  -7.130   2.096  0.00  0.00    +0.113 C 
ATOM      5  C   UNL     1      -2.527  -7.858   1.425  0.00  0.00    +0.054 C 
ATOM      6  C   UNL     1      -2.079  -8.491   0.140  0.00  0.00    -0.043 C 
ATOM      7  C   UNL     1      -0.981  -8.142  -0.519  0.00  0.00    -0.004 C 
ATOM      8  C   UNL     1      -0.043  -7.071  -0.045  0.00  0.00    +0.135 C 
ENDROOT
BRANCH   6   9
ATOM      9  C   UNL     1      -2.874  -9.522  -0.400  0.00  0.00    -0.016 C 
ATOM     10  C   UNL     1      -4.110  -9.958   0.060  0.00  0.00    +0.003 A 
ATOM     11  C   UNL     1      -4.926  -9.549   1.141  0.00  0.00    +0.010 A 
ATOM     12  C   UNL     1      -6.112 -10.168   1.359  0.00  0.00    +0.001 A 
ATOM     13  C   UNL     1      -6.558 -11.210   0.539  0.00  0.00    +0.002 A 
ATOM     14  C   UNL     1      -5.831 -11.653  -0.513  0.00  0.00    +0.026 A 
ATOM     15  C   UNL     1      -4.576 -11.055  -0.807  0.00  0.00    +0.043 A 
ATOM     16  N   UNL     1      -3.696 -11.298  -1.754  0.00  0.00    -0.380 N 
ATOM     17  C   UNL     1      -2.563 -10.379  -1.607  0.00  0.00    +0.149 C 
ATOM     18  H   UNL     1      -3.784 -11.976  -2.442  0.00  0.00    +0.160 HD
ENDBRANCH   6   9
BRANCH   1  21
ATOM     19  C   UNL     1      -0.010  -2.330  -1.451  0.00  0.00    +0.021 A 
ATOM     20  C   UNL     1      -0.595  -3.056  -0.417  0.00  0.00    +0.024 A 
ATOM     21  C   UNL     1       0.014  -4.222   0.043  0.00  0.00    +0.041 A 
ATOM     22  C   UNL     1       1.210  -4.661  -0.533  0.00  0.00    +0.062 A 
ATOM     23  C   UNL     1       1.791  -3.941  -1.559  0.00  0.00    +0.163 A 
ATOM     24  C   UNL     1       1.185  -2.778  -2.028  0.00  0.00    +0.169 A 
BRANCH  19  27
ATOM     25  C   UNL     1      -2.437   0.591  -1.897  0.00  0.00    +0.035 C 
ATOM     26  C   UNL     1      -1.783  -0.670  -1.395  0.00  0.00    -0.029 C 
ATOM     27  C   UNL     1      -0.652  -1.093  -1.943  0.00  0.00    +0.007 C 
ENDBRANCH  19  27
BRANCH  24  28
ATOM     28  O   UNL     1       1.755  -2.076  -3.040  0.00  0.00    -0.491 OA
ATOM     29  C   UNL     1       2.691  -1.060  -2.677  0.00  0.00    +0.277 C 
ENDBRANCH  24  28
BRANCH  23  30
ATOM     30  O   UNL     1       2.954  -4.371  -2.116  0.00  0.00    -0.491 OA
ATOM     31  C   UNL     1       3.519  -5.575  -1.592  0.00  0.00    +0.277 C 
ENDBRANCH  23  30
ENDBRANCH   1  21
TORSDOF 5
