REMARK  Name = ZINC49010302
REMARK  9 active torsions:
REMARK  status: ('A' for Active; 'I' for Inactive)
REMARK    1  A    between atoms: C_1  and  C_2
REMARK    2  A    between atoms: C_7  and  N_10
REMARK    3  A    between atoms: N_10  and  C_11
REMARK    4  A    between atoms: N_10  and  C_12
REMARK    5  A    between atoms: C_12  and  C_14
REMARK    6  A    between atoms: C_12  and  C_16
REMARK    7  A    between atoms: C_14  and  N_15
REMARK    8  A    between atoms: C_19  and  O_23
REMARK    9  A    between atoms: O_23  and  C_24
REMARK                            x       y       z     vdW  Elec       q    Type
REMARK                         _______ _______ _______ _____ _____    ______ ____
ROOT
ATOM      1  C   UNL     1       0.085   0.564   4.617  0.00  0.00    -0.056 C 
ENDROOT
BRANCH   1   2
ATOM      2  C   UNL     1      -0.124   1.873   3.901  0.00  0.00    -0.061 A 
ATOM      3  C   UNL     1       0.855   2.359   3.053  0.00  0.00    +0.005 A 
ATOM      4  C   UNL     1       0.667   3.559   2.395  0.00  0.00    +0.047 A 
ATOM      5  C   UNL     1      -0.505   4.276   2.584  0.00  0.00    +0.134 A 
ATOM      6  C   UNL     1      -1.487   3.786   3.434  0.00  0.00    +0.060 A 
ATOM      7  C   UNL     1      -1.296   2.582   4.087  0.00  0.00    +0.021 A 
ATOM      8 BR   UNL     1      -3.086   4.760   3.695  0.00  0.00    -0.047 Br
BRANCH   5   9
ATOM      9  O   UNL     1      -0.693   5.457   1.938  0.00  0.00    -0.494 OA
ATOM     10  C   UNL     1       0.360   5.901   1.078  0.00  0.00    +0.277 C 
ENDBRANCH   5   9
ENDBRANCH   1   2
BRANCH   1  11
ATOM     11  N   UNL     1       0.542  -0.452   3.660  0.00  0.00    +0.383 N 
ATOM     12  C   UNL     1       1.999  -0.356   3.502  0.00  0.00    -0.095 C 
ATOM     13  H   UNL     1       0.300  -1.370   4.002  0.00  0.00    -0.081 HD
BRANCH  11  19
ATOM     14  C   UNL     1       0.062   0.246  -0.525  0.00  0.00    +0.007 C 
ATOM     15  C   UNL     1      -0.380  -1.105   0.038  0.00  0.00    -0.016 C 
ATOM     16  C   UNL     1      -1.899  -1.111   0.219  0.00  0.00    +0.003 C 
ATOM     17  C   UNL     1      -2.301   0.002   1.189  0.00  0.00    -0.001 C 
ATOM     18  C   UNL     1      -1.626  -0.232   2.542  0.00  0.00    -0.015 C 
ATOM     19  C   UNL     1      -0.107  -0.227   2.361  0.00  0.00    -0.068 C 
ATOM     20  C   UNL     1       0.295  -1.340   1.391  0.00  0.00    -0.012 C 
ENDBRANCH  11  19
ENDBRANCH   1  11
BRANCH   1  21
ATOM     21  C   UNL     1       1.139   0.744   5.712  0.00  0.00    -0.098 C 
BRANCH  21  22
ATOM     22  N   UNL     1       1.348  -0.534   6.406  0.00  0.00    +0.377 N 
ATOM     23  H   UNL     1       2.000  -0.402   7.165  0.00  0.00    -0.090 HD
ATOM     24  H   UNL     1       0.468  -0.865   6.772  0.00  0.00    -0.090 HD
ATOM     25  H   UNL     1       1.719  -1.212   5.758  0.00  0.00    -0.090 HD
ENDBRANCH  21  22
ENDBRANCH   1  21
TORSDOF 6
