REMARK  Name = ZINC09706352
REMARK  7 active torsions:
REMARK  status: ('A' for Active; 'I' for Inactive)
REMARK    1  A    between atoms: C_1  and  C_2
REMARK    2  A    between atoms: C_5  and  N_12
REMARK    3  A    between atoms: C_8  and  C_10
REMARK    4  A    between atoms: C_8  and  C_11
REMARK    5  A    between atoms: C_13  and  C_15
REMARK    6  A    between atoms: N_17  and  C_18
REMARK    7  A    between atoms: C_26  and  C_27
REMARK                            x       y       z     vdW  Elec       q    Type
REMARK                         _______ _______ _______ _____ _____    ______ ____
ROOT
ATOM      1  C   UNL     1       4.407   5.527  -0.434  0.00  0.00    +0.303 C 
ATOM      2  O   UNL     1       3.845   5.945  -1.425  0.00  0.00    -0.265 OA
ATOM      3  N   UNL     1       3.719   5.367   0.714  0.00  0.00    -0.274 N 
ATOM      4  H   UNL     1       4.185   5.119   1.528  0.00  0.00    +0.155 HD
ENDROOT
BRANCH   3   5
ATOM      5  C   UNL     1       2.344   5.558   0.731  0.00  0.00    +0.093 A 
ATOM      6  C   UNL     1       1.587   6.607   0.038  0.00  0.00    +0.042 A 
ATOM      7  C   UNL     1       1.941   7.669  -0.795  0.00  0.00    +0.013 A 
ATOM      8  C   UNL     1       0.970   8.492  -1.294  0.00  0.00    +0.001 A 
ATOM      9  C   UNL     1      -0.364   8.279  -0.974  0.00  0.00    +0.004 A 
ATOM     10  C   UNL     1      -0.733   7.232  -0.157  0.00  0.00    +0.047 A 
ATOM     11  C   UNL     1       0.238   6.383   0.362  0.00  0.00    +0.138 A 
ATOM     12  O   UNL     1       0.181   5.306   1.171  0.00  0.00    -0.448 OA
ATOM     13  C   UNL     1       1.416   4.806   1.399  0.00  0.00    +0.211 A 
BRANCH  13  14
ATOM     14  C   UNL     1       1.714   3.642   2.232  0.00  0.00    +0.279 C 
ATOM     15  O   UNL     1       2.870   3.345   2.472  0.00  0.00    -0.267 OA
ATOM     16  N   UNL     1       0.709   2.897   2.734  0.00  0.00    -0.323 N 
ATOM     17  H   UNL     1      -0.212   3.134   2.543  0.00  0.00    +0.145 HD
ATOM     18  H   UNL     1       0.906   2.125   3.286  0.00  0.00    +0.145 HD
ENDBRANCH  13  14
ENDBRANCH   3   5
BRANCH   1  20
ATOM     19  N   UNL     1       6.548   5.348  -1.636  0.00  0.00    -0.305 N 
ATOM     20  C   UNL     1       5.860   5.188  -0.487  0.00  0.00    +0.300 C 
ATOM     21  O   UNL     1       6.422   4.769   0.503  0.00  0.00    -0.265 OA
ATOM     22  H   UNL     1       6.099   5.683  -2.427  0.00  0.00    +0.149 HD
BRANCH  19  26
ATOM     23  C   UNL     1       8.656   6.256  -5.269  0.00  0.00    +0.007 C 
ATOM     24  C   UNL     1       8.199   6.316  -3.809  0.00  0.00    -0.012 C 
ATOM     25  C   UNL     1       8.431   4.956  -3.147  0.00  0.00    +0.025 C 
ATOM     26  C   UNL     1       7.974   5.016  -1.688  0.00  0.00    +0.074 C 
ATOM     27  C   UNL     1       8.774   6.088  -0.946  0.00  0.00    +0.028 C 
ATOM     28  C   UNL     1       8.543   7.447  -1.609  0.00  0.00    -0.033 C 
ATOM     29  C   UNL     1       9.000   7.388  -3.068  0.00  0.00    +0.009 C 
ATOM     30  C   UNL     1       9.343   8.520  -0.867  0.00  0.00    +0.011 C 
ATOM     31  C   UNL     1       7.054   7.794  -1.554  0.00  0.00    +0.011 C 
ENDBRANCH  19  26
ENDBRANCH   1  20
TORSDOF 4
