REMARK  Name = ZINC30267746
REMARK  18 active torsions:
REMARK  status: ('A' for Active; 'I' for Inactive)
REMARK    1  A    between atoms: C_1  and  C_2
REMARK    2  A    between atoms: C_2  and  C_3
REMARK    3  A    between atoms: C_3  and  C_4
REMARK    4  A    between atoms: C_4  and  N_5
REMARK    5  A    between atoms: N_5  and  C_6
REMARK    6  A    between atoms: C_7  and  N_19
REMARK    7  A    between atoms: N_8  and  C_15
REMARK    8  A    between atoms: C_15  and  C_16
REMARK    9  A    between atoms: C_16  and  C_17
REMARK   10  A    between atoms: C_16  and  C_18
REMARK   11  A    between atoms: C_20  and  C_22
REMARK   12  A    between atoms: C_22  and  N_23
REMARK   13  A    between atoms: N_23  and  C_24
REMARK   14  A    between atoms: N_23  and  C_25
REMARK   15  A    between atoms: C_25  and  C_26
REMARK   16  A    between atoms: C_26  and  C_27
REMARK   17  A    between atoms: C_27  and  O_28
REMARK   18  A    between atoms: O_28  and  C_29
REMARK                            x       y       z     vdW  Elec       q    Type
REMARK                         _______ _______ _______ _____ _____    ______ ____
ROOT
ATOM      1  N   UNL     1       5.247  10.790   0.769  0.00  0.00    -0.266 N 
ATOM      2  C   UNL     1       4.192   9.949   0.744  0.00  0.00    +0.203 C 
ATOM      3  O   UNL     1       3.072  10.374   0.941  0.00  0.00    -0.277 OA
ENDROOT
BRANCH   1   4
ATOM      4  C   UNL     1       5.040  12.177   0.926  0.00  0.00    +0.140 A 
ATOM      5  C   UNL     1       4.346  12.895  -0.025  0.00  0.00    +0.127 A 
ATOM      6  N   UNL     1       4.160  14.246   0.157  0.00  0.00    -0.280 N 
ATOM      7  C   UNL     1       4.650  14.859   1.250  0.00  0.00    +0.331 A 
ATOM      8  O   UNL     1       4.476  16.054   1.392  0.00  0.00    -0.246 OA
ATOM      9  N   UNL     1       5.330  14.175   2.187  0.00  0.00    -0.273 N 
ATOM     10  H   UNL     1       5.726  14.698   3.070  0.00  0.00    +0.173 HD
ATOM     11  C   UNL     1       5.535  12.850   2.059  0.00  0.00    +0.277 A 
ATOM     12  O   UNL     1       6.148  12.238   2.918  0.00  0.00    -0.266 OA
BRANCH   5  13
ATOM     13  N   UNL     1       3.845  12.269  -1.141  0.00  0.00    -0.343 N 
ATOM     14  H   UNL     1       3.292  12.848  -1.895  0.00  0.00    +0.144 HD
ATOM     15  H   UNL     1       3.998  11.188  -1.280  0.00  0.00    +0.144 HD
ENDBRANCH   5  13
BRANCH   6  16
ATOM     16  C   UNL     1       3.424  15.021  -0.844  0.00  0.00    +0.131 C 
BRANCH  16  17
ATOM     17  C   UNL     1       1.935  15.027  -0.491  0.00  0.00    +0.003 C 
ATOM     18  C   UNL     1       1.727  15.771   0.829  0.00  0.00    +0.009 C 
ATOM     19  C   UNL     1       1.151  15.730  -1.601  0.00  0.00    +0.009 C 
ENDBRANCH  16  17
ENDBRANCH   6  16
ENDBRANCH   1   4
BRANCH   1  20
ATOM     20  C   UNL     1       6.607  10.263   0.632  0.00  0.00    +0.114 C 
BRANCH  20  21
ATOM     21  C   UNL     1       7.017  10.287  -0.842  0.00  0.00    +0.019 C 
BRANCH  21  23
ATOM     22  C   UNL     1       8.847   9.760  -2.459  0.00  0.00    +0.004 C 
ATOM     23  C   UNL     1       8.437   9.736  -0.986  0.00  0.00    -0.002 C 
ENDBRANCH  21  23
ENDBRANCH  20  21
ENDBRANCH   1  20
BRANCH   2  24
ATOM     24  C   UNL     1       4.403   8.482   0.472  0.00  0.00    +0.019 C 
BRANCH  24  25
ATOM     25  N   UNL     1       3.109   7.787   0.499  0.00  0.00    +0.384 N 
ATOM     26  C   UNL     1       2.252   8.228  -0.609  0.00  0.00    -0.096 C 
ATOM     27  H   UNL     1       2.605   8.049   1.441  0.00  0.00    -0.082 HD
BRANCH  25  28
ATOM     28  C   UNL     1       3.293   6.330   0.475  0.00  0.00    -0.075 C 
BRANCH  28  29
ATOM     29  C   UNL     1       1.956   5.642   0.754  0.00  0.00    +0.022 C 
BRANCH  29  30
ATOM     30  C   UNL     1       2.147   4.124   0.729  0.00  0.00    +0.227 C 
BRANCH  30  31
ATOM     31  O   UNL     1       0.898   3.482   0.990  0.00  0.00    -0.492 OA
BRANCH  31  32
ATOM     32  C   UNL     1       0.894   2.123   1.003  0.00  0.00    +0.121 A 
ATOM     33  C   UNL     1      -0.285   1.434   1.250  0.00  0.00    +0.048 A 
ATOM     34  C   UNL     1      -0.288   0.053   1.262  0.00  0.00    +0.042 A 
ATOM     35  C   UNL     1       0.885  -0.645   1.029  0.00  0.00    +0.124 A 
ATOM     36  C   UNL     1       2.062   0.041   0.783  0.00  0.00    +0.042 A 
ATOM     37  C   UNL     1       2.068   1.423   0.770  0.00  0.00    +0.048 A 
ATOM     38  F   UNL     1       0.881  -1.996   1.043  0.00  0.00    -0.205 F 
ENDBRANCH  31  32
ENDBRANCH  30  31
ENDBRANCH  29  30
ENDBRANCH  28  29
ENDBRANCH  25  28
ENDBRANCH  24  25
ENDBRANCH   2  24
TORSDOF 14
