REMARK  Name = ZINC15107437
REMARK  5 active torsions:
REMARK  status: ('A' for Active; 'I' for Inactive)
REMARK    1  A    between atoms: C_4  and  C_7
REMARK    2  A    between atoms: C_11  and  C_12
REMARK    3  A    between atoms: C_15  and  C_21
REMARK    4  A    between atoms: C_18  and  O_20
REMARK    5  A    between atoms: C_24  and  C_27
REMARK                            x       y       z     vdW  Elec       q    Type
REMARK                         _______ _______ _______ _____ _____    ______ ____
ROOT
ATOM      1  C   UNL     1       3.696  -0.685  -0.038  0.00  0.00    +0.029 A 
ATOM      2  C   UNL     1       4.090  -1.473  -1.123  0.00  0.00    +0.087 A 
ATOM      3  C   UNL     1       5.330  -2.088  -1.018  0.00  0.00    +0.024 A 
ATOM      4  S   UNL     1       5.938  -1.647   0.466  0.00  0.00    -0.083 S 
ATOM      5  C   UNL     1       4.598  -0.612   1.029  0.00  0.00    +0.110 A 
ATOM      6  C   UNL     1       5.930  -2.958  -2.082  0.00  0.00    +0.067 C 
ATOM      7  C   UNL     1       4.773  -3.608  -2.854  0.00  0.00    +0.108 C 
ATOM      8  C   UNL     1       3.671  -2.620  -3.098  0.00  0.00    +0.188 C 
ATOM      9  N   UNL     1       3.355  -1.665  -2.289  0.00  0.00    -0.216 NA
ENDROOT
BRANCH   1  13
ATOM     10  C   UNL     1      -0.017   1.379   0.010  0.00  0.00    +0.000 A 
ATOM     11  C   UNL     1       1.168   2.093   0.002  0.00  0.00    +0.001 A 
ATOM     12  C   UNL     1       2.377   1.429  -0.013  0.00  0.00    +0.008 A 
ATOM     13  C   UNL     1       2.403   0.034  -0.021  0.00  0.00    -0.015 A 
ATOM     14  C   UNL     1       1.204  -0.680  -0.013  0.00  0.00    +0.008 A 
ATOM     15  C   UNL     1       0.002  -0.004   0.002  0.00  0.00    +0.001 A 
ENDBRANCH   1  13
BRANCH   6  16
ATOM     16  C   UNL     1       6.787  -4.023  -1.448  0.00  0.00    -0.039 A 
ATOM     17  C   UNL     1       6.222  -4.928  -0.568  0.00  0.00    +0.005 A 
ATOM     18  C   UNL     1       7.001  -5.906   0.016  0.00  0.00    +0.015 A 
ATOM     19  C   UNL     1       8.363  -5.981  -0.284  0.00  0.00    +0.063 A 
ATOM     20  C   UNL     1       8.927  -5.064  -1.175  0.00  0.00    +0.015 A 
ATOM     21  C   UNL     1       8.135  -4.095  -1.755  0.00  0.00    +0.005 A 
BRANCH  19  22
ATOM     22  C   UNL     1       9.203  -7.023   0.336  0.00  0.00    +0.387 C 
ATOM     23  O   UNL     1       8.706  -7.824   1.116  0.00  0.00    -0.241 OA
ATOM     24  O   UNL     1      10.395  -7.086   0.071  0.00  0.00    -0.241 OA
ENDBRANCH  19  22
ENDBRANCH   6  16
BRANCH   5  25
ATOM     25  C   UNL     1       4.478   0.100   2.244  0.00  0.00    +0.394 C 
ATOM     26  O   UNL     1       3.475   0.767   2.467  0.00  0.00    -0.240 OA
ATOM     27  O   UNL     1       5.378   0.049   3.075  0.00  0.00    -0.240 OA
ENDBRANCH   5  25
BRANCH   8  28
ATOM     28  O   UNL     1       2.961  -2.737  -4.241  0.00  0.00    -0.495 OA
ATOM     29  H   UNL     1       2.266  -2.073  -4.342  0.00  0.00    +0.293 HD
ENDBRANCH   8  28
TORSDOF 5
