REMARK  Name = ZINC15679506
REMARK  6 active torsions:
REMARK  status: ('A' for Active; 'I' for Inactive)
REMARK    1  A    between atoms: C_1  and  C_2
REMARK    2  A    between atoms: C_2  and  C_27
REMARK    3  A    between atoms: C_11  and  N_22
REMARK    4  A    between atoms: N_15  and  C_16
REMARK    5  A    between atoms: C_16  and  C_17
REMARK    6  A    between atoms: N_29  and  C_30
REMARK                            x       y       z     vdW  Elec       q    Type
REMARK                         _______ _______ _______ _____ _____    ______ ____
ROOT
ATOM      1  C   UNL     1       0.154   5.421  -0.887  0.00  0.00    +0.043 C 
ATOM      2  C   UNL     1       0.295   3.900  -0.813  0.00  0.00    +0.129 C 
ATOM      3  C   UNL     1       1.558   3.558  -0.025  0.00  0.00    +0.157 C 
ATOM      4  N   UNL     1       1.561   2.122   0.284  0.00  0.00    -0.332 N 
ATOM      5  C   UNL     1       2.607   1.278   0.459  0.00  0.00    +0.052 A 
ATOM      6  C   UNL     1       3.987   1.475   0.387  0.00  0.00    +0.026 A 
ATOM      7  C   UNL     1       4.793   0.379   0.632  0.00  0.00    +0.002 A 
ATOM      8  C   UNL     1       4.274  -0.870   0.936  0.00  0.00    +0.001 A 
ATOM      9  C   UNL     1       2.923  -1.098   1.013  0.00  0.00    +0.012 A 
ATOM     10  C   UNL     1       2.083  -0.006   0.769  0.00  0.00    +0.024 A 
ATOM     11  C   UNL     1       0.633   0.121   0.760  0.00  0.00    +0.084 A 
ATOM     12  C   UNL     1       0.362   1.416   0.456  0.00  0.00    +0.130 A 
ATOM     13  C   UNL     1      -0.933   2.096   0.318  0.00  0.00    +0.266 C 
ATOM     14  O   UNL     1      -1.974   1.565   0.658  0.00  0.00    -0.268 OA
ATOM     15  N   UNL     1      -0.909   3.343  -0.206  0.00  0.00    -0.273 N 
ENDROOT
BRANCH  11  16
ATOM     16  N   UNL     1      -0.295  -0.890   1.014  0.00  0.00    -0.321 N 
ATOM     17  C   UNL     1      -1.157  -0.932   2.074  0.00  0.00    +0.091 A 
ATOM     18  C   UNL     1      -1.893  -2.058   1.973  0.00  0.00    +0.019 A 
ATOM     19  C   UNL     1      -1.467  -2.740   0.815  0.00  0.00    +0.019 A 
ATOM     20  C   UNL     1      -0.489  -2.004   0.248  0.00  0.00    +0.091 A 
ENDBRANCH  11  16
BRANCH   2  21
ATOM     21  C   UNL     1       0.432   3.357  -2.212  0.00  0.00    +0.238 C 
ATOM     22  O   UNL     1       0.863   4.064  -3.098  0.00  0.00    -0.273 OA
ATOM     23  N   UNL     1       0.076   2.084  -2.479  0.00  0.00    -0.311 N 
ATOM     24  H   UNL     1      -0.337   1.542  -1.790  0.00  0.00    +0.149 HD
BRANCH  23  25
ATOM     25  C   UNL     1       0.312   1.522  -3.811  0.00  0.00    +0.073 C 
ATOM     26  C   UNL     1      -0.853   1.887  -4.733  0.00  0.00    +0.022 C 
ATOM     27  C   UNL     1      -0.442   1.658  -6.189  0.00  0.00    +0.002 C 
ATOM     28  C   UNL     1       0.969   2.207  -6.413  0.00  0.00    +0.000 C 
ATOM     29  C   UNL     1       1.927   1.048  -6.697  0.00  0.00    +0.000 C 
ATOM     30  C   UNL     1       2.245   0.319  -5.389  0.00  0.00    +0.000 C 
ATOM     31  C   UNL     1       1.054  -0.553  -4.989  0.00  0.00    +0.002 C 
ATOM     32  C   UNL     1       0.424  -0.001  -3.709  0.00  0.00    +0.022 C 
ENDBRANCH  23  25
ENDBRANCH   2  21
BRANCH  15  33
ATOM     33  C   UNL     1      -2.126   4.157  -0.163  0.00  0.00    +0.183 C 
BRANCH  33  34
ATOM     34  C   UNL     1      -2.872   4.014  -1.465  0.00  0.00    +0.122 A 
ATOM     35  C   UNL     1      -3.814   3.093  -1.734  0.00  0.00    +0.046 A 
ATOM     36  C   UNL     1      -4.244   3.322  -3.061  0.00  0.00    +0.041 A 
ATOM     37  C   UNL     1      -3.539   4.371  -3.523  0.00  0.00    +0.195 A 
ATOM     38  O   UNL     1      -2.714   4.790  -2.550  0.00  0.00    -0.466 OA
ENDBRANCH  33  34
ENDBRANCH  15  33
TORSDOF 5
