REMARK  Name = ZINC15848336
REMARK  11 active torsions:
REMARK  status: ('A' for Active; 'I' for Inactive)
REMARK    1  A    between atoms: C_1  and  C_2
REMARK    2  A    between atoms: C_2  and  C_4
REMARK    3  A    between atoms: C_2  and  O_14
REMARK    4  A    between atoms: N_9  and  C_10
REMARK    5  A    between atoms: C_10  and  C_11
REMARK    6  A    between atoms: C_10  and  C_12
REMARK    7  A    between atoms: C_10  and  C_13
REMARK    8  A    between atoms: O_14  and  C_15
REMARK    9  A    between atoms: C_15  and  C_17
REMARK   10  A    between atoms: C_30  and  C_31
REMARK   11  A    between atoms: C_34  and  O_37
REMARK                            x       y       z     vdW  Elec       q    Type
REMARK                         _______ _______ _______ _____ _____    ______ ____
ROOT
ATOM      1  C   UNL     1      -0.345  -8.053  -3.067  0.00  0.00    +0.073 A 
ATOM      2  C   UNL     1      -0.351  -9.056  -2.002  0.00  0.00    +0.015 A 
ATOM      3  C   UNL     1      -0.452 -10.422  -2.281  0.00  0.00    +0.011 A 
ATOM      4  C   UNL     1      -0.455 -11.321  -1.256  0.00  0.00    +0.001 A 
ATOM      5  C   UNL     1      -0.357 -10.894   0.067  0.00  0.00    +0.002 A 
ATOM      6  C   UNL     1      -0.257  -9.572   0.373  0.00  0.00    +0.028 A 
ATOM      7  C   UNL     1      -0.252  -8.614  -0.658  0.00  0.00    +0.072 A 
ATOM      8  N   UNL     1      -0.156  -7.314  -0.389  0.00  0.00    -0.247 NA
ATOM      9  C   UNL     1      -0.141  -6.380  -1.335  0.00  0.00    +0.072 A 
ATOM     10  C   UNL     1      -0.241  -6.721  -2.694  0.00  0.00    -0.007 A 
ATOM     11  C   UNL     1      -0.207  -5.470  -3.537  0.00  0.00    +0.043 C 
ATOM     12  C   UNL     1      -0.081  -4.295  -2.559  0.00  0.00    +0.042 C 
ATOM     13  C   UNL     1      -0.047  -4.915  -1.184  0.00  0.00    -0.021 C 
ATOM     14  C   UNL     1       0.057  -4.247  -0.021  0.00  0.00    +0.013 C 
ENDROOT
BRANCH  14  15
ATOM     15  C   UNL     1       0.009  -2.776  -0.010  0.00  0.00    -0.024 A 
ATOM     16  C   UNL     1       0.025  -2.064  -1.214  0.00  0.00    +0.011 A 
ATOM     17  C   UNL     1      -0.019  -0.688  -1.198  0.00  0.00    +0.046 A 
ATOM     18  C   UNL     1      -0.080  -0.006   0.011  0.00  0.00    +0.117 A 
ATOM     19  C   UNL     1      -0.090  -0.708   1.210  0.00  0.00    +0.046 A 
ATOM     20  C   UNL     1      -0.052  -2.085   1.204  0.00  0.00    +0.011 A 
BRANCH  18  21
ATOM     21  O   UNL     1      -0.122   1.351   0.021  0.00  0.00    -0.507 OA
ATOM     22  H   UNL     1      -1.017   1.717  -0.005  0.00  0.00    +0.292 HD
ENDBRANCH  18  21
ENDBRANCH  14  15
BRANCH   1  23
ATOM     23  C   UNL     1      -0.446  -8.444  -4.489  0.00  0.00    +0.341 C 
ATOM     24  O   UNL     1       0.561  -8.671  -5.129  0.00  0.00    -0.245 OA
BRANCH  23  25
ATOM     25  O   UNL     1      -1.654  -8.550  -5.074  0.00  0.00    -0.449 OA
BRANCH  25  27
ATOM     26  C   UNL     1      -1.752 -10.463  -6.578  0.00  0.00    +0.062 C 
ATOM     27  C   UNL     1      -1.677  -8.939  -6.473  0.00  0.00    +0.259 C 
BRANCH  27  28
ATOM     28  C   UNL     1      -2.882  -8.330  -7.144  0.00  0.00    +0.261 C 
ATOM     29  O   UNL     1      -3.645  -7.637  -6.506  0.00  0.00    -0.271 OA
ATOM     30  N   UNL     1      -3.110  -8.556  -8.453  0.00  0.00    -0.237 N 
ATOM     31  C   UNL     1      -4.187  -8.011  -9.053  0.00  0.00    +0.306 C 
ATOM     32  O   UNL     1      -4.952  -7.316  -8.414  0.00  0.00    -0.252 OA
ATOM     33  N   UNL     1      -4.416  -8.237 -10.362  0.00  0.00    -0.294 N 
ATOM     34  H   UNL     1      -2.499  -9.110  -8.963  0.00  0.00    +0.159 HD
ATOM     35  H   UNL     1      -3.805  -8.792 -10.872  0.00  0.00    +0.151 HD
BRANCH  33  36
ATOM     36  C   UNL     1      -5.587  -7.645 -11.014  0.00  0.00    +0.028 C 
ATOM     37  C   UNL     1      -5.512  -6.121 -10.909  0.00  0.00    +0.031 C 
ATOM     38  C   UNL     1      -5.611  -8.055 -12.488  0.00  0.00    +0.031 C 
ATOM     39  C   UNL     1      -6.859  -8.142 -10.325  0.00  0.00    +0.031 C 
ENDBRANCH  33  36
ENDBRANCH  27  28
ENDBRANCH  25  27
ENDBRANCH  23  25
ENDBRANCH   1  23
TORSDOF 7
