REMARK  Name = ZINC12752012
REMARK  15 active torsions:
REMARK  status: ('A' for Active; 'I' for Inactive)
REMARK    1  A    between atoms: C_1  and  C_2
REMARK    2  A    between atoms: C_2  and  C_4
REMARK    3  A    between atoms: C_2  and  S_16
REMARK    4  A    between atoms: N_6  and  N_7
REMARK    5  A    between atoms: C_8  and  C_10
REMARK    6  A    between atoms: S_16  and  C_17
REMARK    7  A    between atoms: N_27  and  C_28
REMARK    8  A    between atoms: C_28  and  C_29
REMARK    9  A    between atoms: C_29  and  N_30
REMARK   10  A    between atoms: N_30  and  C_31
REMARK   11  A    between atoms: N_30  and  C_34
REMARK   12  A    between atoms: C_31  and  C_32
REMARK   13  A    between atoms: C_31  and  C_33
REMARK   14  A    between atoms: C_34  and  C_35
REMARK   15  A    between atoms: C_34  and  C_36
REMARK                            x       y       z     vdW  Elec       q    Type
REMARK                         _______ _______ _______ _____ _____    ______ ____
ROOT
ATOM      1  C   UNL     1      -0.035   0.566  -3.684  0.00  0.00    +0.173 A 
ATOM      2  N   UNL     1      -1.046   1.379  -3.508  0.00  0.00    -0.223 NA
ATOM      3  C   UNL     1      -1.883   1.696  -4.517  0.00  0.00    +0.079 A 
ATOM      4  C   UNL     1      -2.962   2.564  -4.329  0.00  0.00    +0.028 A 
ATOM      5  C   UNL     1      -3.785   2.858  -5.380  0.00  0.00    +0.002 A 
ATOM      6  C   UNL     1      -3.566   2.305  -6.635  0.00  0.00    +0.001 A 
ATOM      7  C   UNL     1      -2.518   1.452  -6.850  0.00  0.00    +0.015 A 
ATOM      8  C   UNL     1      -1.663   1.136  -5.796  0.00  0.00    +0.065 A 
ATOM      9  C   UNL     1      -0.522   0.226  -5.968  0.00  0.00    +0.262 A 
ATOM     10  O   UNL     1      -0.281  -0.287  -7.045  0.00  0.00    -0.267 OA
ATOM     11  N   UNL     1       0.254  -0.015  -4.886  0.00  0.00    -0.289 N 
ENDROOT
BRANCH   1  12
ATOM     12  S   UNL     1       1.006   0.209  -2.308  0.00  0.00    -0.075 S 
BRANCH  12  14
ATOM     13  C   UNL     1       0.400   2.659  -1.253  0.00  0.00    +0.029 C 
ATOM     14  C   UNL     1       0.278   1.165  -0.948  0.00  0.00    +0.138 C 
BRANCH  14  15
ATOM     15  C   UNL     1       1.008   0.852   0.333  0.00  0.00    +0.242 C 
ATOM     16  O   UNL     1       2.154   0.456   0.297  0.00  0.00    -0.273 OA
ATOM     17  N   UNL     1       0.388   1.013   1.518  0.00  0.00    -0.233 N 
ATOM     18  H   UNL     1      -0.529   1.330   1.547  0.00  0.00    +0.173 HD
BRANCH  17  19
ATOM     19  N   UNL     1       1.066   0.722   2.709  0.00  0.00    -0.230 N 
ATOM     20  C   UNL     1       0.446   0.883   3.895  0.00  0.00    +0.260 C 
ATOM     21  O   UNL     1      -0.703   1.280   3.931  0.00  0.00    -0.269 OA
ATOM     22  H   UNL     1       1.982   0.405   2.680  0.00  0.00    +0.173 HD
BRANCH  20  23
ATOM     23  C   UNL     1       1.162   0.576   5.151  0.00  0.00    +0.038 A 
ATOM     24  C   UNL     1       2.482   0.125   5.114  0.00  0.00    +0.013 A 
ATOM     25  C   UNL     1       3.145  -0.159   6.290  0.00  0.00    +0.001 A 
ATOM     26  C   UNL     1       2.503   0.002   7.505  0.00  0.00    +0.000 A 
ATOM     27  C   UNL     1       1.194   0.448   7.549  0.00  0.00    +0.001 A 
ATOM     28  C   UNL     1       0.522   0.741   6.381  0.00  0.00    +0.013 A 
ENDBRANCH  20  23
ENDBRANCH  17  19
ENDBRANCH  14  15
ENDBRANCH  12  14
ENDBRANCH   1  12
BRANCH  11  29
ATOM     29  C   UNL     1       1.408  -0.910  -5.003  0.00  0.00    +0.109 C 
BRANCH  29  30
ATOM     30  C   UNL     1       0.973  -2.345  -4.702  0.00  0.00    -0.056 C 
BRANCH  30  31
ATOM     31  N   UNL     1       2.094  -3.260  -4.957  0.00  0.00    +0.384 N 
ATOM     32  H   UNL     1       2.431  -3.124  -5.898  0.00  0.00    -0.081 HD
BRANCH  31  33
ATOM     33  C   UNL     1       3.178  -2.986  -4.004  0.00  0.00    -0.074 C 
ATOM     34  C   UNL     1       2.908  -3.733  -2.696  0.00  0.00    -0.014 C 
ATOM     35  C   UNL     1       4.508  -3.456  -4.595  0.00  0.00    -0.014 C 
ENDBRANCH  31  33
BRANCH  31  36
ATOM     36  C   UNL     1       1.640  -4.648  -4.796  0.00  0.00    -0.074 C 
ATOM     37  C   UNL     1       0.418  -4.891  -5.684  0.00  0.00    -0.014 C 
ATOM     38  C   UNL     1       2.764  -5.603  -5.201  0.00  0.00    -0.014 C 
ENDBRANCH  31  36
ENDBRANCH  30  31
ENDBRANCH  29  30
ENDBRANCH  11  29
TORSDOF 10
