REMARK  Name = ZINC39670636
REMARK  7 active torsions:
REMARK  status: ('A' for Active; 'I' for Inactive)
REMARK    1  A    between atoms: C_1  and  C_2
REMARK    2  A    between atoms: C_9  and  C_11
REMARK    3  A    between atoms: C_11  and  N_12
REMARK    4  A    between atoms: C_13  and  C_15
REMARK    5  A    between atoms: C_26  and  C_28
REMARK    6  A    between atoms: C_28  and  C_29
REMARK    7  A    between atoms: C_28  and  C_30
REMARK                            x       y       z     vdW  Elec       q    Type
REMARK                         _______ _______ _______ _____ _____    ______ ____
ROOT
ATOM      1  C   UNL     1      -3.589  -2.601   7.071  0.00  0.00    +0.100 C 
ATOM      2  C   UNL     1      -3.902  -1.097   6.915  0.00  0.00    +0.121 C 
ATOM      3  N   UNL     1      -4.798  -0.781   8.053  0.00  0.00    -0.300 N 
ATOM      4  C   UNL     1      -4.239  -1.555   9.187  0.00  0.00    +0.115 C 
ATOM      5  C   UNL     1      -3.810  -2.898   8.564  0.00  0.00    -0.004 C 
ATOM      6  C   UNL     1      -2.514  -3.385   9.204  0.00  0.00    -0.010 C 
ATOM      7  C   UNL     1      -2.773  -3.730  10.673  0.00  0.00    -0.082 C 
ATOM      8  N   UNL     1      -3.806  -4.769  10.760  0.00  0.00    +0.379 N 
ATOM      9  C   UNL     1      -5.075  -4.259  10.226  0.00  0.00    -0.082 C 
ATOM     10  C   UNL     1      -4.913  -3.938   8.738  0.00  0.00    -0.010 C 
ATOM     11  C   UNL     1      -5.876   0.028   8.056  0.00  0.00    +0.218 C 
ATOM     12  O   UNL     1      -6.257   0.534   7.022  0.00  0.00    -0.275 OA
ATOM     13  H   UNL     1      -3.517  -5.574  10.224  0.00  0.00    -0.086 HD
ATOM     14  H   UNL     1      -3.931  -5.037  11.724  0.00  0.00    -0.086 HD
ENDROOT
BRANCH   1  16
ATOM     15  N   UNL     1      -1.814  -4.096   6.214  0.00  0.00    -0.309 N 
ATOM     16  C   UNL     1      -2.159  -2.882   6.687  0.00  0.00    +0.219 C 
ATOM     17  O   UNL     1      -1.318  -2.015   6.803  0.00  0.00    -0.275 OA
ATOM     18  H   UNL     1      -2.486  -4.789   6.122  0.00  0.00    +0.149 HD
BRANCH  15  19
ATOM     19  C   UNL     1      -0.424  -4.369   5.841  0.00  0.00    +0.159 C 
BRANCH  19  28
ATOM     20  C   UNL     1      -0.339  -7.991   1.599  0.00  0.00    +0.064 C 
ATOM     21  C   UNL     1      -0.184  -8.453   3.025  0.00  0.00    +0.022 A 
ATOM     22  C   UNL     1      -0.016  -9.766   3.287  0.00  0.00    +0.021 A 
ATOM     23  C   UNL     1       0.130 -10.211   4.612  0.00  0.00    +0.005 A 
ATOM     24  C   UNL     1       0.101  -9.311   5.632  0.00  0.00    +0.045 A 
ATOM     25  C   UNL     1      -0.075  -7.944   5.341  0.00  0.00    +0.116 A 
ATOM     26  N   UNL     1      -0.210  -7.539   4.038  0.00  0.00    -0.305 N 
ATOM     27  C   UNL     1      -0.357  -6.179   4.055  0.00  0.00    +0.115 A 
ATOM     28  C   UNL     1      -0.305  -5.787   5.347  0.00  0.00    +0.051 A 
ATOM     29  N   UNL     1      -0.142  -6.868   6.113  0.00  0.00    -0.342 N 
ATOM     30  H   UNL     1      -0.073  -6.866   7.081  0.00  0.00    +0.167 HD
ENDBRANCH  19  28
ENDBRANCH  15  19
ENDBRANCH   1  16
BRANCH  11  31
ATOM     31  C   UNL     1      -6.609   0.302   9.344  0.00  0.00    +0.069 C 
ATOM     32  C   UNL     1      -5.945   1.475  10.068  0.00  0.00    +0.017 C 
ATOM     33  C   UNL     1      -8.066   0.651   9.037  0.00  0.00    +0.017 C 
ENDBRANCH  11  31
TORSDOF 4
