REMARK  Name = ZINC12100289
REMARK  6 active torsions:
REMARK  status: ('A' for Active; 'I' for Inactive)
REMARK    1  A    between atoms: C_4  and  C_7
REMARK    2  A    between atoms: C_18  and  C_19
REMARK    3  A    between atoms: C_18  and  N_59
REMARK    4  A    between atoms: C_19  and  N_20
REMARK    5  A    between atoms: C_21  and  C_23
REMARK    6  A    between atoms: C_23  and  C_24
REMARK                            x       y       z     vdW  Elec       q    Type
REMARK                         _______ _______ _______ _____ _____    ______ ____
ROOT
ATOM      1  C   UNL     1      -2.101  -6.141  -1.430  0.00  0.00    +0.187 C 
ATOM      2  C   UNL     1      -1.873  -4.665  -1.185  0.00  0.00    -0.028 C 
ATOM      3  C   UNL     1      -1.976  -4.682   1.248  0.00  0.00    -0.039 C 
ATOM      4  C   UNL     1      -2.597  -6.035   1.540  0.00  0.00    -0.022 A 
ATOM      5  C   UNL     1      -3.439  -6.192   2.621  0.00  0.00    +0.005 A 
ATOM      6  C   UNL     1      -3.985  -7.436   2.888  0.00  0.00    +0.000 A 
ATOM      7  C   UNL     1      -3.685  -8.514   2.076  0.00  0.00    +0.004 A 
ATOM      8  C   UNL     1      -2.846  -8.354   0.989  0.00  0.00    +0.046 A 
ATOM      9  C   UNL     1      -2.307  -7.105   0.715  0.00  0.00    +0.123 A 
ATOM     10  O   UNL     1      -1.520  -6.925  -0.381  0.00  0.00    -0.486 OA
ATOM     11  N   UNL     1      -2.592  -4.160   0.004  0.00  0.00    +0.386 N 
ATOM     12  H   UNL     1      -3.567  -4.478  -0.039  0.00  0.00    -0.081 HD
ENDROOT
BRANCH   1  16
ATOM     13  C   UNL     1      -0.324  -7.239  -5.156  0.00  0.00    +0.000 A 
ATOM     14  C   UNL     1      -1.659  -6.884  -5.105  0.00  0.00    +0.000 A 
ATOM     15  C   UNL     1      -2.234  -6.529  -3.899  0.00  0.00    +0.007 A 
ATOM     16  C   UNL     1      -1.474  -6.529  -2.744  0.00  0.00    -0.009 A 
ATOM     17  C   UNL     1      -0.138  -6.879  -2.796  0.00  0.00    +0.007 A 
ATOM     18  C   UNL     1       0.436  -7.239  -4.001  0.00  0.00    +0.000 A 
ENDBRANCH   1  16
BRANCH  11  19
ATOM     19  C   UNL     1      -2.571  -2.688   0.012  0.00  0.00    -0.059 C 
BRANCH  19  20
ATOM     20  C   UNL     1      -1.136  -2.159   0.001  0.00  0.00    +0.085 C 
BRANCH  20  21
ATOM     21  N   UNL     1      -1.156  -0.694   0.009  0.00  0.00    -0.317 N 
ATOM     22  C   UNL     1       0.002  -0.004   0.002  0.00  0.00    +0.217 C 
ATOM     23  O   UNL     1       1.060  -0.596  -0.011  0.00  0.00    -0.275 OA
ATOM     24  H   UNL     1      -2.002  -0.220   0.020  0.00  0.00    +0.149 HD
BRANCH  22  25
ATOM     25  C   UNL     1      -0.018   1.503   0.010  0.00  0.00    +0.133 C 
BRANCH  25  26
ATOM     26  C   UNL     1       1.395   2.024  -0.000  0.00  0.00    -0.014 A 
ATOM     27  C   UNL     1       2.120   2.389   1.069  0.00  0.00    +0.087 A 
ATOM     28  N   UNL     1       3.361   2.807   0.671  0.00  0.00    -0.360 N 
ATOM     29  H   UNL     1       4.062   3.117   1.266  0.00  0.00    +0.165 HD
ATOM     30  C   UNL     1       3.464   2.730  -0.699  0.00  0.00    +0.047 A 
ATOM     31  C   UNL     1       2.237   2.236  -1.181  0.00  0.00    +0.003 A 
ATOM     32  C   UNL     1       2.050   2.052  -2.551  0.00  0.00    +0.010 A 
ATOM     33  C   UNL     1       3.061   2.353  -3.421  0.00  0.00    +0.001 A 
ATOM     34  C   UNL     1       4.273   2.840  -2.951  0.00  0.00    +0.002 A 
ATOM     35  C   UNL     1       4.479   3.030  -1.602  0.00  0.00    +0.026 A 
ENDBRANCH  25  26
ENDBRANCH  22  25
ENDBRANCH  20  21
ENDBRANCH  19  20
ENDBRANCH  11  19
TORSDOF 6
