REMARK  Name = ZINC35898210
REMARK  5 active torsions:
REMARK  status: ('A' for Active; 'I' for Inactive)
REMARK    1  A    between atoms: C_1  and  C_2
REMARK    2  A    between atoms: C_3  and  C_29
REMARK    3  A    between atoms: C_5  and  C_26
REMARK    4  A    between atoms: C_7  and  C_10
REMARK    5  A    between atoms: C_18  and  C_20
REMARK                            x       y       z     vdW  Elec       q    Type
REMARK                         _______ _______ _______ _____ _____    ______ ____
ROOT
ATOM      1  C   UNL     1       0.281  -2.652   2.453  0.00  0.00    +0.220 C 
ATOM      2  O   UNL     1      -0.479  -3.589   2.576  0.00  0.00    -0.275 OA
ATOM      3  N   UNL     1       0.974  -2.201   3.518  0.00  0.00    -0.298 N 
ATOM      4  C   UNL     1       1.800  -0.991   3.414  0.00  0.00    +0.126 C 
ATOM      5  C   UNL     1       1.359  -0.002   4.501  0.00  0.00    +0.127 C 
ATOM      6  N   UNL     1       1.301  -0.713   5.787  0.00  0.00    -0.296 N 
ATOM      7  C   UNL     1       0.474  -1.924   5.890  0.00  0.00    +0.127 C 
ATOM      8  C   UNL     1       0.911  -2.909   4.804  0.00  0.00    +0.126 C 
ATOM      9  C   UNL     1       1.993  -0.262   6.851  0.00  0.00    +0.245 C 
ATOM     10  O   UNL     1       2.672   0.738   6.754  0.00  0.00    -0.273 OA
ENDROOT
BRANCH   1  16
ATOM     11  C   UNL     1      -1.389   0.789  -0.853  0.00  0.00    +0.039 C 
ATOM     12  C   UNL     1      -0.656  -0.488  -0.530  0.00  0.00    -0.073 C 
ATOM     13  C   UNL     1      -0.064  -1.109  -1.500  0.00  0.00    -0.073 C 
ATOM     14  C   UNL     1       0.711  -2.383  -1.332  0.00  0.00    +0.046 C 
ATOM     15  C   UNL     1       0.353  -3.047  -0.000  0.00  0.00    +0.118 C 
ATOM     16  C   UNL     1       0.451  -1.992   1.109  0.00  0.00    +0.093 C 
ATOM     17  C   UNL     1      -0.653  -0.956   0.895  0.00  0.00    +0.044 C 
ATOM     18  C   UNL     1      -0.160  -0.517  -2.882  0.00  0.00    +0.039 C 
BRANCH  15  19
ATOM     19  C   UNL     1       1.315  -4.173   0.279  0.00  0.00    +0.360 C 
ATOM     20  O   UNL     1       2.265  -4.361  -0.462  0.00  0.00    -0.246 OA
ATOM     21  O   UNL     1       1.144  -4.895   1.246  0.00  0.00    -0.246 OA
ENDBRANCH  15  19
ENDBRANCH   1  16
BRANCH   9  22
ATOM     22  C   UNL     1       1.924  -1.001   8.163  0.00  0.00    +0.204 C 
ATOM     23  C   UNL     1       0.489  -0.930   8.729  0.00  0.00    +0.043 C 
ATOM     24  C   UNL     1       0.744  -0.742  10.249  0.00  0.00    +0.031 C 
ATOM     25  C   UNL     1       2.035   0.115  10.228  0.00  0.00    +0.161 C 
ATOM     26  O   UNL     1       2.798  -0.384   9.115  0.00  0.00    -0.367 OA
ENDBRANCH   9  22
TORSDOF 3
