REMARK  Name = ZINC62140221
REMARK  5 active torsions:
REMARK  status: ('A' for Active; 'I' for Inactive)
REMARK    1  A    between atoms: C_8  and  C_10
REMARK    2  A    between atoms: C_10  and  C_12
REMARK    3  A    between atoms: C_10  and  O_22
REMARK    4  A    between atoms: C_12  and  C_13
REMARK    5  A    between atoms: C_16  and  N_19
REMARK                            x       y       z     vdW  Elec       q    Type
REMARK                         _______ _______ _______ _____ _____    ______ ____
ROOT
ATOM      1  C   UNL     1       3.165  -4.055  -0.049  0.00  0.00    +0.155 C 
ENDROOT
BRANCH   1   9
ATOM      2  C   UNL     1      -0.016   1.355   0.009  0.00  0.00    +0.001 A 
ATOM      3  C   UNL     1       1.157   2.097   0.002  0.00  0.00    +0.001 A 
ATOM      4  C   UNL     1       2.374   1.445  -0.013  0.00  0.00    +0.015 A 
ATOM      5  C   UNL     1       2.406   0.067  -0.020  0.00  0.00    +0.020 A 
ATOM      6  C   UNL     1       1.228  -0.711  -0.013  0.00  0.00    -0.010 A 
ATOM      7  C   UNL     1       0.002  -0.004   0.002  0.00  0.00    +0.009 A 
ATOM      8  C   UNL     1       1.451  -2.149  -0.023  0.00  0.00    +0.022 A 
ATOM      9  C   UNL     1       2.706  -2.619  -0.038  0.00  0.00    +0.020 A 
ATOM     10  S   UNL     1       3.704  -1.142  -0.039  0.00  0.00    -0.091 S 
ENDBRANCH   1   9
BRANCH   1  11
ATOM     11  O   UNL     1       4.353  -4.169  -0.834  0.00  0.00    -0.386 OA
ATOM     12  H   UNL     1       5.092  -3.636  -0.509  0.00  0.00    +0.210 HD
ENDBRANCH   1  11
BRANCH   1  13
ATOM     13  C   UNL     1       3.454  -4.509   1.383  0.00  0.00    +0.071 C 
BRANCH  13  14
ATOM     14  C   UNL     1       3.793  -5.977   1.385  0.00  0.00    -0.044 A 
ATOM     15  C   UNL     1       2.791  -6.918   1.529  0.00  0.00    +0.006 A 
ATOM     16  C   UNL     1       3.103  -8.265   1.532  0.00  0.00    +0.033 A 
ATOM     17  C   UNL     1       4.416  -8.671   1.389  0.00  0.00    +0.126 A 
ATOM     18  C   UNL     1       5.418  -7.730   1.244  0.00  0.00    +0.033 A 
ATOM     19  C   UNL     1       5.106  -6.383   1.238  0.00  0.00    +0.006 A 
BRANCH  17  20
ATOM     20  N   UNL     1       4.750 -10.113   1.392  0.00  0.00    +0.056 N 
ATOM     21  O   UNL     1       3.873 -10.936   1.520  0.00  0.00    -0.126 OA
ATOM     22  O   UNL     1       5.899 -10.468   1.268  0.00  0.00    -0.126 OA
ENDBRANCH  17  20
ENDBRANCH  13  14
ENDBRANCH   1  13
TORSDOF 5
