REMARK  Name = ZINC63806836
REMARK  6 active torsions:
REMARK  status: ('A' for Active; 'I' for Inactive)
REMARK    1  A    between atoms: C_4  and  N_7
REMARK    2  A    between atoms: C_8  and  N_13
REMARK    3  A    between atoms: N_13  and  C_14
REMARK    4  A    between atoms: C_14  and  C_15
REMARK    5  A    between atoms: C_15  and  C_17
REMARK    6  A    between atoms: C_15  and  C_22
REMARK                            x       y       z     vdW  Elec       q    Type
REMARK                         _______ _______ _______ _____ _____    ______ ____
ROOT
ATOM      1  C   UNL     1       2.535  -4.787   2.264  0.00  0.00    +0.068 C 
ENDROOT
BRANCH   1   2
ATOM      2  C   UNL     1       2.292  -6.259   2.054  0.00  0.00    -0.032 C 
ATOM      3  C   UNL     1       1.107  -6.907   2.126  0.00  0.00    -0.000 A 
ATOM      4  C   UNL     1      -0.259  -6.451   2.410  0.00  0.00    +0.010 A 
ATOM      5  C   UNL     1      -1.265  -7.355   2.412  0.00  0.00    +0.001 A 
ATOM      6  C   UNL     1      -1.036  -8.713   2.149  0.00  0.00    +0.002 A 
ATOM      7  C   UNL     1       0.191  -9.207   1.879  0.00  0.00    +0.026 A 
ATOM      8  C   UNL     1       1.322  -8.345   1.851  0.00  0.00    +0.043 A 
ATOM      9  N   UNL     1       2.591  -8.578   1.619  0.00  0.00    -0.380 N 
ATOM     10  C   UNL     1       3.324  -7.311   1.714  0.00  0.00    +0.145 C 
ATOM     11  H   UNL     1       2.980  -9.443   1.415  0.00  0.00    +0.160 HD
ENDBRANCH   1   2
BRANCH   1  12
ATOM     12  C   UNL     1       3.496  -4.594   3.409  0.00  0.00    -0.002 A 
ATOM     13  C   UNL     1       3.310  -3.936   4.579  0.00  0.00    +0.012 A 
ATOM     14  C   UNL     1       4.345  -3.888   5.493  0.00  0.00    +0.008 A 
ATOM     15  C   UNL     1       5.516  -4.501   5.193  0.00  0.00    +0.045 A 
ATOM     16  S   UNL     1       5.174  -5.181   3.578  0.00  0.00    -0.101 S 
ENDBRANCH   1  12
BRANCH   1  17
ATOM     17  C   UNL     1       3.129  -4.181   0.991  0.00  0.00    +0.097 C 
BRANCH  17  18
ATOM     18  N   UNL     1       3.254  -2.726   1.153  0.00  0.00    -0.280 NA
ATOM     19  H   UNL     1       3.803  -2.499   1.969  0.00  0.00    +0.125 HD
BRANCH  18  21
ATOM     20  N   UNL     1       3.619  -0.648  -0.036  0.00  0.00    -0.170 N 
ATOM     21  C   UNL     1       3.822  -2.109  -0.052  0.00  0.00    +0.273 C 
ATOM     22  N   UNL     1       5.292  -2.237  -0.066  0.00  0.00    -0.214 N 
ATOM     23  N   UNL     1       5.790  -0.929  -0.057  0.00  0.00    -0.062 NA
ATOM     24  N   UNL     1       4.900  -0.083  -0.047  0.00  0.00    -0.055 NA
ATOM     25  H   UNL     1       5.807  -3.059  -0.077  0.00  0.00    +0.173 HD
BRANCH  20  29
ATOM     26  C   UNL     1      -0.017   1.379   0.010  0.00  0.00    +0.000 A 
ATOM     27  C   UNL     1       1.169   2.090   0.002  0.00  0.00    +0.002 A 
ATOM     28  C   UNL     1       2.377   1.421  -0.013  0.00  0.00    +0.025 A 
ATOM     29  C   UNL     1       2.400   0.031  -0.021  0.00  0.00    +0.057 A 
ATOM     30  C   UNL     1       1.206  -0.680  -0.013  0.00  0.00    +0.025 A 
ATOM     31  C   UNL     1       0.002  -0.004   0.002  0.00  0.00    +0.002 A 
ENDBRANCH  20  29
ENDBRANCH  18  21
ENDBRANCH  17  18
ENDBRANCH   1  17
TORSDOF 6
