REMARK  Name = ZINC39691339
REMARK  7 active torsions:
REMARK  status: ('A' for Active; 'I' for Inactive)
REMARK    1  A    between atoms: C_10  and  C_11
REMARK    2  A    between atoms: C_11  and  C_12
REMARK    3  A    between atoms: N_14  and  C_15
REMARK    4  A    between atoms: C_15  and  C_16
REMARK    5  A    between atoms: C_16  and  N_17
REMARK    6  A    between atoms: C_18  and  C_20
REMARK    7  A    between atoms: C_31  and  C_33
REMARK                            x       y       z     vdW  Elec       q    Type
REMARK                         _______ _______ _______ _____ _____    ______ ____
ROOT
ATOM      1  N   UNL     1       8.945   4.271   3.832  0.00  0.00    -0.314 N 
ATOM      2  C   UNL     1       9.650   3.399   4.581  0.00  0.00    +0.218 C 
ATOM      3  O   UNL     1       9.977   2.327   4.118  0.00  0.00    -0.275 OA
ATOM      4  H   UNL     1       8.684   5.128   4.202  0.00  0.00    +0.149 HD
ENDROOT
BRANCH   2   5
ATOM      5  C   UNL     1      10.031   3.757   5.995  0.00  0.00    +0.100 C 
ATOM      6  C   UNL     1      10.167   2.481   6.855  0.00  0.00    +0.121 C 
ATOM      7  N   UNL     1      11.611   2.154   6.813  0.00  0.00    -0.300 N 
ATOM      8  C   UNL     1      12.290   3.469   6.893  0.00  0.00    +0.115 C 
ATOM      9  C   UNL     1      11.425   4.405   6.025  0.00  0.00    -0.004 C 
ATOM     10  C   UNL     1      11.350   5.792   6.657  0.00  0.00    -0.010 C 
ATOM     11  C   UNL     1      12.738   6.439   6.623  0.00  0.00    -0.082 C 
ATOM     12  N   UNL     1      13.200   6.537   5.234  0.00  0.00    +0.379 N 
ATOM     13  C   UNL     1      13.359   5.194   4.663  0.00  0.00    -0.082 C 
ATOM     14  C   UNL     1      11.998   4.494   4.614  0.00  0.00    -0.010 C 
ATOM     15  C   UNL     1      12.180   0.935   6.723  0.00  0.00    +0.219 C 
ATOM     16  O   UNL     1      13.388   0.830   6.699  0.00  0.00    -0.275 OA
ATOM     17  H   UNL     1      12.525   7.053   4.691  0.00  0.00    -0.086 HD
ATOM     18  H   UNL     1      14.087   7.018   5.209  0.00  0.00    -0.086 HD
BRANCH  15  19
ATOM     19  C   UNL     1      11.315  -0.297   6.650  0.00  0.00    +0.075 C 
ATOM     20  C   UNL     1      10.829  -0.790   8.024  0.00  0.00    +0.013 C 
ATOM     21  C   UNL     1      11.082  -2.218   7.513  0.00  0.00    +0.001 C 
ATOM     22  C   UNL     1      12.115  -1.606   6.551  0.00  0.00    +0.013 C 
ENDBRANCH  15  19
ENDBRANCH   2   5
BRANCH   1  23
ATOM     23  C   UNL     1       8.575   3.923   2.458  0.00  0.00    +0.123 C 
BRANCH  23  24
ATOM     24  C   UNL     1       7.786   5.076   1.835  0.00  0.00    +0.123 C 
BRANCH  24  27
ATOM     25  C   UNL     1       6.712   5.599  -0.289  0.00  0.00    +0.217 C 
ATOM     26  O   UNL     1       6.385   6.671   0.175  0.00  0.00    -0.275 OA
ATOM     27  N   UNL     1       7.416   4.728   0.461  0.00  0.00    -0.314 N 
ATOM     28  H   UNL     1       7.677   3.871   0.090  0.00  0.00    +0.149 HD
BRANCH  25  29
ATOM     29  C   UNL     1       6.330   5.242  -1.702  0.00  0.00    +0.131 C 
BRANCH  29  39
ATOM     30  C   UNL     1       7.520   9.599  -4.110  0.00  0.00    +0.001 A 
ATOM     31  C   UNL     1       8.255   8.558  -3.547  0.00  0.00    +0.001 A 
ATOM     32  C   UNL     1       7.634   7.500  -2.958  0.00  0.00    +0.009 A 
ATOM     33  C   UNL     1       6.230   7.453  -2.915  0.00  0.00    -0.014 A 
ATOM     34  C   UNL     1       5.482   8.512  -3.488  0.00  0.00    -0.018 A 
ATOM     35  C   UNL     1       6.159   9.588  -4.088  0.00  0.00    +0.008 A 
ATOM     36  C   UNL     1       4.079   8.466  -3.445  0.00  0.00    +0.008 A 
ATOM     37  C   UNL     1       3.457   7.408  -2.856  0.00  0.00    +0.001 A 
ATOM     38  C   UNL     1       4.192   6.367  -2.292  0.00  0.00    +0.005 A 
ATOM     39  C   UNL     1       5.553   6.378  -2.316  0.00  0.00    -0.031 A 
ENDBRANCH  29  39
ENDBRANCH  25  29
ENDBRANCH  24  27
ENDBRANCH  23  24
ENDBRANCH   1  23
TORSDOF 7
