REMARK  Name = ZINC03430482
REMARK  9 active torsions:
REMARK  status: ('A' for Active; 'I' for Inactive)
REMARK    1  A    between atoms: C_1  and  C_2
REMARK    2  A    between atoms: C_5  and  N_9
REMARK    3  A    between atoms: C_6  and  C_8
REMARK    4  A    between atoms: C_10  and  C_21
REMARK    5  A    between atoms: C_13  and  S_14
REMARK    6  A    between atoms: S_14  and  C_15
REMARK    7  A    between atoms: C_15  and  C_17
REMARK    8  A    between atoms: C_15  and  C_18
REMARK    9  A    between atoms: C_21  and  C_22
REMARK                            x       y       z     vdW  Elec       q    Type
REMARK                         _______ _______ _______ _____ _____    ______ ____
ROOT
ATOM      1  N   UNL     1       3.586   2.125  -0.021  0.00  0.00    -0.274 N 
ATOM      2  C   UNL     1       4.308   2.542   1.066  0.00  0.00    +0.143 A 
ATOM      3  N   UNL     1       5.358   3.171   0.616  0.00  0.00    -0.133 NA
ATOM      4  N   UNL     1       5.350   3.180  -0.669  0.00  0.00    -0.122 NA
ATOM      5  C   UNL     1       4.290   2.548  -1.116  0.00  0.00    +0.197 A 
ENDROOT
BRANCH   1  10
ATOM      6  C   UNL     1      -1.294  -0.774   0.010  0.00  0.00    +0.044 C 
ATOM      7  C   UNL     1       0.002  -0.004   0.002  0.00  0.00    -0.050 A 
ATOM      8  C   UNL     1      -0.017   1.379   0.010  0.00  0.00    +0.005 A 
ATOM      9  C   UNL     1       1.169   2.087   0.002  0.00  0.00    +0.027 A 
ATOM     10  C   UNL     1       2.381   1.409  -0.013  0.00  0.00    +0.053 A 
ATOM     11  C   UNL     1       2.396   0.021  -0.021  0.00  0.00    -0.026 A 
ATOM     12  C   UNL     1       1.207  -0.682  -0.013  0.00  0.00    +0.008 A 
ATOM     13  C   UNL     1       3.709  -0.718  -0.039  0.00  0.00    +0.046 C 
ENDBRANCH   1  10
BRANCH   5  14
ATOM     14  S   UNL     1       3.853   2.297  -2.804  0.00  0.00    -0.073 S 
BRANCH  14  15
ATOM     15  C   UNL     1       5.242   3.126  -3.615  0.00  0.00    +0.137 C 
ATOM     16  C   UNL     1       6.537   2.373  -3.304  0.00  0.00    +0.029 C 
BRANCH  15  17
ATOM     17  C   UNL     1       5.016   3.143  -5.105  0.00  0.00    +0.224 C 
ATOM     18  O   UNL     1       4.240   2.359  -5.610  0.00  0.00    -0.275 OA
ATOM     19  N   UNL     1       5.677   4.029  -5.877  0.00  0.00    -0.328 N 
ATOM     20  H   UNL     1       6.297   4.655  -5.473  0.00  0.00    +0.145 HD
ATOM     21  H   UNL     1       5.532   4.039  -6.836  0.00  0.00    +0.145 HD
ENDBRANCH  15  17
ENDBRANCH  14  15
ENDBRANCH   5  14
BRANCH   2  22
ATOM     22  C   UNL     1       3.955   2.316   2.513  0.00  0.00    +0.112 C 
BRANCH  22  23
ATOM     23  C   UNL     1       4.563   1.020   2.982  0.00  0.00    -0.032 A 
ATOM     24  C   UNL     1       3.827  -0.126   2.967  0.00  0.00    +0.004 A 
ATOM     25  C   UNL     1       4.374  -1.335   3.391  0.00  0.00    +0.001 A 
ATOM     26  C   UNL     1       5.656  -1.404   3.843  0.00  0.00    +0.008 A 
ATOM     27  C   UNL     1       6.444  -0.242   3.879  0.00  0.00    -0.018 A 
ATOM     28  C   UNL     1       5.890   0.987   3.442  0.00  0.00    -0.014 A 
ATOM     29  C   UNL     1       6.678   2.150   3.479  0.00  0.00    +0.009 A 
ATOM     30  C   UNL     1       7.960   2.081   3.932  0.00  0.00    +0.001 A 
ATOM     31  C   UNL     1       8.505   0.872   4.362  0.00  0.00    +0.001 A 
ATOM     32  C   UNL     1       7.771  -0.274   4.341  0.00  0.00    +0.008 A 
ENDBRANCH  22  23
ENDBRANCH   2  22
TORSDOF 6
