REMARK  Name = ZINC39666398
REMARK  9 active torsions:
REMARK  status: ('A' for Active; 'I' for Inactive)
REMARK    1  A    between atoms: C_1  and  C_2
REMARK    2  A    between atoms: C_2  and  C_4
REMARK    3  A    between atoms: C_2  and  O_29
REMARK    4  A    between atoms: C_4  and  N_5
REMARK    5  A    between atoms: C_6  and  C_8
REMARK    6  A    between atoms: C_19  and  C_21
REMARK    7  A    between atoms: C_26  and  O_27
REMARK    8  A    between atoms: O_27  and  C_28
REMARK    9  A    between atoms: O_29  and  C_30
REMARK                            x       y       z     vdW  Elec       q    Type
REMARK                         _______ _______ _______ _____ _____    ______ ____
ROOT
ATOM      1  C   UNL     1       0.947  -4.609   2.165  0.00  0.00    +0.100 C 
ATOM      2  C   UNL     1      -0.554  -4.923   2.354  0.00  0.00    +0.121 C 
ATOM      3  N   UNL     1      -0.581  -6.071   3.290  0.00  0.00    -0.296 N 
ATOM      4  C   UNL     1       0.491  -5.773   4.270  0.00  0.00    +0.115 C 
ATOM      5  C   UNL     1       1.629  -5.168   3.425  0.00  0.00    -0.004 C 
ATOM      6  C   UNL     1       2.317  -4.045   4.196  0.00  0.00    -0.010 C 
ATOM      7  C   UNL     1       3.037  -4.633   5.412  0.00  0.00    -0.082 C 
ATOM      8  N   UNL     1       4.024  -5.625   4.967  0.00  0.00    +0.379 N 
ATOM      9  C   UNL     1       3.344  -6.747   4.309  0.00  0.00    -0.082 C 
ATOM     10  C   UNL     1       2.637  -6.248   3.046  0.00  0.00    -0.010 C 
ATOM     11  C   UNL     1      -1.396  -7.144   3.258  0.00  0.00    +0.250 C 
ATOM     12  O   UNL     1      -2.173  -7.290   2.334  0.00  0.00    -0.270 OA
ATOM     13  H   UNL     1       4.663  -5.193   4.317  0.00  0.00    -0.086 HD
ATOM     14  H   UNL     1       4.539  -5.966   5.765  0.00  0.00    -0.086 HD
ENDROOT
BRANCH  11  15
ATOM     15  C   UNL     1      -1.346  -8.141   4.344  0.00  0.00    +0.078 A 
ATOM     16  C   UNL     1      -1.089  -7.738   5.657  0.00  0.00    +0.017 A 
ATOM     17  C   UNL     1      -1.044  -8.674   6.667  0.00  0.00    +0.001 A 
ATOM     18  C   UNL     1      -1.252 -10.015   6.387  0.00  0.00    +0.004 A 
ATOM     19  C   UNL     1      -1.507 -10.427   5.094  0.00  0.00    +0.046 A 
ATOM     20  C   UNL     1      -1.562  -9.498   4.066  0.00  0.00    +0.132 A 
BRANCH  20  21
ATOM     21  O   UNL     1      -1.818  -9.900   2.796  0.00  0.00    -0.494 OA
ATOM     22  C   UNL     1      -2.027 -11.299   2.589  0.00  0.00    +0.277 C 
ENDBRANCH  20  21
ENDBRANCH  11  15
BRANCH   1  24
ATOM     23  N   UNL     1       2.199  -2.636   1.354  0.00  0.00    -0.312 N 
ATOM     24  C   UNL     1       1.164  -3.121   2.067  0.00  0.00    +0.218 C 
ATOM     25  O   UNL     1       0.406  -2.359   2.630  0.00  0.00    -0.275 OA
ATOM     26  H   UNL     1       2.805  -3.244   0.904  0.00  0.00    +0.149 HD
BRANCH  23  27
ATOM     27  C   UNL     1       2.410  -1.189   1.259  0.00  0.00    +0.148 C 
BRANCH  27  29
ATOM     28  C   UNL     1       3.863   0.603   0.300  0.00  0.00    +0.053 C 
ATOM     29  C   UNL     1       3.643  -0.908   0.399  0.00  0.00    +0.187 C 
BRANCH  29  30
ATOM     30  O   UNL     1       4.789  -1.518   0.996  0.00  0.00    -0.486 OA
BRANCH  30  31
ATOM     31  C   UNL     1       5.824  -1.828   0.171  0.00  0.00    +0.139 A 
ATOM     32  C   UNL     1       5.788  -1.446  -1.162  0.00  0.00    +0.047 A 
ATOM     33  C   UNL     1       6.841  -1.761  -1.998  0.00  0.00    +0.004 A 
ATOM     34  C   UNL     1       7.931  -2.457  -1.509  0.00  0.00    +0.002 A 
ATOM     35  C   UNL     1       7.970  -2.839  -0.181  0.00  0.00    +0.023 A 
ATOM     36  C   UNL     1       6.922  -2.521   0.662  0.00  0.00    +0.083 A 
ATOM     37 CL   UNL     1       6.974  -2.995   2.332  0.00  0.00    -0.080 Cl
ENDBRANCH  30  31
ENDBRANCH  29  30
ENDBRANCH  27  29
ENDBRANCH  23  27
ENDBRANCH   1  24
TORSDOF 7
