REMARK  Name = ZINC04064487
REMARK  10 active torsions:
REMARK  status: ('A' for Active; 'I' for Inactive)
REMARK    1  A    between atoms: C_1  and  C_2
REMARK    2  A    between atoms: N_4  and  C_5
REMARK    3  A    between atoms: C_11  and  O_31
REMARK    4  A    between atoms: C_12  and  O_29
REMARK    5  A    between atoms: C_13  and  O_27
REMARK    6  A    between atoms: C_20  and  N_23
REMARK    7  A    between atoms: N_23  and  C_24
REMARK    8  A    between atoms: O_27  and  C_28
REMARK    9  A    between atoms: O_29  and  C_30
REMARK   10  A    between atoms: O_31  and  C_32
REMARK                            x       y       z     vdW  Elec       q    Type
REMARK                         _______ _______ _______ _____ _____    ______ ____
ROOT
ATOM      1  C   UNL     1       1.190  -0.230  -0.296  0.00  0.00    +0.104 C 
ATOM      2  C   UNL     1       1.318  -1.571   0.398  0.00  0.00    +0.032 C 
ATOM      3  C   UNL     1       2.678  -2.205   0.120  0.00  0.00    +0.038 C 
ATOM      4  C   UNL     1       3.760  -1.166   0.259  0.00  0.00    -0.032 A 
ATOM      5  C   UNL     1       4.562  -1.145   1.381  0.00  0.00    +0.054 A 
ATOM      6  C   UNL     1       5.565  -0.192   1.500  0.00  0.00    +0.165 A 
ATOM      7  C   UNL     1       5.769   0.744   0.492  0.00  0.00    +0.204 A 
ATOM      8  C   UNL     1       4.963   0.731  -0.638  0.00  0.00    +0.173 A 
ATOM      9  C   UNL     1       3.951  -0.228  -0.750  0.00  0.00    +0.031 A 
ATOM     10  C   UNL     1       3.064  -0.230  -1.951  0.00  0.00    -0.009 A 
ATOM     11  C   UNL     1       1.689  -0.287  -1.726  0.00  0.00    -0.016 A 
ATOM     12  C   UNL     1       0.749  -0.393  -2.682  0.00  0.00    +0.058 A 
ATOM     13  C   UNL     1       0.811  -0.442  -4.045  0.00  0.00    +0.200 A 
ATOM     14  O   UNL     1      -0.255  -0.622  -4.619  0.00  0.00    -0.286 OA
ATOM     15  C   UNL     1       1.928  -0.315  -4.867  0.00  0.00    +0.075 A 
ATOM     16  C   UNL     1       3.215  -0.189  -4.435  0.00  0.00    +0.027 A 
ATOM     17  C   UNL     1       3.682  -0.169  -3.175  0.00  0.00    +0.011 A 
ENDROOT
BRANCH   1  21
ATOM     18  C   UNL     1      -1.994   1.894  -0.388  0.00  0.00    +0.109 C 
ATOM     19  C   UNL     1      -0.545   1.479  -0.380  0.00  0.00    +0.210 C 
ATOM     20  O   UNL     1       0.327   2.319  -0.451  0.00  0.00    -0.276 OA
ATOM     21  N   UNL     1      -0.219   0.174  -0.298  0.00  0.00    -0.309 N 
ATOM     22  H   UNL     1      -0.916  -0.498  -0.241  0.00  0.00    +0.149 HD
ENDBRANCH   1  21
BRANCH  15  23
ATOM     23  N   UNL     1       1.714  -0.317  -6.235  0.00  0.00    -0.338 N 
ATOM     24  H   UNL     1       0.809  -0.300  -6.584  0.00  0.00    +0.146 HD
BRANCH  23  25
ATOM     25  C   UNL     1       2.854  -0.344  -7.155  0.00  0.00    +0.071 C 
ATOM     26  C   UNL     1       2.944   0.769  -8.200  0.00  0.00    +0.024 C 
ATOM     27  C   UNL     1       2.567  -0.651  -8.626  0.00  0.00    +0.024 C 
ENDBRANCH  23  25
ENDBRANCH  15  23
BRANCH   8  28
ATOM     28  O   UNL     1       5.156   1.642  -1.629  0.00  0.00    -0.491 OA
ATOM     29  C   UNL     1       4.506   2.906  -1.483  0.00  0.00    +0.277 C 
ENDBRANCH   8  28
BRANCH   7  30
ATOM     30  O   UNL     1       6.757   1.672   0.614  0.00  0.00    -0.488 OA
ATOM     31  C   UNL     1       8.056   1.302   0.147  0.00  0.00    +0.277 C 
ENDBRANCH   7  30
BRANCH   6  32
ATOM     32  O   UNL     1       6.352  -0.174   2.609  0.00  0.00    -0.491 OA
ATOM     33  C   UNL     1       6.090  -1.162   3.607  0.00  0.00    +0.277 C 
ENDBRANCH   6  32
TORSDOF 6
