REMARK  Name = ZINC16529625
REMARK  15 active torsions:
REMARK  status: ('A' for Active; 'I' for Inactive)
REMARK    1  A    between atoms: C_1  and  C_2
REMARK    2  A    between atoms: C_2  and  C_3
REMARK    3  A    between atoms: C_3  and  C_4
REMARK    4  A    between atoms: C_4  and  C_5
REMARK    5  A    between atoms: C_5  and  C_6
REMARK    6  A    between atoms: C_6  and  C_7
REMARK    7  A    between atoms: N_9  and  C_10
REMARK    8  A    between atoms: N_9  and  C_15
REMARK    9  A    between atoms: C_10  and  C_11
REMARK   10  A    between atoms: C_11  and  C_12
REMARK   11  A    between atoms: C_12  and  O_13
REMARK   12  A    between atoms: O_13  and  C_14
REMARK   13  A    between atoms: C_15  and  C_16
REMARK   14  A    between atoms: C_26  and  C_28
REMARK   15  A    between atoms: C_33  and  C_34
REMARK                            x       y       z     vdW  Elec       q    Type
REMARK                         _______ _______ _______ _____ _____    ______ ____
ROOT
ATOM      1  C   UNL     1      -0.784   2.456   1.317  0.00  0.00    +0.234 C 
ATOM      2  O   UNL     1      -1.088   1.562   2.077  0.00  0.00    -0.274 OA
ATOM      3  N   UNL     1      -1.135   3.727   1.597  0.00  0.00    -0.289 N 
ATOM      4  C   UNL     1      -0.658   4.835   0.756  0.00  0.00    +0.114 C 
ATOM      5  C   UNL     1      -1.881   5.475   0.071  0.00  0.00    +0.062 C 
ATOM      6  C   UNL     1      -2.978   5.608   1.077  0.00  0.00    -0.003 A 
ATOM      7  C   UNL     1      -3.087   4.987   2.282  0.00  0.00    -0.012 A 
ATOM      8  C   UNL     1      -4.222   5.279   3.037  0.00  0.00    +0.013 A 
ATOM      9  C   UNL     1      -5.146   6.144   2.561  0.00  0.00    +0.046 A 
ATOM     10  S   UNL     1      -4.444   6.601   0.983  0.00  0.00    -0.101 S 
ATOM     11  C   UNL     1      -1.995   4.025   2.750  0.00  0.00    +0.138 C 
ENDROOT
BRANCH  11  12
ATOM     12  C   UNL     1      -2.621   2.754   3.263  0.00  0.00    -0.020 A 
ATOM     13  C   UNL     1      -3.481   2.032   2.456  0.00  0.00    +0.006 A 
ATOM     14  C   UNL     1      -4.051   0.864   2.924  0.00  0.00    +0.000 A 
ATOM     15  C   UNL     1      -3.769   0.421   4.203  0.00  0.00    +0.000 A 
ATOM     16  C   UNL     1      -2.913   1.145   5.012  0.00  0.00    +0.004 A 
ATOM     17  C   UNL     1      -2.339   2.312   4.541  0.00  0.00    -0.045 A 
ATOM     18  C   UNL     1      -1.406   3.101   5.423  0.00  0.00    +0.044 C 
ENDBRANCH  11  12
BRANCH   1  19
ATOM     19  C   UNL     1      -0.014   2.147   0.059  0.00  0.00    +0.203 C 
BRANCH  19  22
ATOM     20  C   UNL     1       1.365   0.194   0.529  0.00  0.00    +0.216 C 
ATOM     21  O   UNL     1       2.161   0.925   1.079  0.00  0.00    -0.276 OA
ATOM     22  N   UNL     1       0.243   0.707  -0.015  0.00  0.00    -0.293 N 
BRANCH  20  23
ATOM     23  C   UNL     1       1.630  -1.288   0.453  0.00  0.00    +0.096 C 
BRANCH  23  24
ATOM     24  C   UNL     1       2.959  -1.604   1.141  0.00  0.00    +0.009 C 
BRANCH  24  25
ATOM     25  C   UNL     1       3.228  -3.108   1.065  0.00  0.00    +0.000 C 
BRANCH  25  26
ATOM     26  C   UNL     1       4.557  -3.424   1.753  0.00  0.00    -0.000 C 
BRANCH  26  28
ATOM     27  C   UNL     1       6.156  -5.245   2.364  0.00  0.00    +0.004 C 
ATOM     28  C   UNL     1       4.826  -4.928   1.676  0.00  0.00    -0.003 C 
ENDBRANCH  26  28
ENDBRANCH  25  26
ENDBRANCH  24  25
ENDBRANCH  23  24
ENDBRANCH  20  23
BRANCH  22  29
ATOM     29  C   UNL     1      -0.718  -0.176  -0.679  0.00  0.00    +0.110 C 
BRANCH  29  30
ATOM     30  C   UNL     1      -0.361  -0.296  -2.162  0.00  0.00    +0.047 C 
BRANCH  30  31
ATOM     31  C   UNL     1      -1.365  -1.218  -2.856  0.00  0.00    +0.161 C 
BRANCH  31  32
ATOM     32  O   UNL     1      -1.031  -1.330  -4.241  0.00  0.00    -0.383 OA
ATOM     33  C   UNL     1      -1.912  -2.174  -4.985  0.00  0.00    +0.193 C 
ENDBRANCH  31  32
ENDBRANCH  30  31
ENDBRANCH  29  30
ENDBRANCH  22  29
ENDBRANCH  19  22
ENDBRANCH   1  19
TORSDOF 12
