REMARK  Name = ZINC67418315
REMARK  6 active torsions:
REMARK  status: ('A' for Active; 'I' for Inactive)
REMARK    1  A    between atoms: C_5  and  C_7
REMARK    2  A    between atoms: N_16  and  C_17
REMARK    3  A    between atoms: C_17  and  C_18
REMARK    4  A    between atoms: C_18  and  N_19
REMARK    5  A    between atoms: C_20  and  C_22
REMARK    6  A    between atoms: C_22  and  C_23
REMARK                            x       y       z     vdW  Elec       q    Type
REMARK                         _______ _______ _______ _____ _____    ______ ____
ROOT
ATOM      1  C   UNL     1       1.231  -2.186  -0.021  0.00  0.00    +0.168 C 
ATOM      2  C   UNL     1       1.345  -2.688  -1.465  0.00  0.00    +0.145 C 
ATOM      3  N   UNL     1       1.175  -4.150  -1.463  0.00  0.00    -0.281 N 
ATOM      4  C   UNL     1       0.009  -4.709  -0.760  0.00  0.00    +0.137 C 
ATOM      5  C   UNL     1      -0.040  -4.109   0.650  0.00  0.00    +0.179 C 
ATOM      6  O   UNL     1       0.022  -2.683   0.557  0.00  0.00    -0.369 OA
ATOM      7  C   UNL     1       2.059  -4.953  -2.086  0.00  0.00    +0.302 C 
ATOM      8  O   UNL     1       2.965  -4.469  -2.738  0.00  0.00    -0.253 OA
ATOM      9  N   UNL     1       1.941  -6.292  -1.988  0.00  0.00    -0.298 N 
ATOM     10  H   UNL     1       1.178  -6.678  -1.530  0.00  0.00    +0.150 HD
ENDROOT
BRANCH   1  15
ATOM     11  C   UNL     1      -0.013   1.378   0.013  0.00  0.00    +0.001 A 
ATOM     12  C   UNL     1       1.174   2.087   0.003  0.00  0.00    +0.003 A 
ATOM     13  C   UNL     1       2.381   1.414  -0.014  0.00  0.00    +0.039 A 
ATOM     14  C   UNL     1       2.401   0.029  -0.021  0.00  0.00    +0.129 A 
ATOM     15  C   UNL     1       1.211  -0.679  -0.012  0.00  0.00    +0.018 A 
ATOM     16  C   UNL     1       0.005  -0.004   0.005  0.00  0.00    +0.009 A 
ATOM     17  F   UNL     1       3.580  -0.630  -0.038  0.00  0.00    -0.205 F 
ENDBRANCH   1  15
BRANCH   9  18
ATOM     18  C   UNL     1       2.964  -7.163  -2.571  0.00  0.00    +0.124 C 
BRANCH  18  19
ATOM     19  C   UNL     1       2.591  -8.625  -2.321  0.00  0.00    +0.123 C 
BRANCH  19  20
ATOM     20  N   UNL     1       3.615  -9.496  -2.904  0.00  0.00    -0.314 N 
ATOM     21  C   UNL     1       3.496 -10.835  -2.806  0.00  0.00    +0.213 C 
ATOM     22  O   UNL     1       2.542 -11.319  -2.234  0.00  0.00    -0.276 OA
ATOM     23  H   UNL     1       4.378  -9.110  -3.362  0.00  0.00    +0.149 HD
BRANCH  21  24
ATOM     24  C   UNL     1       4.548 -11.731  -3.406  0.00  0.00    +0.099 C 
BRANCH  24  25
ATOM     25  C   UNL     1       4.176 -13.194  -3.156  0.00  0.00    -0.002 C 
ATOM     26  C   UNL     1       4.211 -13.479  -1.653  0.00  0.00    +0.004 C 
ATOM     27  C   UNL     1       3.838 -14.942  -1.403  0.00  0.00    +0.000 C 
ATOM     28  C   UNL     1       4.839 -15.852  -2.118  0.00  0.00    +0.000 C 
ATOM     29  C   UNL     1       4.804 -15.567  -3.620  0.00  0.00    +0.000 C 
ATOM     30  C   UNL     1       5.176 -14.105  -3.871  0.00  0.00    +0.004 C 
ENDBRANCH  24  25
ENDBRANCH  21  24
ENDBRANCH  19  20
ENDBRANCH  18  19
ENDBRANCH   9  18
TORSDOF 6
