REMARK  Name = ZINC03251688
REMARK  6 active torsions:
REMARK  status: ('A' for Active; 'I' for Inactive)
REMARK    1  A    between atoms: C_3  and  C_21
REMARK    2  A    between atoms: C_5  and  C_11
REMARK    3  A    between atoms: C_14  and  O_17
REMARK    4  A    between atoms: O_17  and  C_18
REMARK    5  A    between atoms: N_23  and  C_24
REMARK    6  A    between atoms: C_29  and  C_30
REMARK                            x       y       z     vdW  Elec       q    Type
REMARK                         _______ _______ _______ _____ _____    ______ ____
ROOT
ATOM      1  C   UNL     1      -0.011   3.659   2.937  0.00  0.00    +0.029 C 
ATOM      2  C   UNL     1      -0.678   3.663   1.799  0.00  0.00    +0.016 C 
ATOM      3  C   UNL     1      -1.656   2.558   1.451  0.00  0.00    +0.143 C 
ATOM      4  C   UNL     1      -1.341   2.093   0.024  0.00  0.00    +0.120 C 
ATOM      5  N   UNL     1      -1.246   3.256  -0.858  0.00  0.00    -0.318 N 
ATOM      6  C   UNL     1      -0.818   4.451  -0.429  0.00  0.00    +0.135 C 
ATOM      7  S   UNL     1      -0.650   5.722  -1.563  0.00  0.00    -0.019 S 
ATOM      8  N   UNL     1      -0.514   4.688   0.861  0.00  0.00    -0.300 N 
ATOM      9  H   UNL     1      -1.504   3.159  -1.788  0.00  0.00    +0.148 HD
ATOM     10  H   UNL     1      -0.186   5.558   1.136  0.00  0.00    +0.154 HD
ENDROOT
BRANCH   4  11
ATOM     11  C   UNL     1      -0.030   1.349   0.016  0.00  0.00    -0.026 A 
ATOM     12  C   UNL     1       1.161   2.050   0.009  0.00  0.00    +0.009 A 
ATOM     13  C   UNL     1       2.364   1.370  -0.005  0.00  0.00    +0.046 A 
ATOM     14  C   UNL     1       2.375  -0.017  -0.011  0.00  0.00    +0.127 A 
ATOM     15  C   UNL     1       1.178  -0.718  -0.003  0.00  0.00    +0.046 A 
ATOM     16  C   UNL     1      -0.022  -0.034   0.010  0.00  0.00    +0.009 A 
BRANCH  14  17
ATOM     17  O   UNL     1       3.557  -0.688  -0.023  0.00  0.00    -0.434 OA
BRANCH  17  18
ATOM     18  C   UNL     1       4.750   0.099  -0.030  0.00  0.00    +0.541 C 
ATOM     19  F   UNL     1       4.766   0.911  -1.169  0.00  0.00    -0.166 F 
ATOM     20  F   UNL     1       4.786   0.902   1.115  0.00  0.00    -0.166 F 
ENDBRANCH  17  18
ENDBRANCH  14  17
ENDBRANCH   4  11
BRANCH   3  21
ATOM     21  C   UNL     1      -3.067   3.084   1.518  0.00  0.00    +0.228 C 
ATOM     22  O   UNL     1      -3.760   3.089   0.523  0.00  0.00    -0.275 OA
ATOM     23  N   UNL     1      -3.558   3.548   2.684  0.00  0.00    -0.284 N 
ATOM     24  H   UNL     1      -3.028   3.484   3.494  0.00  0.00    +0.155 HD
BRANCH  23  25
ATOM     25  C   UNL     1      -4.833   4.123   2.726  0.00  0.00    +0.045 A 
ATOM     26  C   UNL     1      -5.844   3.635   1.907  0.00  0.00    +0.024 A 
ATOM     27  C   UNL     1      -7.103   4.201   1.956  0.00  0.00    +0.002 A 
ATOM     28  C   UNL     1      -7.355   5.259   2.809  0.00  0.00    +0.001 A 
ATOM     29  C   UNL     1      -6.350   5.750   3.622  0.00  0.00    +0.014 A 
ATOM     30  C   UNL     1      -5.090   5.185   3.583  0.00  0.00    +0.076 A 
BRANCH  30  31
ATOM     31  C   UNL     1      -3.994   5.722   4.468  0.00  0.00    +0.419 C 
ATOM     32  F   UNL     1      -4.491   6.782   5.233  0.00  0.00    -0.166 F 
ATOM     33  F   UNL     1      -3.541   4.706   5.316  0.00  0.00    -0.166 F 
ATOM     34  F   UNL     1      -2.934   6.175   3.675  0.00  0.00    -0.166 F 
ENDBRANCH  30  31
ENDBRANCH  23  25
ENDBRANCH   3  21
TORSDOF 6
