REMARK  Name = ZINC40569244
REMARK  10 active torsions:
REMARK  status: ('A' for Active; 'I' for Inactive)
REMARK    1  A    between atoms: C_1  and  C_2
REMARK    2  A    between atoms: C_2  and  C_3
REMARK    3  A    between atoms: C_3  and  C_4
REMARK    4  A    between atoms: N_10  and  C_11
REMARK    5  A    between atoms: C_11  and  C_12
REMARK    6  A    between atoms: C_12  and  O_13
REMARK    7  A    between atoms: C_14  and  C_22
REMARK    8  A    between atoms: C_16  and  C_20
REMARK    9  A    between atoms: C_17  and  N_19
REMARK   10  A    between atoms: C_25  and  C_28
REMARK                            x       y       z     vdW  Elec       q    Type
REMARK                         _______ _______ _______ _____ _____    ______ ____
ROOT
ATOM      1  C   UNL     1       0.569  -1.801  -1.214  0.00  0.00    +0.026 A 
ATOM      2  C   UNL     1      -0.432  -2.271  -1.990  0.00  0.00    +0.068 A 
ATOM      3  C   UNL     1      -0.525  -3.654  -2.251  0.00  0.00    +0.141 A 
ATOM      4  C   UNL     1       0.414  -4.502  -1.704  0.00  0.00    +0.072 A 
ATOM      5  C   UNL     1       1.434  -3.969  -0.905  0.00  0.00    +0.259 A 
ATOM      6  O   UNL     1       2.273  -4.708  -0.414  0.00  0.00    -0.267 OA
ATOM      7  N   UNL     1       1.494  -2.643  -0.683  0.00  0.00    -0.310 N 
ATOM      8  C   UNL     1       0.353  -5.983  -1.958  0.00  0.00    +0.103 C 
ATOM      9  C   UNL     1      -1.003  -6.362  -2.484  0.00  0.00    +0.098 C 
ATOM     10  C   UNL     1      -1.850  -5.430  -2.980  0.00  0.00    +0.199 C 
ATOM     11  O   UNL     1      -1.524  -4.126  -3.026  0.00  0.00    -0.441 OA
ENDROOT
BRANCH   8  12
ATOM     12  C   UNL     1       1.403  -6.360  -2.971  0.00  0.00    -0.034 A 
ATOM     13  C   UNL     1       1.378  -5.797  -4.233  0.00  0.00    +0.005 A 
ATOM     14  C   UNL     1       2.341  -6.143  -5.163  0.00  0.00    +0.012 A 
ATOM     15  C   UNL     1       3.329  -7.051  -4.830  0.00  0.00    +0.055 A 
ATOM     16  C   UNL     1       3.353  -7.613  -3.567  0.00  0.00    +0.012 A 
ATOM     17  C   UNL     1       2.393  -7.264  -2.636  0.00  0.00    +0.005 A 
BRANCH  15  18
ATOM     18  C   UNL     1       4.378  -7.429  -5.844  0.00  0.00    +0.417 C 
ATOM     19  F   UNL     1       5.467  -6.559  -5.734  0.00  0.00    -0.166 F 
ATOM     20  F   UNL     1       4.803  -8.741  -5.608  0.00  0.00    -0.166 F 
ATOM     21  F   UNL     1       3.837  -7.338  -7.131  0.00  0.00    -0.166 F 
ENDBRANCH  15  18
ENDBRANCH   8  12
BRANCH  10  22
ATOM     22  N   UNL     1      -3.078  -5.827  -3.449  0.00  0.00    -0.328 N 
ATOM     23  H   UNL     1      -3.327  -6.764  -3.422  0.00  0.00    +0.145 HD
ATOM     24  H   UNL     1      -3.695  -5.170  -3.807  0.00  0.00    +0.145 HD
ENDBRANCH  10  22
BRANCH   9  25
ATOM     25  C   UNL     1      -1.407  -7.736  -2.461  0.00  0.00    +0.101 C 
ATOM     26  N   UNL     1      -1.727  -8.826  -2.443  0.00  0.00    -0.191 NA
ENDBRANCH   9  25
BRANCH   1  27
ATOM     27  C   UNL     1       0.664  -0.323  -0.939  0.00  0.00    +0.053 C 
BRANCH  27  29
ATOM     28  C   UNL     1       1.556   1.852  -1.785  0.00  0.00    +0.004 C 
ATOM     29  C   UNL     1       1.548   0.338  -2.000  0.00  0.00    +0.003 C 
ENDBRANCH  27  29
ENDBRANCH   1  27
BRANCH   7  30
ATOM     30  C   UNL     1       2.569  -2.099   0.150  0.00  0.00    +0.153 C 
BRANCH  30  31
ATOM     31  C   UNL     1       2.092  -2.003   1.601  0.00  0.00    +0.177 C 
BRANCH  31  32
ATOM     32  O   UNL     1       1.852  -3.316   2.111  0.00  0.00    -0.393 OA
ATOM     33  H   UNL     1       1.546  -3.332   3.028  0.00  0.00    +0.209 HD
ENDBRANCH  31  32
ENDBRANCH  30  31
ENDBRANCH   7  30
TORSDOF 9
