REMARK  Name = ZINC36584303
REMARK  14 active torsions:
REMARK  status: ('A' for Active; 'I' for Inactive)
REMARK    1  A    between atoms: C_1  and  C_2
REMARK    2  A    between atoms: C_5  and  C_8
REMARK    3  A    between atoms: C_8  and  C_10
REMARK    4  A    between atoms: C_8  and  N_24
REMARK    5  A    between atoms: N_12  and  C_13
REMARK    6  A    between atoms: C_13  and  S_14
REMARK    7  A    between atoms: S_14  and  C_17
REMARK    8  A    between atoms: C_20  and  C_23
REMARK    9  A    between atoms: N_24  and  C_34
REMARK   10  A    between atoms: C_25  and  C_27
REMARK   11  A    between atoms: C_32  and  O_33
REMARK   12  A    between atoms: C_34  and  C_35
REMARK   13  A    between atoms: C_34  and  C_36
REMARK   14  A    between atoms: C_34  and  C_37
REMARK                            x       y       z     vdW  Elec       q    Type
REMARK                         _______ _______ _______ _____ _____    ______ ____
ROOT
ATOM      1  C   UNL     1      -1.420  -3.503   2.270  0.00  0.00    +0.193 C 
ENDROOT
BRANCH   1   6
ATOM      2  C   UNL     1      -4.029  -1.873   7.162  0.00  0.00    +0.044 C 
ATOM      3  C   UNL     1      -3.348  -2.298   5.886  0.00  0.00    -0.050 A 
ATOM      4  C   UNL     1      -3.495  -1.541   4.739  0.00  0.00    +0.004 A 
ATOM      5  C   UNL     1      -2.871  -1.931   3.569  0.00  0.00    +0.006 A 
ATOM      6  C   UNL     1      -2.100  -3.078   3.546  0.00  0.00    -0.018 A 
ATOM      7  C   UNL     1      -1.952  -3.834   4.693  0.00  0.00    +0.006 A 
ATOM      8  C   UNL     1      -2.573  -3.442   5.865  0.00  0.00    +0.004 A 
ENDBRANCH   1   6
BRANCH   1   9
ATOM      9  C   UNL     1       0.018  -3.053   2.292  0.00  0.00    +0.239 C 
ATOM     10  O   UNL     1       0.910  -3.865   2.169  0.00  0.00    -0.273 OA
ATOM     11  N   UNL     1       0.312  -1.747   2.450  0.00  0.00    -0.294 N 
ATOM     12  H   UNL     1      -0.401  -1.097   2.549  0.00  0.00    +0.150 HD
BRANCH  11  13
ATOM     13  C   UNL     1       1.710  -1.309   2.471  0.00  0.00    +0.278 C 
BRANCH  13  14
ATOM     14  S   UNL     1       2.202  -0.774   0.809  0.00  0.00    +0.013 S 
ATOM     15  O   UNL     1       3.537  -0.287   0.827  0.00  0.00    -0.168 OA
ATOM     16  O   UNL     1       1.795  -1.736  -0.155  0.00  0.00    -0.168 OA
BRANCH  14  17
ATOM     17  C   UNL     1       1.210   0.644   0.478  0.00  0.00    +0.090 A 
ATOM     18  C   UNL     1      -0.026   0.497  -0.123  0.00  0.00    +0.027 A 
ATOM     19  C   UNL     1      -0.804   1.609  -0.383  0.00  0.00    +0.005 A 
ATOM     20  C   UNL     1      -0.347   2.868  -0.042  0.00  0.00    -0.050 A 
ATOM     21  C   UNL     1       0.889   3.015   0.559  0.00  0.00    +0.005 A 
ATOM     22  C   UNL     1       1.666   1.902   0.823  0.00  0.00    +0.027 A 
ATOM     23  C   UNL     1      -1.195   4.081  -0.327  0.00  0.00    +0.044 C 
ENDBRANCH  14  17
ENDBRANCH  13  14
ENDBRANCH  11  13
ENDBRANCH   1   9
BRANCH   1  24
ATOM     24  N   UNL     1      -1.473  -4.963   2.152  0.00  0.00    -0.277 N 
ATOM     25  C   UNL     1      -1.185  -5.736   3.218  0.00  0.00    +0.251 C 
ATOM     26  O   UNL     1      -0.282  -5.422   3.970  0.00  0.00    -0.270 OA
BRANCH  25  27
ATOM     27  C   UNL     1      -1.964  -6.962   3.471  0.00  0.00    +0.078 A 
ATOM     28  C   UNL     1      -2.584  -7.633   2.414  0.00  0.00    +0.017 A 
ATOM     29  C   UNL     1      -3.310  -8.778   2.657  0.00  0.00    +0.001 A 
ATOM     30  C   UNL     1      -3.429  -9.269   3.947  0.00  0.00    +0.004 A 
ATOM     31  C   UNL     1      -2.821  -8.617   5.002  0.00  0.00    +0.046 A 
ATOM     32  C   UNL     1      -2.082  -7.465   4.774  0.00  0.00    +0.129 A 
BRANCH  32  33
ATOM     33  O   UNL     1      -1.481  -6.827   5.809  0.00  0.00    -0.506 OA
ATOM     34  H   UNL     1      -2.033  -6.154   6.230  0.00  0.00    +0.292 HD
ENDBRANCH  32  33
ENDBRANCH  25  27
BRANCH  24  35
ATOM     35  C   UNL     1      -1.839  -5.582   0.876  0.00  0.00    +0.030 C 
ATOM     36  C   UNL     1      -1.448  -4.650  -0.274  0.00  0.00    +0.031 C 
ATOM     37  C   UNL     1      -1.102  -6.914   0.725  0.00  0.00    +0.031 C 
ATOM     38  C   UNL     1      -3.349  -5.827   0.842  0.00  0.00    +0.031 C 
ENDBRANCH  24  35
ENDBRANCH   1  24
TORSDOF 9
