REMARK  Name = ZINC04610985
REMARK  4 active torsions:
REMARK  status: ('A' for Active; 'I' for Inactive)
REMARK    1  A    between atoms: C_4  and  N_7
REMARK    2  A    between atoms: C_8  and  S_10
REMARK    3  A    between atoms: S_10  and  C_11
REMARK    4  A    between atoms: N_16  and  C_19
REMARK                            x       y       z     vdW  Elec       q    Type
REMARK                         _______ _______ _______ _____ _____    ______ ____
ROOT
ATOM      1  C   UNL     1       1.018  -1.255   1.228  0.00  0.00    +0.149 C 
ATOM      2  C   UNL     1      -0.203  -1.690   2.063  0.00  0.00    +0.120 C 
ATOM      3  C   UNL     1      -1.155  -2.255   1.032  0.00  0.00    +0.228 C 
ATOM      4  O   UNL     1      -2.252  -2.715   1.267  0.00  0.00    -0.275 OA
ATOM      5  N   UNL     1      -0.595  -2.167  -0.180  0.00  0.00    -0.209 N 
ATOM      6  C   UNL     1       0.630  -1.617  -0.189  0.00  0.00    +0.240 C 
ATOM      7  O   UNL     1       1.316  -1.439  -1.173  0.00  0.00    -0.274 OA
ENDROOT
BRANCH   5   8
ATOM      8  C   UNL     1      -1.234  -2.610  -1.346  0.00  0.00    +0.045 A 
ATOM      9  C   UNL     1      -2.366  -1.953  -1.811  0.00  0.00    +0.024 A 
ATOM     10  C   UNL     1      -2.995  -2.392  -2.960  0.00  0.00    +0.003 A 
ATOM     11  C   UNL     1      -2.499  -3.483  -3.648  0.00  0.00    +0.020 A 
ATOM     12  C   UNL     1      -1.371  -4.140  -3.188  0.00  0.00    +0.043 A 
ATOM     13  C   UNL     1      -0.735  -3.702  -2.041  0.00  0.00    +0.044 A 
ATOM     14 CL   UNL     1      -0.751  -5.511  -4.054  0.00  0.00    -0.083 Cl
ENDBRANCH   5   8
BRANCH   1  15
ATOM     15  S   UNL     1       2.499  -2.170   1.737  0.00  0.00    -0.078 S 
BRANCH  15  17
ATOM     16  N   UNL     1       5.013  -1.933   0.857  0.00  0.00    -0.227 NA
ATOM     17  C   UNL     1       3.797  -1.438   0.796  0.00  0.00    +0.153 C 
ATOM     18  N   UNL     1       3.538  -0.351  -0.002  0.00  0.00    -0.338 N 
ATOM     19  H   UNL     1       4.252   0.052  -0.520  0.00  0.00    +0.144 HD
ATOM     20  H   UNL     1       2.640   0.014  -0.047  0.00  0.00    +0.144 HD
BRANCH  16  24
ATOM     21  C   UNL     1       5.818  -5.141   3.345  0.00  0.00    +0.000 A 
ATOM     22  C   UNL     1       6.063  -5.245   1.987  0.00  0.00    +0.002 A 
ATOM     23  C   UNL     1       5.797  -4.179   1.152  0.00  0.00    +0.028 A 
ATOM     24  C   UNL     1       5.279  -2.995   1.680  0.00  0.00    +0.066 A 
ATOM     25  C   UNL     1       5.035  -2.897   3.052  0.00  0.00    +0.028 A 
ATOM     26  C   UNL     1       5.306  -3.971   3.875  0.00  0.00    +0.002 A 
ENDBRANCH  16  24
ENDBRANCH  15  17
ENDBRANCH   1  15
TORSDOF 4
