REMARK  Name = ZINC58159210
REMARK  12 active torsions:
REMARK  status: ('A' for Active; 'I' for Inactive)
REMARK    1  A    between atoms: C_1  and  C_2
REMARK    2  A    between atoms: N_10  and  C_35
REMARK    3  A    between atoms: C_13  and  C_16
REMARK    4  A    between atoms: C_16  and  N_17
REMARK    5  A    between atoms: C_22  and  C_24
REMARK    6  A    between atoms: C_24  and  C_26
REMARK    7  A    between atoms: C_24  and  N_27
REMARK    8  A    between atoms: C_28  and  O_30
REMARK    9  A    between atoms: O_30  and  C_31
REMARK   10  A    between atoms: C_31  and  C_32
REMARK   11  A    between atoms: C_31  and  C_33
REMARK   12  A    between atoms: C_31  and  C_34
REMARK                            x       y       z     vdW  Elec       q    Type
REMARK                         _______ _______ _______ _____ _____    ______ ____
ROOT
ATOM      1  N   UNL     1       1.270  -4.529  -2.970  0.00  0.00    +0.387 N 
ATOM      2  C   UNL     1       1.794  -3.352  -2.267  0.00  0.00    -0.078 C 
ATOM      3  C   UNL     1       3.279  -3.178  -2.590  0.00  0.00    -0.019 C 
ATOM      4  C   UNL     1       3.448  -2.990  -4.101  0.00  0.00    -0.003 C 
ATOM      5  C   UNL     1       2.833  -4.190  -4.827  0.00  0.00    -0.014 C 
ATOM      6  C   UNL     1       1.364  -4.326  -4.420  0.00  0.00    -0.048 C 
ATOM      7  H   UNL     1       1.810  -5.341  -2.709  0.00  0.00    -0.081 HD
ENDROOT
BRANCH   6   8
ATOM      8  C   UNL     1       0.744  -5.524  -5.143  0.00  0.00    +0.060 C 
ATOM      9  C   UNL     1       0.841  -5.312  -6.656  0.00  0.00    +0.026 C 
BRANCH   8  10
ATOM     10  N   UNL     1       1.465  -6.744  -4.773  0.00  0.00    -0.280 N 
ATOM     11  C   UNL     1       0.848  -7.940  -4.850  0.00  0.00    +0.401 C 
ATOM     12  O   UNL     1      -0.305  -8.006  -5.226  0.00  0.00    -0.226 OA
ATOM     13  H   UNL     1       2.386  -6.691  -4.473  0.00  0.00    +0.152 HD
BRANCH  11  14
ATOM     14  O   UNL     1       1.511  -9.062  -4.510  0.00  0.00    -0.445 OA
BRANCH  14  15
ATOM     15  C   UNL     1       0.796 -10.295  -4.615  0.00  0.00    +0.107 C 
ATOM     16  C   UNL     1       0.350 -10.504  -6.063  0.00  0.00    +0.055 C 
ATOM     17  C   UNL     1       1.705 -11.449  -4.189  0.00  0.00    +0.055 C 
ATOM     18  C   UNL     1      -0.433 -10.251  -3.704  0.00  0.00    +0.055 C 
ENDBRANCH  14  15
ENDBRANCH  11  14
ENDBRANCH   8  10
ENDBRANCH   6   8
BRANCH   1  19
ATOM     19  C   UNL     1      -0.135  -4.737  -2.595  0.00  0.00    -0.000 C 
BRANCH  19  32
ATOM     20  C   UNL     1      -1.254   1.483  -0.020  0.00  0.00    +0.044 C 
ATOM     21  C   UNL     1      -1.038  -0.009  -0.044  0.00  0.00    -0.050 A 
ATOM     22  C   UNL     1      -0.838  -0.657  -1.252  0.00  0.00    +0.005 A 
ATOM     23  C   UNL     1      -0.638  -2.022  -1.293  0.00  0.00    +0.027 A 
ATOM     24  C   UNL     1      -0.638  -2.756  -0.116  0.00  0.00    +0.063 A 
ATOM     25  C   UNL     1      -0.841  -2.100   1.110  0.00  0.00    +0.064 A 
ATOM     26  C   UNL     1      -1.036  -0.720   1.137  0.00  0.00    +0.018 A 
ATOM     27  C   UNL     1      -0.838  -2.899   2.349  0.00  0.00    +0.263 A 
ATOM     28  O   UNL     1      -1.011  -2.366   3.429  0.00  0.00    -0.267 OA
ATOM     29  N   UNL     1      -0.640  -4.231   2.264  0.00  0.00    -0.280 N 
ATOM     30  C   UNL     1      -0.443  -4.845   1.041  0.00  0.00    +0.239 A 
ATOM     31  N   UNL     1      -0.441  -4.130  -0.122  0.00  0.00    -0.266 N 
ATOM     32  C   UNL     1      -0.223  -5.035  -1.121  0.00  0.00    +0.123 A 
ATOM     33  N   UNL     1      -0.106  -6.207  -0.559  0.00  0.00    -0.134 NA
ATOM     34  N   UNL     1      -0.235  -6.101   0.715  0.00  0.00    -0.110 NA
ATOM     35  C   UNL     1      -0.633  -5.039   3.486  0.00  0.00    +0.155 C 
ENDBRANCH  19  32
ENDBRANCH   1  19
TORSDOF 6
