REMARK  Name = ZINC36798264
REMARK  5 active torsions:
REMARK  status: ('A' for Active; 'I' for Inactive)
REMARK    1  A    between atoms: C_2  and  C_29
REMARK    2  A    between atoms: C_10  and  S_11
REMARK    3  A    between atoms: S_11  and  C_12
REMARK    4  A    between atoms: C_12  and  C_13
REMARK    5  A    between atoms: N_18  and  C_19
REMARK                            x       y       z     vdW  Elec       q    Type
REMARK                         _______ _______ _______ _____ _____    ______ ____
ROOT
ATOM      1  C   UNL     1       7.426  -1.994  -0.083  0.00  0.00    +0.231 C 
ATOM      2  O   UNL     1       7.920  -0.887  -0.082  0.00  0.00    -0.274 OA
ATOM      3  N   UNL     1       8.217  -3.085  -0.098  0.00  0.00    -0.239 N 
ATOM      4  C   UNL     1       9.558  -2.945  -0.110  0.00  0.00    +0.306 C 
ATOM      5  O   UNL     1      10.053  -1.835  -0.109  0.00  0.00    -0.252 OA
ATOM      6  N   UNL     1      10.349  -4.036  -0.124  0.00  0.00    -0.294 N 
ATOM      7  H   UNL     1       7.822  -3.971  -0.099  0.00  0.00    +0.159 HD
ATOM      8  H   UNL     1       9.954  -4.922  -0.126  0.00  0.00    +0.151 HD
ENDROOT
BRANCH   6   9
ATOM      9  C   UNL     1      11.806  -3.884  -0.138  0.00  0.00    +0.037 C 
ATOM     10  C   UNL     1      12.226  -3.106  -1.387  0.00  0.00    +0.029 C 
ATOM     11  C   UNL     1      13.748  -2.947  -1.402  0.00  0.00    -0.008 C 
ATOM     12  C   UNL     1      14.405  -4.329  -1.416  0.00  0.00    +0.007 C 
ATOM     13  C   UNL     1      13.985  -5.106  -0.167  0.00  0.00    -0.008 C 
ATOM     14  C   UNL     1      12.463  -5.265  -0.153  0.00  0.00    +0.029 C 
ATOM     15  C   UNL     1      14.430  -4.343   1.082  0.00  0.00    +0.007 C 
ATOM     16  C   UNL     1      13.773  -2.961   1.096  0.00  0.00    -0.008 C 
ATOM     17  C   UNL     1      14.193  -2.184  -0.153  0.00  0.00    +0.007 C 
ATOM     18  C   UNL     1      12.251  -3.120   1.111  0.00  0.00    +0.029 C 
ENDBRANCH   6   9
BRANCH   1  19
ATOM     19  C   UNL     1       5.927  -2.151  -0.069  0.00  0.00    +0.173 C 
BRANCH  19  20
ATOM     20  S   UNL     1       5.148  -0.513  -0.052  0.00  0.00    -0.076 S 
BRANCH  20  30
ATOM     21  C   UNL     1      -0.016   1.356   0.009  0.00  0.00    +0.037 A 
ATOM     22  C   UNL     1       1.195   2.073   0.002  0.00  0.00    +0.073 A 
ATOM     23  C   UNL     1       2.374   1.421  -0.013  0.00  0.00    +0.107 A 
ATOM     24  N   UNL     1       2.412   0.054  -0.021  0.00  0.00    -0.276 N 
ATOM     25  C   UNL     1       1.242  -0.676  -0.013  0.00  0.00    +0.180 A 
ATOM     26  C   UNL     1       0.002  -0.004   0.002  0.00  0.00    +0.086 A 
ATOM     27 CL   UNL     1      -1.483  -0.902   0.012  0.00  0.00    -0.080 Cl
ATOM     28  N   UNL     1       1.585  -1.950  -0.024  0.00  0.00    -0.127 NA
ATOM     29  N   UNL     1       2.868  -2.054  -0.038  0.00  0.00    -0.122 NA
ATOM     30  C   UNL     1       3.421  -0.862  -0.036  0.00  0.00    +0.196 A 
BRANCH  22  31
ATOM     31  C   UNL     1       1.172   3.580   0.010  0.00  0.00    +0.419 C 
ATOM     32  F   UNL     1       1.038   4.051  -1.300  0.00  0.00    -0.166 F 
ATOM     33  F   UNL     1       0.092   4.026   0.779  0.00  0.00    -0.166 F 
ATOM     34  F   UNL     1       2.366   4.061   0.559  0.00  0.00    -0.166 F 
ENDBRANCH  22  31
ENDBRANCH  20  30
ENDBRANCH  19  20
ENDBRANCH   1  19
TORSDOF 5
