REMARK  Name = ZINC56907085
REMARK  9 active torsions:
REMARK  status: ('A' for Active; 'I' for Inactive)
REMARK    1  A    between atoms: C_1  and  C_2
REMARK    2  A    between atoms: C_2  and  O_3
REMARK    3  A    between atoms: O_3  and  C_4
REMARK    4  A    between atoms: C_4  and  C_6
REMARK    5  A    between atoms: C_13  and  C_15
REMARK    6  A    between atoms: C_22  and  C_24
REMARK    7  A    between atoms: N_26  and  C_31
REMARK    8  A    between atoms: C_28  and  O_29
REMARK    9  A    between atoms: O_29  and  C_30
REMARK                            x       y       z     vdW  Elec       q    Type
REMARK                         _______ _______ _______ _____ _____    ______ ____
ROOT
ATOM      1  C   UNL     1       4.100  -5.711  -4.857  0.00  0.00    +0.092 C 
ATOM      2  C   UNL     1       5.384  -6.505  -4.607  0.00  0.00    +0.016 C 
ATOM      3  C   UNL     1       5.822  -7.191  -5.903  0.00  0.00    +0.020 C 
ATOM      4  C   UNL     1       6.111  -6.126  -6.966  0.00  0.00    +0.108 C 
ATOM      5  N   UNL     1       4.929  -5.266  -7.109  0.00  0.00    -0.297 N 
ATOM      6  C   UNL     1       4.369  -4.630  -5.909  0.00  0.00    +0.120 C 
ATOM      7  C   UNL     1       4.367  -5.065  -8.317  0.00  0.00    +0.253 C 
ATOM      8  O   UNL     1       3.438  -4.289  -8.435  0.00  0.00    -0.270 OA
ENDROOT
BRANCH   1  15
ATOM      9  C   UNL     1       0.193  -5.251  -4.256  0.00  0.00    +0.115 C 
ATOM     10  C   UNL     1      -0.390  -4.599  -3.001  0.00  0.00    +0.018 C 
ATOM     11  C   UNL     1       0.592  -4.760  -1.838  0.00  0.00    +0.020 C 
ATOM     12  C   UNL     1       1.907  -4.054  -2.183  0.00  0.00    +0.108 C 
ATOM     13  N   UNL     1       2.400  -4.574  -3.466  0.00  0.00    -0.300 N 
ATOM     14  C   UNL     1       1.504  -4.551  -4.630  0.00  0.00    +0.122 C 
ATOM     15  C   UNL     1       3.651  -5.062  -3.573  0.00  0.00    +0.220 C 
ATOM     16  O   UNL     1       4.417  -4.981  -2.635  0.00  0.00    -0.275 OA
BRANCH   9  17
ATOM     17  C   UNL     1      -0.788  -5.120  -5.393  0.00  0.00    +0.312 C 
ATOM     18  O   UNL     1      -0.473  -4.530  -6.398  0.00  0.00    -0.250 OA
BRANCH  17  19
ATOM     19  O   UNL     1      -2.013  -5.660  -5.287  0.00  0.00    -0.465 OA
BRANCH  19  21
ATOM     20  C   UNL     1      -4.229  -6.175  -6.100  0.00  0.00    +0.048 C 
ATOM     21  C   UNL     1      -2.891  -5.498  -6.403  0.00  0.00    +0.229 C 
ENDBRANCH  19  21
ENDBRANCH  17  19
ENDBRANCH   9  17
ENDBRANCH   1  15
BRANCH   7  22
ATOM     22  C   UNL     1       4.879  -5.784  -9.496  0.00  0.00    +0.117 A 
ATOM     23  C   UNL     1       6.199  -5.872  -9.894  0.00  0.00    +0.125 A 
ATOM     24  N   UNL     1       6.235  -6.614 -11.011  0.00  0.00    -0.270 N 
ATOM     25  N   UNL     1       4.930  -7.004 -11.331  0.00  0.00    -0.133 NA
ATOM     26  C   UNL     1       4.112  -6.521 -10.432  0.00  0.00    +0.246 A 
ATOM     27  C   UNL     1       7.440  -6.958 -11.770  0.00  0.00    +0.172 C 
BRANCH  26  28
ATOM     28  O   UNL     1       2.764  -6.692 -10.402  0.00  0.00    -0.478 OA
ATOM     29  C   UNL     1       2.187  -7.476 -11.448  0.00  0.00    +0.279 C 
ENDBRANCH  26  28
ENDBRANCH   7  22
TORSDOF 6
