REMARK  Name = ZINC23263625
REMARK  14 active torsions:
REMARK  status: ('A' for Active; 'I' for Inactive)
REMARK    1  A    between atoms: C_1  and  C_2
REMARK    2  A    between atoms: C_2  and  C_35
REMARK    3  A    between atoms: C_7  and  C_11
REMARK    4  A    between atoms: C_11  and  N_12
REMARK    5  A    between atoms: N_12  and  C_13
REMARK    6  A    between atoms: C_13  and  C_14
REMARK    7  A    between atoms: C_14  and  N_15
REMARK    8  A    between atoms: C_21  and  C_23
REMARK    9  A    between atoms: C_25  and  O_33
REMARK   10  A    between atoms: C_26  and  O_31
REMARK   11  A    between atoms: C_27  and  O_29
REMARK   12  A    between atoms: O_29  and  C_30
REMARK   13  A    between atoms: O_31  and  C_32
REMARK   14  A    between atoms: O_33  and  C_34
REMARK                            x       y       z     vdW  Elec       q    Type
REMARK                         _______ _______ _______ _____ _____    ______ ____
ROOT
ATOM      1  N   UNL     1      -1.756   6.557  -0.257  0.00  0.00    -0.292 N 
ATOM      2  C   UNL     1      -0.789   5.901  -0.929  0.00  0.00    +0.247 C 
ATOM      3  O   UNL     1       0.378   6.190  -0.751  0.00  0.00    -0.270 OA
ENDROOT
BRANCH   2   4
ATOM      4  C   UNL     1      -1.147   4.831  -1.881  0.00  0.00    +0.044 A 
ATOM      5  C   UNL     1      -0.590   4.819  -3.162  0.00  0.00    +0.062 A 
ATOM      6  C   UNL     1      -0.928   3.816  -4.051  0.00  0.00    +0.166 A 
ATOM      7  C   UNL     1      -1.822   2.819  -3.672  0.00  0.00    +0.204 A 
ATOM      8  C   UNL     1      -2.383   2.832  -2.397  0.00  0.00    +0.166 A 
ATOM      9  C   UNL     1      -2.044   3.829  -1.502  0.00  0.00    +0.062 A 
BRANCH   8  10
ATOM     10  O   UNL     1      -3.261   1.860  -2.031  0.00  0.00    -0.491 OA
ATOM     11  C   UNL     1      -3.705   1.865  -0.673  0.00  0.00    +0.277 C 
ENDBRANCH   8  10
BRANCH   7  12
ATOM     12  O   UNL     1      -2.152   1.834  -4.548  0.00  0.00    -0.488 OA
ATOM     13  C   UNL     1      -1.341   0.658  -4.538  0.00  0.00    +0.277 C 
ENDBRANCH   7  12
BRANCH   6  14
ATOM     14  O   UNL     1      -0.385   3.804  -5.298  0.00  0.00    -0.491 OA
ATOM     15  C   UNL     1       0.524   4.857  -5.621  0.00  0.00    +0.277 C 
ENDBRANCH   6  14
ENDBRANCH   2   4
BRANCH   1  16
ATOM     16  C   UNL     1      -3.155   6.144  -0.398  0.00  0.00    +0.138 C 
BRANCH  16  22
ATOM     17  C   UNL     1      -5.923   4.523   1.849  0.00  0.00    +0.012 C 
ATOM     18  C   UNL     1      -4.759   4.818   2.798  0.00  0.00    -0.025 C 
ATOM     19  C   UNL     1      -4.822   6.216   3.447  0.00  0.00    -0.000 C 
ATOM     20  C   UNL     1      -5.478   7.229   2.499  0.00  0.00    +0.031 C 
ATOM     21  C   UNL     1      -4.779   7.161   1.145  0.00  0.00    -0.025 C 
ATOM     22  C   UNL     1      -3.849   6.258   0.935  0.00  0.00    -0.053 C 
ATOM     23  C   UNL     1      -3.494   5.338   2.090  0.00  0.00    +0.022 C 
ATOM     24  C   UNL     1      -3.286   6.197   3.362  0.00  0.00    +0.012 C 
ATOM     25  C   UNL     1      -4.492   3.683   3.789  0.00  0.00    +0.012 C 
ENDBRANCH  16  22
ENDBRANCH   1  16
BRANCH   1  26
ATOM     26  C   UNL     1      -1.408   7.683   0.614  0.00  0.00    +0.124 C 
BRANCH  26  27
ATOM     27  C   UNL     1      -1.443   8.982  -0.194  0.00  0.00    +0.103 C 
BRANCH  27  28
ATOM     28  N   UNL     1      -1.095  10.111   0.679  0.00  0.00    -0.304 NA
ATOM     29  C   UNL     1       0.089   9.801   1.494  0.00  0.00    +0.065 C 
ATOM     30  C   UNL     1       0.371  10.967   2.443  0.00  0.00    -0.067 C 
ATOM     31  N   UNL     1       0.580  12.193   1.661  0.00  0.00    +0.381 N 
ATOM     32  C   UNL     1      -0.604  12.503   0.847  0.00  0.00    -0.067 C 
ATOM     33  C   UNL     1      -0.886  11.337  -0.103  0.00  0.00    +0.065 C 
ATOM     34  H   UNL     1       0.771  13.035   2.343  0.00  0.00    -0.086 HD
ATOM     35  H   UNL     1       1.444  12.059   0.993  0.00  0.00    -0.086 HD
ENDBRANCH  27  28
ENDBRANCH  26  27
ENDBRANCH   1  26
TORSDOF 9
