REMARK  Name = ZINC10645153
REMARK  8 active torsions:
REMARK  status: ('A' for Active; 'I' for Inactive)
REMARK    1  A    between atoms: C_1  and  C_2
REMARK    2  A    between atoms: C_4  and  C_27
REMARK    3  A    between atoms: C_8  and  N_26
REMARK    4  A    between atoms: C_9  and  C_11
REMARK    5  A    between atoms: C_11  and  O_13
REMARK    6  A    between atoms: O_13  and  C_14
REMARK    7  A    between atoms: C_14  and  C_15
REMARK    8  A    between atoms: C_20  and  C_25
REMARK                            x       y       z     vdW  Elec       q    Type
REMARK                         _______ _______ _______ _____ _____    ______ ____
ROOT
ATOM      1  C   UNL     1      -1.696   1.372   0.766  0.00  0.00    +0.044 C 
ATOM      2  C   UNL     1      -1.521  -0.123   0.688  0.00  0.00    -0.037 A 
ATOM      3  C   UNL     1      -2.240  -0.864  -0.221  0.00  0.00    +0.025 A 
ATOM      4  C   UNL     1      -2.078  -2.239  -0.290  0.00  0.00    +0.014 A 
ATOM      5  N   UNL     1      -1.231  -2.853   0.513  0.00  0.00    -0.353 N 
ATOM      6  C   UNL     1      -0.520  -2.189   1.399  0.00  0.00    +0.088 A 
ATOM      7  C   UNL     1      -0.609  -0.786   1.546  0.00  0.00    +0.030 A 
ATOM      8  C   UNL     1       0.254  -0.216   2.569  0.00  0.00    +0.055 A 
ATOM      9  C   UNL     1       1.067  -1.067   3.287  0.00  0.00    +0.119 A 
ATOM     10  S   UNL     1       0.683  -2.671   2.612  0.00  0.00    -0.062 S 
ATOM     11  C   UNL     1      -2.873  -3.037  -1.291  0.00  0.00    +0.063 C 
ATOM     12  H   UNL     1      -1.131  -3.816   0.450  0.00  0.00    +0.166 HD
ENDROOT
BRANCH   8  13
ATOM     13  N   UNL     1       0.258   1.149   2.816  0.00  0.00    -0.356 N 
ATOM     14  H   UNL     1       0.106   1.774   2.090  0.00  0.00    +0.142 HD
ATOM     15  H   UNL     1       0.414   1.479   3.715  0.00  0.00    +0.142 HD
ENDBRANCH   8  13
BRANCH   9  16
ATOM     16  C   UNL     1       1.979  -0.745   4.319  0.00  0.00    +0.348 C 
ATOM     17  O   UNL     1       2.116   0.412   4.672  0.00  0.00    -0.244 OA
BRANCH  16  18
ATOM     18  O   UNL     1       2.697  -1.721   4.914  0.00  0.00    -0.454 OA
BRANCH  18  19
ATOM     19  C   UNL     1       3.599  -1.324   5.949  0.00  0.00    +0.288 C 
BRANCH  19  20
ATOM     20  C   UNL     1       4.308  -2.539   6.491  0.00  0.00    +0.087 A 
ATOM     21  C   UNL     1       5.671  -2.682   6.340  0.00  0.00    +0.097 A 
ATOM     22  C   UNL     1       6.309  -3.813   6.849  0.00  0.00    +0.259 A 
ATOM     23  O   UNL     1       7.516  -3.944   6.719  0.00  0.00    -0.267 OA
ATOM     24  N   UNL     1       5.582  -4.774   7.493  0.00  0.00    -0.259 N 
ATOM     25  C   UNL     1       6.064  -5.936   8.046  0.00  0.00    +0.033 A 
ATOM     26  C   UNL     1       5.249  -6.799   8.652  0.00  0.00    +0.070 A 
ATOM     27  S   UNL     1       3.666  -5.992   8.477  0.00  0.00    -0.057 S 
ATOM     28  C   UNL     1       4.235  -4.552   7.598  0.00  0.00    +0.181 A 
ATOM     29  N   UNL     1       3.630  -3.490   7.128  0.00  0.00    -0.224 NA
ATOM     30  C   UNL     1       7.538  -6.240   7.965  0.00  0.00    +0.064 C 
ENDBRANCH  19  20
ENDBRANCH  18  19
ENDBRANCH  16  18
ENDBRANCH   9  16
TORSDOF 5
