REMARK  Name = ZINC40779295
REMARK  6 active torsions:
REMARK  status: ('A' for Active; 'I' for Inactive)
REMARK    1  A    between atoms: C_1  and  C_2
REMARK    2  A    between atoms: C_11  and  C_13
REMARK    3  A    between atoms: C_11  and  C_14
REMARK    4  A    between atoms: N_16  and  C_17
REMARK    5  A    between atoms: C_17  and  C_18
REMARK    6  A    between atoms: C_18  and  C_19
REMARK                            x       y       z     vdW  Elec       q    Type
REMARK                         _______ _______ _______ _____ _____    ______ ____
ROOT
ATOM      1  C   UNL     1      -0.018   1.503   0.010  0.00  0.00    +0.044 C 
ATOM      2  C   UNL     1       0.002  -0.004   0.002  0.00  0.00    -0.048 A 
ATOM      3  C   UNL     1       0.006  -0.687  -1.200  0.00  0.00    +0.007 A 
ATOM      4  C   UNL     1       0.019  -2.070  -1.216  0.00  0.00    +0.048 A 
ATOM      5  C   UNL     1       0.031  -2.773  -0.024  0.00  0.00    +0.144 A 
ATOM      6  C   UNL     1       0.038  -2.085   1.188  0.00  0.00    +0.076 A 
ATOM      7  C   UNL     1       0.023  -0.700   1.197  0.00  0.00    +0.030 A 
ATOM      8  N   UNL     1       0.086  -2.805   2.389  0.00  0.00    -0.279 N 
ATOM      9  C   UNL     1       0.342  -4.129   2.355  0.00  0.00    +0.270 C 
ATOM     10  O   UNL     1       0.279  -4.788   3.371  0.00  0.00    -0.271 OA
ATOM     11  C   UNL     1       0.706  -4.787   1.048  0.00  0.00    +0.257 C 
ATOM     12  O   UNL     1       0.025  -4.133  -0.026  0.00  0.00    -0.466 OA
ATOM     13  C   UNL     1       2.217  -4.684   0.830  0.00  0.00    +0.076 C 
ATOM     14  H   UNL     1      -0.063  -2.356   3.236  0.00  0.00    +0.155 HD
ENDROOT
BRANCH  11  15
ATOM     15  C   UNL     1       0.304  -6.238   1.087  0.00  0.00    +0.266 C 
ATOM     16  O   UNL     1       0.207  -6.812   2.151  0.00  0.00    -0.271 OA
ATOM     17  N   UNL     1       0.052  -6.899  -0.060  0.00  0.00    -0.311 N 
ATOM     18  H   UNL     1       0.129  -6.440  -0.911  0.00  0.00    +0.149 HD
BRANCH  17  19
ATOM     19  C   UNL     1      -0.339  -8.310  -0.022  0.00  0.00    +0.109 C 
BRANCH  19  20
ATOM     20  C   UNL     1      -0.565  -8.816  -1.448  0.00  0.00    +0.061 C 
BRANCH  20  21
ATOM     21  C   UNL     1      -0.967 -10.268  -1.409  0.00  0.00    -0.009 A 
ATOM     22  C   UNL     1      -2.208 -10.808  -1.332  0.00  0.00    +0.011 A 
ATOM     23  C   UNL     1      -2.340 -12.184  -1.310  0.00  0.00    +0.008 A 
ATOM     24  C   UNL     1      -1.225 -12.952  -1.365  0.00  0.00    +0.045 A 
ATOM     25  S   UNL     1       0.067 -11.723  -1.459  0.00  0.00    -0.102 S 
ENDBRANCH  20  21
ENDBRANCH  19  20
ENDBRANCH  17  19
ENDBRANCH  11  15
TORSDOF 4
