REMARK  Name = ZINC31161800
REMARK  5 active torsions:
REMARK  status: ('A' for Active; 'I' for Inactive)
REMARK    1  A    between atoms: C_1  and  C_2
REMARK    2  A    between atoms: C_5  and  O_29
REMARK    3  A    between atoms: C_9  and  O_28
REMARK    4  A    between atoms: C_18  and  O_24
REMARK    5  A    between atoms: C_20  and  O_23
REMARK                            x       y       z     vdW  Elec       q    Type
REMARK                         _______ _______ _______ _____ _____    ______ ____
ROOT
ATOM      1  C   UNL     1       0.484  -1.852   4.979  0.00  0.00    +0.052 C 
ATOM      2  C   UNL     1       0.590  -1.133   3.633  0.00  0.00    +0.176 C 
ATOM      3  C   UNL     1       1.231   0.239   3.840  0.00  0.00    +0.080 C 
ATOM      4  C   UNL     1       2.700   0.183   3.415  0.00  0.00    +0.141 C 
ATOM      5  C   UNL     1       2.878   0.960   2.136  0.00  0.00    +0.002 C 
ATOM      6  C   UNL     1       3.471   0.407   1.107  0.00  0.00    +0.002 C 
ATOM      7  C   UNL     1       3.643   1.190  -0.170  0.00  0.00    +0.138 C 
ATOM      8  C   UNL     1       2.297   1.272  -0.895  0.00  0.00    +0.043 C 
ATOM      9  C   UNL     1       1.279   1.979   0.001  0.00  0.00    +0.077 C 
ATOM     10  C   UNL     1      -0.014   1.203   0.009  0.00  0.00    +0.138 C 
ATOM     11  O   UNL     1       0.002  -0.004   0.002  0.00  0.00    -0.297 OA
ATOM     12  C   UNL     1      -1.327   1.943   0.019  0.00  0.00    +0.112 C 
ATOM     13  C   UNL     1      -2.434   1.013   0.443  0.00  0.00    -0.001 A 
ATOM     14  C   UNL     1      -2.220   0.059   1.443  0.00  0.00    +0.105 A 
ATOM     15  C   UNL     1      -3.272  -0.783   1.838  0.00  0.00    +0.135 A 
ATOM     16  C   UNL     1      -4.508  -0.675   1.227  0.00  0.00    +0.093 A 
ATOM     17  C   UNL     1      -4.709   0.267   0.229  0.00  0.00    +0.139 A 
ATOM     18  C   UNL     1      -3.670   1.111  -0.160  0.00  0.00    +0.087 A 
ATOM     19 CL   UNL     1      -3.933   2.289  -1.407  0.00  0.00    -0.079 Cl
ATOM     20  C   UNL     1      -0.903  -0.068   2.089  0.00  0.00    +0.343 C 
ATOM     21  O   UNL     1       0.022   0.643   1.746  0.00  0.00    -0.245 OA
ATOM     22  O   UNL     1      -0.734  -0.983   3.066  0.00  0.00    -0.458 OA
ENDROOT
BRANCH  17  23
ATOM     23  O   UNL     1      -5.921   0.368  -0.372  0.00  0.00    -0.505 OA
ATOM     24  H   UNL     1      -6.082   1.114  -1.164  0.00  0.00    +0.292 HD
ENDBRANCH  17  23
BRANCH  15  25
ATOM     25  O   UNL     1      -3.077  -1.702   2.816  0.00  0.00    -0.506 OA
ATOM     26  H   UNL     1      -3.901  -2.362   3.125  0.00  0.00    +0.292 HD
ENDBRANCH  15  25
BRANCH   7  27
ATOM     27  O   UNL     1       4.598   0.534  -1.007  0.00  0.00    -0.388 OA
ATOM     28  H   UNL     1       4.854   0.962  -1.988  0.00  0.00    +0.210 HD
ENDBRANCH   7  27
BRANCH   4  29
ATOM     29  O   UNL     1       3.085  -1.177   3.204  0.00  0.00    -0.388 OA
ATOM     30  H   UNL     1       4.112  -1.415   2.892  0.00  0.00    +0.210 HD
ENDBRANCH   4  29
TORSDOF 4
