REMARK  Name = ZINC39631949
REMARK  11 active torsions:
REMARK  status: ('A' for Active; 'I' for Inactive)
REMARK    1  A    between atoms: C_1  and  C_2
REMARK    2  A    between atoms: C_2  and  C_4
REMARK    3  A    between atoms: C_2  and  N_11
REMARK    4  A    between atoms: C_4  and  C_5
REMARK    5  A    between atoms: C_5  and  C_6
REMARK    6  A    between atoms: C_6  and  C_7
REMARK    7  A    between atoms: C_7  and  C_8
REMARK    8  A    between atoms: C_7  and  C_9
REMARK    9  A    between atoms: C_7  and  O_10
REMARK   10  A    between atoms: C_12  and  C_14
REMARK   11  A    between atoms: C_25  and  C_27
REMARK                            x       y       z     vdW  Elec       q    Type
REMARK                         _______ _______ _______ _____ _____    ______ ____
ROOT
ATOM      1  C   UNL     1       1.432  -3.482  -6.197  0.00  0.00    +0.100 C 
ATOM      2  C   UNL     1       1.093  -4.721  -5.339  0.00  0.00    +0.121 C 
ATOM      3  N   UNL     1      -0.316  -5.035  -5.674  0.00  0.00    -0.296 N 
ATOM      4  C   UNL     1      -0.409  -4.795  -7.134  0.00  0.00    +0.115 C 
ATOM      5  C   UNL     1       0.447  -3.536  -7.376  0.00  0.00    -0.004 C 
ATOM      6  C   UNL     1       1.206  -3.658  -8.694  0.00  0.00    -0.010 C 
ATOM      7  C   UNL     1       0.207  -3.651  -9.855  0.00  0.00    -0.082 C 
ATOM      8  N   UNL     1      -0.569  -2.406  -9.828  0.00  0.00    +0.379 N 
ATOM      9  C   UNL     1      -1.368  -2.341  -8.598  0.00  0.00    -0.082 C 
ATOM     10  C   UNL     1      -0.436  -2.292  -7.384  0.00  0.00    -0.010 C 
ATOM     11  C   UNL     1      -1.292  -5.445  -4.840  0.00  0.00    +0.248 C 
ATOM     12  O   UNL     1      -2.436  -5.542  -5.244  0.00  0.00    -0.270 OA
ATOM     13  H   UNL     1       0.060  -1.618  -9.861  0.00  0.00    -0.086 HD
ATOM     14  H   UNL     1      -1.183  -2.376 -10.628  0.00  0.00    -0.086 HD
ENDROOT
BRANCH  11  15
ATOM     15  C   UNL     1      -0.975  -5.774  -3.445  0.00  0.00    +0.052 A 
ATOM     16  C   UNL     1      -0.183  -4.963  -2.696  0.00  0.00    +0.059 A 
ATOM     17  S   UNL     1      -0.083  -5.701  -1.194  0.00  0.00    -0.096 S 
ATOM     18  C   UNL     1      -1.089  -7.131  -1.478  0.00  0.00    +0.020 A 
ATOM     19  C   UNL     1      -1.507  -6.985  -2.815  0.00  0.00    +0.001 A 
ATOM     20  C   UNL     1      -2.344  -7.987  -3.342  0.00  0.00    +0.010 A 
ATOM     21  C   UNL     1      -2.729  -9.051  -2.566  0.00  0.00    +0.001 A 
ATOM     22  C   UNL     1      -2.307  -9.169  -1.249  0.00  0.00    +0.001 A 
ATOM     23  C   UNL     1      -1.477  -8.206  -0.708  0.00  0.00    +0.015 A 
ENDBRANCH  11  15
BRANCH   1  25
ATOM     24  N   UNL     1       1.786  -1.064  -5.811  0.00  0.00    -0.312 N 
ATOM     25  C   UNL     1       1.228  -2.220  -5.399  0.00  0.00    +0.218 C 
ATOM     26  O   UNL     1       0.560  -2.244  -4.387  0.00  0.00    -0.275 OA
ATOM     27  H   UNL     1       2.263  -1.030  -6.655  0.00  0.00    +0.149 HD
BRANCH  24  29
ATOM     28  C   UNL     1       0.266   0.726  -5.127  0.00  0.00    +0.028 C 
ATOM     29  C   UNL     1       1.673   0.140  -4.984  0.00  0.00    +0.070 C 
BRANCH  29  30
ATOM     30  C   UNL     1       2.704   1.173  -5.443  0.00  0.00    +0.022 C 
BRANCH  30  31
ATOM     31  C   UNL     1       4.113   0.651  -5.151  0.00  0.00    +0.005 C 
BRANCH  31  32
ATOM     32  C   UNL     1       5.138   1.733  -5.494  0.00  0.00    +0.034 C 
BRANCH  32  33
ATOM     33  C   UNL     1       6.537   1.252  -5.104  0.00  0.00    +0.061 C 
ATOM     34  C   UNL     1       6.888  -0.003  -5.907  0.00  0.00    +0.041 C 
ATOM     35  C   UNL     1       7.558   2.351  -5.406  0.00  0.00    +0.041 C 
BRANCH  33  36
ATOM     36  O   UNL     1       6.564   0.947  -3.708  0.00  0.00    -0.389 OA
ATOM     37  H   UNL     1       6.351   1.698  -3.138  0.00  0.00    +0.210 HD
ENDBRANCH  33  36
ENDBRANCH  32  33
ENDBRANCH  31  32
ENDBRANCH  30  31
ENDBRANCH  29  30
ENDBRANCH  24  29
ENDBRANCH   1  25
TORSDOF 8
