REMARK  Name = ZINC01178197
REMARK  5 active torsions:
REMARK  status: ('A' for Active; 'I' for Inactive)
REMARK    1  A    between atoms: C_4  and  C_7
REMARK    2  A    between atoms: C_10  and  C_12
REMARK    3  A    between atoms: C_22  and  C_24
REMARK    4  A    between atoms: C_24  and  O_25
REMARK    5  A    between atoms: O_25  and  C_26
REMARK                            x       y       z     vdW  Elec       q    Type
REMARK                         _______ _______ _______ _____ _____    ______ ____
ROOT
ATOM      1  C   UNL     1       7.247  -0.857  -0.067  0.00  0.00    +0.063 C 
ATOM      2  C   UNL     1       7.750   0.432  -0.163  0.00  0.00    +0.084 C 
ATOM      3  C   UNL     1       9.208   0.696  -0.292  0.00  0.00    +0.153 C 
ATOM      4  N   UNL     1      10.030  -0.104  -0.923  0.00  0.00    -0.283 NA
ATOM      5  N   UNL     1       9.619   1.893   0.331  0.00  0.00    -0.152 N 
ATOM      6  C   UNL     1       8.665   2.871   0.521  0.00  0.00    +0.181 C 
ATOM      7  N   UNL     1       7.382   2.791   0.276  0.00  0.00    -0.152 NA
ATOM      8  C   UNL     1       6.864   1.618  -0.149  0.00  0.00    +0.273 C 
ATOM      9  O   UNL     1       5.699   1.536  -0.507  0.00  0.00    -0.268 OA
ATOM     10  S   UNL     1       9.627   4.203   1.187  0.00  0.00    -0.035 S 
ATOM     11  C   UNL     1      11.194   3.347   1.261  0.00  0.00    +0.137 C 
ATOM     12  N   UNL     1      10.896   2.182   0.760  0.00  0.00    -0.166 NA
ATOM     13  H   UNL     1      10.973   0.115  -0.978  0.00  0.00    +0.188 HD
ENDROOT
BRANCH   1  17
ATOM     14  C   UNL     1       3.843  -0.670   0.949  0.00  0.00    +0.136 A 
ATOM     15  C   UNL     1       3.930  -2.023   0.699  0.00  0.00    +0.050 A 
ATOM     16  C   UNL     1       5.235  -2.277   0.279  0.00  0.00    +0.050 A 
ATOM     17  C   UNL     1       5.903  -1.061   0.288  0.00  0.00    +0.129 A 
ATOM     18  O   UNL     1       5.036  -0.108   0.692  0.00  0.00    -0.455 OA
BRANCH  14  22
ATOM     19  C   UNL     1       0.377   1.382   2.292  0.00  0.00    +0.000 A 
ATOM     20  C   UNL     1       1.548   2.084   2.064  0.00  0.00    +0.001 A 
ATOM     21  C   UNL     1       2.678   1.424   1.628  0.00  0.00    +0.011 A 
ATOM     22  C   UNL     1       2.638   0.043   1.416  0.00  0.00    +0.017 A 
ATOM     23  C   UNL     1       1.452  -0.659   1.648  0.00  0.00    +0.011 A 
ATOM     24  C   UNL     1       0.331   0.014   2.083  0.00  0.00    +0.001 A 
ENDBRANCH  14  22
ENDBRANCH   1  17
BRANCH  11  25
ATOM     25  C   UNL     1      12.521   3.845   1.772  0.00  0.00    +0.293 C 
BRANCH  25  26
ATOM     26  O   UNL     1      13.502   2.815   1.637  0.00  0.00    -0.485 OA
BRANCH  26  27
ATOM     27  C   UNL     1      14.762   3.103   2.054  0.00  0.00    +0.121 A 
ATOM     28  C   UNL     1      15.049   4.351   2.588  0.00  0.00    +0.045 A 
ATOM     29  C   UNL     1      16.331   4.642   3.013  0.00  0.00    +0.004 A 
ATOM     30  C   UNL     1      17.328   3.691   2.904  0.00  0.00    +0.000 A 
ATOM     31  C   UNL     1      17.046   2.447   2.372  0.00  0.00    +0.004 A 
ATOM     32  C   UNL     1      15.764   2.149   1.952  0.00  0.00    +0.045 A 
ENDBRANCH  26  27
ENDBRANCH  25  26
ENDBRANCH  11  25
TORSDOF 5
