REMARK  Name = ZINC38636877
REMARK  9 active torsions:
REMARK  status: ('A' for Active; 'I' for Inactive)
REMARK    1  A    between atoms: C_1  and  C_2
REMARK    2  A    between atoms: C_5  and  C_8
REMARK    3  A    between atoms: C_8  and  N_9
REMARK    4  A    between atoms: C_10  and  C_32
REMARK    5  A    between atoms: C_12  and  C_16
REMARK    6  A    between atoms: C_13  and  C_15
REMARK    7  A    between atoms: N_17  and  N_18
REMARK    8  A    between atoms: C_19  and  C_21
REMARK    9  A    between atoms: C_24  and  C_26
REMARK                            x       y       z     vdW  Elec       q    Type
REMARK                         _______ _______ _______ _____ _____    ______ ____
ROOT
ATOM      1  C   UNL     1       2.572  -7.938  -1.637  0.00  0.00    +0.137 C 
ATOM      2  N   UNL     1       3.217  -8.131  -2.753  0.00  0.00    -0.188 NA
ENDROOT
BRANCH   1   5
ATOM      3  N   UNL     1       1.451  -4.747  -0.032  0.00  0.00    -0.218 NA
ATOM      4  C   UNL     1       1.510  -6.221   0.036  0.00  0.00    +0.106 C 
ATOM      5  C   UNL     1       2.250  -6.621  -1.223  0.00  0.00    +0.008 C 
ATOM      6  C   UNL     1       2.541  -5.479  -1.871  0.00  0.00    +0.022 C 
ATOM      7  N   UNL     1       2.081  -4.386  -1.187  0.00  0.00    -0.281 N 
ATOM      8  C   UNL     1       3.280  -5.412  -3.182  0.00  0.00    +0.062 C 
ATOM      9  C   UNL     1       0.100  -6.814   0.043  0.00  0.00    +0.031 C 
ATOM     10  H   UNL     1       2.189  -3.469  -1.486  0.00  0.00    +0.166 HD
BRANCH   3  11
ATOM     11  C   UNL     1       0.059  -4.275  -0.021  0.00  0.00    +0.141 C 
BRANCH  11  16
ATOM     12  C   UNL     1      -0.018   1.503   0.010  0.00  0.00    +0.044 C 
ATOM     13  C   UNL     1       0.002  -0.004   0.002  0.00  0.00    -0.050 A 
ATOM     14  C   UNL     1       0.006  -0.689  -1.199  0.00  0.00    +0.003 A 
ATOM     15  C   UNL     1       0.025  -2.071  -1.206  0.00  0.00    +0.005 A 
ATOM     16  C   UNL     1       0.040  -2.768  -0.013  0.00  0.00    -0.032 A 
ATOM     17  C   UNL     1       0.037  -2.084   1.188  0.00  0.00    +0.005 A 
ATOM     18  C   UNL     1       0.023  -0.702   1.195  0.00  0.00    +0.003 A 
ENDBRANCH  11  16
ENDBRANCH   3  11
ENDBRANCH   1   5
BRANCH   2  19
ATOM     19  N   UNL     1       3.535  -9.433  -3.162  0.00  0.00    -0.202 N 
ATOM     20  C   UNL     1       4.202  -9.633  -4.316  0.00  0.00    +0.280 C 
ATOM     21  O   UNL     1       4.528  -8.681  -5.003  0.00  0.00    -0.267 OA
ATOM     22  H   UNL     1       3.275 -10.190  -2.615  0.00  0.00    +0.178 HD
BRANCH  20  23
ATOM     23  C   UNL     1       4.535 -10.994  -4.744  0.00  0.00    +0.132 C 
ATOM     24  N   UNL     1       4.254 -12.114  -4.129  0.00  0.00    -0.148 NA
ATOM     25  N   UNL     1       4.664 -13.162  -4.728  0.00  0.00    -0.153 NA
ATOM     26  C   UNL     1       5.295 -12.927  -5.855  0.00  0.00    +0.077 C 
ATOM     27  C   UNL     1       5.276 -11.414  -6.003  0.00  0.00    +0.120 C 
BRANCH  26  28
ATOM     28  C   UNL     1       5.885 -13.909  -6.772  0.00  0.00    -0.002 A 
ATOM     29  C   UNL     1       6.533 -13.483  -7.939  0.00  0.00    +0.010 A 
ATOM     30  C   UNL     1       7.083 -14.412  -8.795  0.00  0.00    +0.001 A 
ATOM     31  C   UNL     1       6.997 -15.763  -8.505  0.00  0.00    +0.000 A 
ATOM     32  C   UNL     1       6.358 -16.193  -7.355  0.00  0.00    +0.001 A 
ATOM     33  C   UNL     1       5.807 -15.277  -6.484  0.00  0.00    +0.010 A 
ENDBRANCH  26  28
ENDBRANCH  20  23
ENDBRANCH   2  19
TORSDOF 6
