REMARK  Name = ZINC59167141
REMARK  13 active torsions:
REMARK  status: ('A' for Active; 'I' for Inactive)
REMARK    1  A    between atoms: C_1  and  C_2
REMARK    2  A    between atoms: C_5  and  N_9
REMARK    3  A    between atoms: C_6  and  C_8
REMARK    4  A    between atoms: C_10  and  C_36
REMARK    5  A    between atoms: C_11  and  C_15
REMARK    6  A    between atoms: C_12  and  C_14
REMARK    7  A    between atoms: N_16  and  N_17
REMARK    8  A    between atoms: C_18  and  C_20
REMARK    9  A    between atoms: C_20  and  N_21
REMARK   10  A    between atoms: N_21  and  C_22
REMARK   11  A    between atoms: N_21  and  C_29
REMARK   12  A    between atoms: C_22  and  C_23
REMARK   13  A    between atoms: C_29  and  C_30
REMARK                            x       y       z     vdW  Elec       q    Type
REMARK                         _______ _______ _______ _____ _____    ______ ____
ROOT
ATOM      1  N   UNL     1       0.150  -9.673  -0.505  0.00  0.00    -0.209 N 
ATOM      2  C   UNL     1       0.240 -10.970  -0.153  0.00  0.00    +0.216 C 
ATOM      3  O   UNL     1       0.418 -11.273   1.008  0.00  0.00    -0.276 OA
ATOM      4  H   UNL     1       0.008  -9.431  -1.433  0.00  0.00    +0.177 HD
ENDROOT
BRANCH   1   6
ATOM      5  C   UNL     1       0.175  -7.423   0.132  0.00  0.00    +0.142 C 
ATOM      6  N   UNL     1       0.262  -8.673   0.471  0.00  0.00    -0.188 NA
BRANCH   5   9
ATOM      7  N   UNL     1       0.377  -4.408   2.145  0.00  0.00    -0.236 N 
ATOM      8  C   UNL     1       0.221  -5.011   0.947  0.00  0.00    +0.051 A 
ATOM      9  C   UNL     1       0.292  -6.371   1.159  0.00  0.00    +0.038 A 
ATOM     10  C   UNL     1       0.499  -6.570   2.542  0.00  0.00    +0.069 A 
ATOM     11  N   UNL     1       0.554  -5.399   3.117  0.00  0.00    -0.171 NA
ATOM     12  C   UNL     1       0.639  -7.902   3.232  0.00  0.00    +0.068 C 
ATOM     13  C   UNL     1       0.007  -4.324  -0.377  0.00  0.00    +0.066 C 
BRANCH   7  18
ATOM     14  C   UNL     1       0.342   1.191   3.074  0.00  0.00    +0.044 C 
ATOM     15  C   UNL     1       0.351  -0.296   2.828  0.00  0.00    -0.050 A 
ATOM     16  C   UNL     1       1.110  -0.820   1.797  0.00  0.00    +0.005 A 
ATOM     17  C   UNL     1       1.121  -2.182   1.568  0.00  0.00    +0.028 A 
ATOM     18  C   UNL     1       0.368  -3.025   2.375  0.00  0.00    +0.069 A 
ATOM     19  C   UNL     1      -0.392  -2.497   3.409  0.00  0.00    -0.025 A 
ATOM     20  C   UNL     1      -0.395  -1.134   3.636  0.00  0.00    +0.008 A 
ATOM     21  C   UNL     1      -1.210  -3.409   4.286  0.00  0.00    +0.046 C 
ENDBRANCH   7  18
ENDBRANCH   5   9
ENDBRANCH   1   6
BRANCH   2  22
ATOM     22  C   UNL     1       0.120 -12.046  -1.202  0.00  0.00    +0.021 C 
BRANCH  22  23
ATOM     23  N   UNL     1       0.102 -13.363  -0.553  0.00  0.00    +0.391 N 
ATOM     24  H   UNL     1       0.899 -13.447   0.061  0.00  0.00    -0.080 HD
BRANCH  23  25
ATOM     25  C   UNL     1      -1.134 -13.508   0.227  0.00  0.00    -0.042 C 
BRANCH  25  26
ATOM     26  C   UNL     1      -1.097 -14.807   0.991  0.00  0.00    -0.064 A 
ATOM     27  C   UNL     1      -1.592 -15.962   0.414  0.00  0.00    +0.002 A 
ATOM     28  C   UNL     1      -1.558 -17.153   1.115  0.00  0.00    +0.000 A 
ATOM     29  C   UNL     1      -1.028 -17.190   2.391  0.00  0.00    +0.000 A 
ATOM     30  C   UNL     1      -0.532 -16.035   2.967  0.00  0.00    +0.000 A 
ATOM     31  C   UNL     1      -0.562 -14.845   2.265  0.00  0.00    +0.002 A 
ENDBRANCH  25  26
ENDBRANCH  23  25
BRANCH  23  32
ATOM     32  C   UNL     1       0.161 -14.415  -1.577  0.00  0.00    -0.042 C 
BRANCH  32  33
ATOM     33  C   UNL     1       1.483 -14.340  -2.298  0.00  0.00    -0.064 A 
ATOM     34  C   UNL     1       1.580 -13.655  -3.494  0.00  0.00    +0.002 A 
ATOM     35  C   UNL     1       2.792 -13.587  -4.155  0.00  0.00    +0.000 A 
ATOM     36  C   UNL     1       3.907 -14.204  -3.620  0.00  0.00    +0.000 A 
ATOM     37  C   UNL     1       3.810 -14.888  -2.422  0.00  0.00    +0.000 A 
ATOM     38  C   UNL     1       2.599 -14.953  -1.759  0.00  0.00    +0.002 A 
ENDBRANCH  32  33
ENDBRANCH  23  32
ENDBRANCH  22  23
ENDBRANCH   2  22
TORSDOF 9
