REMARK  Name = ZINC14034266
REMARK  16 active torsions:
REMARK  status: ('A' for Active; 'I' for Inactive)
REMARK    1  A    between atoms: C_1  and  C_2
REMARK    2  A    between atoms: C_2  and  C_3
REMARK    3  A    between atoms: C_2  and  C_4
REMARK    4  A    between atoms: C_4  and  C_5
REMARK    5  A    between atoms: C_5  and  O_6
REMARK    6  A    between atoms: O_6  and  C_7
REMARK    7  A    between atoms: C_12  and  C_13
REMARK    8  A    between atoms: N_15  and  C_16
REMARK    9  A    between atoms: C_16  and  N_18
REMARK   10  A    between atoms: C_24  and  C_26
REMARK   11  A    between atoms: C_26  and  C_27
REMARK   12  A    between atoms: C_27  and  O_29
REMARK   13  A    between atoms: O_29  and  C_30
REMARK   14  A    between atoms: C_30  and  C_31
REMARK   15  A    between atoms: C_31  and  C_32
REMARK   16  A    between atoms: C_32  and  C_33
REMARK                            x       y       z     vdW  Elec       q    Type
REMARK                         _______ _______ _______ _____ _____    ______ ____
ROOT
ATOM      1  N   UNL     1       0.026   1.407  -0.088  0.00  0.00    -0.299 N 
ATOM      2  C   UNL     1       0.116  -0.048  -0.295  0.00  0.00    +0.126 C 
ATOM      3  C   UNL     1       0.912  -0.301  -1.577  0.00  0.00    +0.123 C 
ATOM      4  N   UNL     1       2.121   0.511  -1.602  0.00  0.00    -0.312 N 
ATOM      5  C   UNL     1       2.297   1.629  -0.897  0.00  0.00    +0.234 C 
ATOM      6  O   UNL     1       3.318   2.263  -1.062  0.00  0.00    -0.274 OA
ATOM      7  C   UNL     1       1.287   2.141   0.095  0.00  0.00    +0.171 C 
ATOM      8  H   UNL     1       2.849   0.219  -2.172  0.00  0.00    +0.149 HD
ENDROOT
BRANCH   1   9
ATOM      9  C   UNL     1      -1.163   2.041  -0.073  0.00  0.00    +0.140 C 
ATOM     10  S   UNL     1      -2.606   1.161  -0.343  0.00  0.00    -0.018 S 
BRANCH   9  13
ATOM     11  C   UNL     1      -2.393   4.020   0.075  0.00  0.00    +0.253 C 
ATOM     12  O   UNL     1      -3.407   3.410  -0.200  0.00  0.00    -0.270 OA
ATOM     13  N   UNL     1      -1.215   3.369   0.154  0.00  0.00    -0.264 N 
ATOM     14  H   UNL     1      -0.406   3.856   0.374  0.00  0.00    +0.157 HD
BRANCH  11  20
ATOM     15  C   UNL     1      -3.672   6.154   0.238  0.00  0.00    +0.133 A 
ATOM     16  C   UNL     1      -3.715   7.519   0.479  0.00  0.00    +0.046 A 
ATOM     17  C   UNL     1      -2.558   8.204   0.791  0.00  0.00    +0.004 A 
ATOM     18  C   UNL     1      -1.347   7.534   0.872  0.00  0.00    +0.001 A 
ATOM     19  C   UNL     1      -1.287   6.178   0.641  0.00  0.00    +0.017 A 
ATOM     20  C   UNL     1      -2.450   5.472   0.324  0.00  0.00    +0.079 A 
BRANCH  15  21
ATOM     21  O   UNL     1      -4.808   5.481  -0.075  0.00  0.00    -0.491 OA
BRANCH  21  22
ATOM     22  C   UNL     1      -6.015   6.243  -0.144  0.00  0.00    +0.229 C 
BRANCH  22  23
ATOM     23  C   UNL     1      -7.180   5.320  -0.506  0.00  0.00    +0.044 C 
BRANCH  23  25
ATOM     24  C   UNL     1      -8.377   7.138  -1.732  0.00  0.00    +0.007 C 
ATOM     25  C   UNL     1      -8.472   6.135  -0.581  0.00  0.00    -0.014 C 
ATOM     26  C   UNL     1      -9.656   5.195  -0.820  0.00  0.00    +0.007 C 
ENDBRANCH  23  25
ENDBRANCH  22  23
ENDBRANCH  21  22
ENDBRANCH  15  21
ENDBRANCH  11  20
ENDBRANCH   9  13
ENDBRANCH   1   9
BRANCH   7  27
ATOM     27  C   UNL     1       1.807   1.919   1.517  0.00  0.00    +0.152 C 
BRANCH  27  28
ATOM     28  C   UNL     1       0.854   2.541   2.503  0.00  0.00    +0.309 C 
ATOM     29  O   UNL     1      -0.195   3.003   2.121  0.00  0.00    -0.251 OA
BRANCH  28  30
ATOM     30  O   UNL     1       1.169   2.583   3.807  0.00  0.00    -0.465 OA
BRANCH  30  31
ATOM     31  C   UNL     1       0.203   3.197   4.700  0.00  0.00    +0.232 C 
BRANCH  31  32
ATOM     32  C   UNL     1       0.733   3.152   6.135  0.00  0.00    +0.046 C 
BRANCH  32  33
ATOM     33  C   UNL     1      -0.285   3.799   7.076  0.00  0.00    +0.038 C 
BRANCH  33  34
ATOM     34  C   UNL     1       0.237   3.754   8.488  0.00  0.00    -0.047 A 
ATOM     35  C   UNL     1      -0.054   2.674   9.300  0.00  0.00    +0.003 A 
ATOM     36  C   UNL     1       0.429   2.631  10.594  0.00  0.00    +0.000 A 
ATOM     37  C   UNL     1       1.196   3.673  11.081  0.00  0.00    +0.000 A 
ATOM     38  C   UNL     1       1.483   4.756  10.271  0.00  0.00    +0.000 A 
ATOM     39  C   UNL     1       1.004   4.797   8.975  0.00  0.00    +0.003 A 
ENDBRANCH  33  34
ENDBRANCH  32  33
ENDBRANCH  31  32
ENDBRANCH  30  31
ENDBRANCH  28  30
ENDBRANCH  27  28
ENDBRANCH   7  27
TORSDOF 14
