REMARK  Name = ZINC11678025
REMARK  13 active torsions:
REMARK  status: ('A' for Active; 'I' for Inactive)
REMARK    1  A    between atoms: C_1  and  C_2
REMARK    2  A    between atoms: C_2  and  C_3
REMARK    3  A    between atoms: C_2  and  C_4
REMARK    4  A    between atoms: C_2  and  N_72
REMARK    5  A    between atoms: N_6  and  C_7
REMARK    6  A    between atoms: C_7  and  C_9
REMARK    7  A    between atoms: C_7  and  C_18
REMARK    8  A    between atoms: C_9  and  O_10
REMARK    9  A    between atoms: O_10  and  C_11
REMARK   10  A    between atoms: C_11  and  C_12
REMARK   11  A    between atoms: N_25  and  C_37
REMARK   12  A    between atoms: C_28  and  C_30
REMARK   13  A    between atoms: C_30  and  C_31
REMARK                            x       y       z     vdW  Elec       q    Type
REMARK                         _______ _______ _______ _____ _____    ______ ____
ROOT
ATOM      1  C   UNL     1      -2.786  -3.831  -0.390  0.00  0.00    +0.185 C 
ENDROOT
BRANCH   1   2
ATOM      2  C   UNL     1      -1.422  -3.335   0.018  0.00  0.00    +0.238 C 
ATOM      3  O   UNL     1      -0.444  -3.657  -0.622  0.00  0.00    -0.273 OA
ATOM      4  N   UNL     1      -1.290  -2.534   1.094  0.00  0.00    -0.298 N 
ATOM      5  C   UNL     1      -2.479  -2.149   1.863  0.00  0.00    +0.114 C 
ATOM      6  C   UNL     1      -2.593  -0.615   1.895  0.00  0.00    +0.072 C 
ATOM      7  C   UNL     1      -1.215  -0.084   2.213  0.00  0.00    +0.055 C 
ATOM      8  N   UNL     1      -0.836   0.701   3.128  0.00  0.00    -0.186 NA
ATOM      9  N   UNL     1       0.550   0.854   3.172  0.00  0.00    -0.196 N 
ATOM     10  C   UNL     1       1.169   0.070   2.226  0.00  0.00    +0.248 C 
ATOM     11  O   UNL     1       2.356  -0.110   2.050  0.00  0.00    -0.273 OA
ATOM     12  C   UNL     1       0.023  -0.522   1.442  0.00  0.00    +0.108 C 
ATOM     13  C   UNL     1       0.044  -2.054   1.486  0.00  0.00    +0.130 C 
ATOM     14  C   UNL     1       1.258   1.728   4.110  0.00  0.00    +0.161 C 
BRANCH  12  15
ATOM     15  C   UNL     1       0.002  -0.004   0.002  0.00  0.00    +0.059 C 
BRANCH  15  16
ATOM     16  C   UNL     1      -0.018   1.503   0.010  0.00  0.00    -0.046 A 
ATOM     17  C   UNL     1      -1.225   2.178   0.020  0.00  0.00    +0.003 A 
ATOM     18  C   UNL     1      -1.244   3.560   0.032  0.00  0.00    +0.000 A 
ATOM     19  C   UNL     1      -0.056   4.267   0.025  0.00  0.00    +0.000 A 
ATOM     20  C   UNL     1       1.151   3.592   0.010  0.00  0.00    +0.000 A 
ATOM     21  C   UNL     1       1.169   2.210   0.003  0.00  0.00    +0.003 A 
ENDBRANCH  15  16
ENDBRANCH  12  15
ENDBRANCH   1   2
BRANCH   1  24
ATOM     22  C   UNL     1      -1.963  -4.931  -2.402  0.00  0.00    +0.202 C 
ATOM     23  O   UNL     1      -1.474  -3.876  -2.744  0.00  0.00    -0.277 OA
ATOM     24  N   UNL     1      -2.640  -5.015  -1.240  0.00  0.00    -0.303 N 
ATOM     25  H   UNL     1      -3.032  -5.859  -0.966  0.00  0.00    +0.149 HD
BRANCH  22  27
ATOM     26  C   UNL     1      -1.596  -5.713  -4.726  0.00  0.00    -0.001 C 
ATOM     27  C   UNL     1      -1.814  -6.150  -3.276  0.00  0.00    +0.001 C 
ATOM     28  C   UNL     1      -0.613  -6.972  -2.805  0.00  0.00    -0.001 C 
BRANCH  27  31
ATOM     29  H   UNL     1      -3.840  -6.447  -3.495  0.00  0.00    -0.089 HD
ATOM     30  H   UNL     1      -2.931  -7.822  -3.716  0.00  0.00    -0.089 HD
ATOM     31  N   UNL     1      -3.032  -6.972  -3.164  0.00  0.00    +0.387 N 
ATOM     32  H   UNL     1      -3.178  -7.226  -2.180  0.00  0.00    -0.089 HD
ENDBRANCH  27  31
ENDBRANCH  22  27
ENDBRANCH   1  24
BRANCH   1  33
ATOM     33  C   UNL     1      -3.517  -2.733  -1.165  0.00  0.00    +0.192 C 
BRANCH  33  34
ATOM     34  O   UNL     1      -4.850  -3.159  -1.451  0.00  0.00    -0.373 OA
BRANCH  34  35
ATOM     35  C   UNL     1      -5.623  -2.201  -2.177  0.00  0.00    +0.195 C 
BRANCH  35  36
ATOM     36  C   UNL     1      -7.005  -2.752  -2.422  0.00  0.00    -0.022 A 
ATOM     37  C   UNL     1      -7.265  -3.479  -3.568  0.00  0.00    +0.006 A 
ATOM     38  C   UNL     1      -8.531  -3.989  -3.791  0.00  0.00    +0.000 A 
ATOM     39  C   UNL     1      -9.539  -3.762  -2.872  0.00  0.00    +0.000 A 
ATOM     40  C   UNL     1      -9.279  -3.030  -1.728  0.00  0.00    +0.000 A 
ATOM     41  C   UNL     1      -8.012  -2.525  -1.503  0.00  0.00    +0.006 A 
ENDBRANCH  35  36
ENDBRANCH  34  35
ENDBRANCH  33  34
ENDBRANCH   1  33
TORSDOF 10
