REMARK  Name = ZINC40031432
REMARK  7 active torsions:
REMARK  status: ('A' for Active; 'I' for Inactive)
REMARK    1  A    between atoms: C_1  and  O_2
REMARK    2  A    between atoms: O_2  and  C_3
REMARK    3  A    between atoms: C_6  and  C_11
REMARK    4  A    between atoms: C_8  and  O_9
REMARK    5  A    between atoms: O_9  and  C_10
REMARK    6  A    between atoms: N_26  and  C_27
REMARK    7  A    between atoms: C_27  and  C_28
REMARK                            x       y       z     vdW  Elec       q    Type
REMARK                         _______ _______ _______ _____ _____    ______ ____
ROOT
ATOM      1  C   UNL     1       2.507  -2.501  -4.386  0.00  0.00    +0.145 C 
ATOM      2  C   UNL     1       3.992  -2.450  -4.229  0.00  0.00    +0.072 A 
ATOM      3  C   UNL     1       4.872  -2.994  -3.190  0.00  0.00    +0.199 A 
ATOM      4  O   UNL     1       4.489  -3.763  -2.326  0.00  0.00    -0.287 OA
ATOM      5  C   UNL     1       6.275  -2.518  -3.291  0.00  0.00    +0.066 A 
ATOM      6  C   UNL     1       7.186  -2.784  -2.268  0.00  0.00    +0.035 A 
ATOM      7  C   UNL     1       8.482  -2.330  -2.376  0.00  0.00    +0.042 A 
ATOM      8  C   UNL     1       8.877  -1.612  -3.498  0.00  0.00    +0.023 A 
ATOM      9  C   UNL     1       7.987  -1.346  -4.513  0.00  0.00    +0.048 A 
ATOM     10  C   UNL     1       6.670  -1.797  -4.429  0.00  0.00    +0.140 A 
ATOM     11  O   UNL     1       5.819  -1.530  -5.447  0.00  0.00    -0.450 OA
ATOM     12  C   UNL     1       4.499  -1.751  -5.287  0.00  0.00    +0.199 A 
ATOM     13  C   UNL     1       3.377  -1.329  -6.144  0.00  0.00    +0.283 C 
ATOM     14  O   UNL     1       3.487  -0.685  -7.167  0.00  0.00    -0.267 OA
ATOM     15  N   UNL     1       2.208  -1.765  -5.626  0.00  0.00    -0.280 N 
ATOM     16 CL   UNL     1       9.623  -2.655  -1.109  0.00  0.00    -0.084 Cl
ENDROOT
BRANCH   1  20
ATOM     17  C   UNL     1       0.606  -0.608  -1.056  0.00  0.00    +0.162 A 
ATOM     18  C   UNL     1       1.173   0.159  -2.062  0.00  0.00    +0.050 A 
ATOM     19  C   UNL     1       1.787  -0.456  -3.137  0.00  0.00    +0.009 A 
ATOM     20  C   UNL     1       1.837  -1.836  -3.212  0.00  0.00    -0.019 A 
ATOM     21  C   UNL     1       1.273  -2.606  -2.212  0.00  0.00    +0.055 A 
ATOM     22  C   UNL     1       0.662  -1.996  -1.129  0.00  0.00    +0.162 A 
BRANCH  17  24
ATOM     23  C   UNL     1      -0.017   1.425   0.010  0.00  0.00    +0.277 C 
ATOM     24  O   UNL     1       0.002  -0.004   0.002  0.00  0.00    -0.491 OA
ENDBRANCH  17  24
BRANCH  22  25
ATOM     25  O   UNL     1       0.112  -2.753  -0.142  0.00  0.00    -0.491 OA
ATOM     26  C   UNL     1       0.206  -4.171  -0.283  0.00  0.00    +0.277 C 
ENDBRANCH  22  25
ENDBRANCH   1  20
BRANCH  15  27
ATOM     27  C   UNL     1       0.877  -1.545  -6.196  0.00  0.00    +0.136 C 
BRANCH  27  28
ATOM     28  C   UNL     1       0.301  -0.265  -5.648  0.00  0.00    -0.016 C 
ATOM     29  C   UNL     1      -0.109   0.672  -6.466  0.00  0.00    +0.005 C 
ENDBRANCH  27  28
ENDBRANCH  15  27
TORSDOF 5
