REMARK  Name = ZINC00872616
REMARK  5 active torsions:
REMARK  status: ('A' for Active; 'I' for Inactive)
REMARK    1  A    between atoms: C_1  and  O_2
REMARK    2  A    between atoms: O_2  and  C_3
REMARK    3  A    between atoms: C_8  and  C_14
REMARK    4  A    between atoms: C_16  and  C_27
REMARK    5  A    between atoms: C_17  and  N_26
REMARK                            x       y       z     vdW  Elec       q    Type
REMARK                         _______ _______ _______ _____ _____    ______ ____
ROOT
ATOM      1  C   UNL     1       1.175  -2.227  -0.020  0.00  0.00    +0.104 C 
ATOM      2  C   UNL     1       1.851  -2.731  -1.264  0.00  0.00    +0.098 C 
ATOM      3  C   UNL     1       3.120  -3.205  -1.211  0.00  0.00    +0.198 C 
ATOM      4  O   UNL     1       3.807  -3.234  -0.059  0.00  0.00    -0.445 OA
ATOM      5  C   UNL     1       3.150  -3.212   1.115  0.00  0.00    +0.115 C 
ATOM      6  C   UNL     1       1.891  -2.745   1.204  0.00  0.00    +0.046 C 
ATOM      7  C   UNL     1       1.202  -2.724   2.433  0.00  0.00    +0.163 C 
ATOM      8  O   UNL     1       0.074  -2.277   2.477  0.00  0.00    -0.292 OA
ATOM      9  C   UNL     1       1.840  -3.247   3.692  0.00  0.00    +0.080 C 
ATOM     10  C   UNL     1       2.859  -4.329   3.317  0.00  0.00    +0.016 C 
ATOM     11  C   UNL     1       3.870  -3.725   2.340  0.00  0.00    +0.075 C 
ENDROOT
BRANCH   1  17
ATOM     12  C   UNL     1       2.265   4.122   0.002  0.00  0.00    +0.122 A 
ATOM     13  C   UNL     1       3.496   3.459  -0.014  0.00  0.00    +0.046 A 
ATOM     14  C   UNL     1       3.557   2.101  -0.021  0.00  0.00    +0.013 A 
ATOM     15  C   UNL     1       2.368   1.351  -0.013  0.00  0.00    +0.001 A 
ATOM     16  C   UNL     1       2.391  -0.056  -0.021  0.00  0.00    +0.017 A 
ATOM     17  C   UNL     1       1.198  -0.721  -0.013  0.00  0.00    +0.003 A 
ATOM     18  C   UNL     1       0.002  -0.004   0.002  0.00  0.00    +0.134 A 
ATOM     19  N   UNL     1      -0.016   1.308   0.009  0.00  0.00    -0.235 NA
ATOM     20  C   UNL     1       1.118   2.018   0.002  0.00  0.00    +0.076 A 
ATOM     21  C   UNL     1       1.091   3.422   0.009  0.00  0.00    +0.074 A 
ATOM     22 CL   UNL     1      -1.502  -0.870   0.012  0.00  0.00    -0.062 Cl
BRANCH  12  24
ATOM     23  C   UNL     1       3.493   6.157   0.000  0.00  0.00    +0.277 C 
ATOM     24  O   UNL     1       2.235   5.480   0.009  0.00  0.00    -0.495 OA
ENDBRANCH  12  24
ENDBRANCH   1  17
BRANCH   3  25
ATOM     25  N   UNL     1       3.714  -3.664  -2.360  0.00  0.00    -0.328 N 
ATOM     26  H   UNL     1       4.621  -4.005  -2.334  0.00  0.00    +0.145 HD
ATOM     27  H   UNL     1       3.226  -3.647  -3.198  0.00  0.00    +0.145 HD
ENDBRANCH   3  25
BRANCH   2  28
ATOM     28  C   UNL     1       1.151  -2.710  -2.513  0.00  0.00    +0.101 C 
ATOM     29  N   UNL     1       0.595  -2.693  -3.504  0.00  0.00    -0.191 NA
ENDBRANCH   2  28
TORSDOF 4
