REMARK  Name = ZINC22694888
REMARK  10 active torsions:
REMARK  status: ('A' for Active; 'I' for Inactive)
REMARK    1  A    between atoms: C_1  and  C_2
REMARK    2  A    between atoms: C_2  and  C_3
REMARK    3  A    between atoms: C_2  and  C_4
REMARK    4  A    between atoms: C_4  and  C_6
REMARK    5  A    between atoms: C_4  and  N_20
REMARK    6  A    between atoms: N_8  and  C_9
REMARK    7  A    between atoms: C_9  and  C_10
REMARK    8  A    between atoms: C_10  and  C_11
REMARK    9  A    between atoms: N_20  and  S_21
REMARK   10  A    between atoms: S_21  and  C_24
REMARK                            x       y       z     vdW  Elec       q    Type
REMARK                         _______ _______ _______ _____ _____    ______ ____
ROOT
ATOM      1  C   UNL     1       1.206   1.861   0.076  0.00  0.00    +0.165 C 
ENDROOT
BRANCH   1   2
ATOM      2  C   UNL     1      -0.044   1.235   0.639  0.00  0.00    +0.232 C 
ATOM      3  O   UNL     1      -0.096   0.036   0.814  0.00  0.00    -0.274 OA
ATOM      4  N   UNL     1      -1.106   2.007   0.944  0.00  0.00    -0.314 N 
ATOM      5  H   UNL     1      -1.091   3.081   0.706  0.00  0.00    +0.149 HD
BRANCH   4   6
ATOM      6  C   UNL     1      -2.279   1.417   1.592  0.00  0.00    +0.112 C 
BRANCH   6   7
ATOM      7  C   UNL     1      -3.333   2.501   1.826  0.00  0.00    +0.095 C 
BRANCH   7   8
ATOM      8  C   UNL     1      -4.540   1.893   2.493  0.00  0.00    +0.139 A 
ATOM      9  N   UNL     1      -4.739   1.786   3.781  0.00  0.00    -0.134 NA
ATOM     10  N   UNL     1      -5.871   1.218   4.012  0.00  0.00    -0.129 NA
ATOM     11  C   UNL     1      -6.462   0.930   2.863  0.00  0.00    +0.161 A 
ATOM     12  N   UNL     1      -5.623   1.361   1.865  0.00  0.00    -0.286 N 
ATOM     13  C   UNL     1      -5.964   1.193   0.555  0.00  0.00    +0.094 A 
ATOM     14  C   UNL     1      -7.135   0.611   0.221  0.00  0.00    +0.018 A 
ATOM     15  C   UNL     1      -8.017   0.164   1.220  0.00  0.00    +0.005 A 
ATOM     16  C   UNL     1      -7.687   0.320   2.530  0.00  0.00    +0.048 A 
ENDBRANCH   7   8
ENDBRANCH   6   7
ENDBRANCH   4   6
ENDBRANCH   1   2
BRANCH   1  18
ATOM     17  C   UNL     1       2.196   2.980  -1.927  0.00  0.00    +0.009 C 
ATOM     18  C   UNL     1       0.975   2.228  -1.392  0.00  0.00    +0.010 C 
ATOM     19  C   UNL     1       0.763   0.953  -2.209  0.00  0.00    +0.009 C 
ENDBRANCH   1  18
BRANCH   1  20
ATOM     20  N   UNL     1       2.315   0.909   0.172  0.00  0.00    -0.178 NA
ATOM     21  H   UNL     1       2.224  -0.089  -0.281  0.00  0.00    +0.149 HD
BRANCH  20  22
ATOM     22  S   UNL     1       3.600   1.233   1.166  0.00  0.00    +0.059 S 
ATOM     23  O   UNL     1       4.447   0.092   1.119  0.00  0.00    -0.153 OA
ATOM     24  O   UNL     1       4.056   2.535   0.828  0.00  0.00    -0.153 OA
BRANCH  22  25
ATOM     25  C   UNL     1       2.975   1.329   2.811  0.00  0.00    +0.106 A 
ATOM     26  C   UNL     1       2.547   2.557   3.312  0.00  0.00    +0.029 A 
ATOM     27  C   UNL     1       2.055   2.665   4.576  0.00  0.00    +0.010 A 
ATOM     28  C   UNL     1       1.986   1.525   5.395  0.00  0.00    -0.018 A 
ATOM     29  C   UNL     1       1.490   1.598   6.707  0.00  0.00    +0.008 A 
ATOM     30  C   UNL     1       1.438   0.473   7.472  0.00  0.00    +0.001 A 
ATOM     31  C   UNL     1       1.871  -0.754   6.973  0.00  0.00    +0.001 A 
ATOM     32  C   UNL     1       2.358  -0.863   5.706  0.00  0.00    +0.008 A 
ATOM     33  C   UNL     1       2.426   0.277   4.887  0.00  0.00    -0.016 A 
ATOM     34  C   UNL     1       2.923   0.204   3.575  0.00  0.00    +0.037 A 
ENDBRANCH  22  25
ENDBRANCH  20  22
ENDBRANCH   1  20
TORSDOF 8
