REMARK  Name = ZINC39006862
REMARK  6 active torsions:
REMARK  status: ('A' for Active; 'I' for Inactive)
REMARK    1  A    between atoms: C_1  and  C_2
REMARK    2  A    between atoms: C_7  and  C_14
REMARK    3  A    between atoms: C_14  and  N_15
REMARK    4  A    between atoms: N_15  and  C_16
REMARK    5  A    between atoms: C_16  and  C_17
REMARK    6  A    between atoms: C_22  and  C_24
REMARK                            x       y       z     vdW  Elec       q    Type
REMARK                         _______ _______ _______ _____ _____    ______ ____
ROOT
ATOM      1  C   UNL     1      -1.221  -5.802   1.290  0.00  0.00    +0.125 C 
ENDROOT
BRANCH   1   8
ATOM      2  C   UNL     1      -0.025   1.519   0.202  0.00  0.00    +0.044 C 
ATOM      3  C   UNL     1      -0.046   0.014   0.127  0.00  0.00    -0.049 A 
ATOM      4  C   UNL     1      -0.177  -0.591  -1.123  0.00  0.00    +0.004 A 
ATOM      5  C   UNL     1      -0.203  -1.943  -1.255  0.00  0.00    +0.010 A 
ATOM      6  C   UNL     1      -0.089  -2.771  -0.054  0.00  0.00    -0.007 A 
ATOM      7  C   UNL     1      -0.109  -4.132  -0.138  0.00  0.00    -0.003 C 
ATOM      8  C   UNL     1       0.015  -4.910   1.157  0.00  0.00    +0.116 C 
ATOM      9  C   UNL     1       0.152  -4.114   2.436  0.00  0.00    +0.226 C 
ATOM     10  O   UNL     1       0.255  -4.688   3.504  0.00  0.00    -0.275 OA
ATOM     11  N   UNL     1       0.158  -2.793   2.389  0.00  0.00    -0.284 N 
ATOM     12  C   UNL     1       0.049  -2.104   1.253  0.00  0.00    +0.041 A 
ATOM     13  C   UNL     1       0.069  -0.698   1.278  0.00  0.00    +0.027 A 
ATOM     14  H   UNL     1       0.247  -2.301   3.220  0.00  0.00    +0.155 HD
ENDBRANCH   1   8
BRANCH   1  15
ATOM     15  N   UNL     1      -1.073  -6.671   2.460  0.00  0.00    -0.289 N 
ATOM     16  C   UNL     1      -0.357  -7.808   2.368  0.00  0.00    +0.254 C 
ATOM     17  O   UNL     1      -0.175  -8.494   3.357  0.00  0.00    -0.269 OA
BRANCH  16  18
ATOM     18  C   UNL     1       0.204  -8.220   1.078  0.00  0.00    +0.074 A 
ATOM     19  C   UNL     1       0.855  -9.397   0.743  0.00  0.00    +0.021 A 
ATOM     20  C   UNL     1       1.273  -9.498  -0.562  0.00  0.00    +0.008 A 
ATOM     21  C   UNL     1       1.029  -8.471  -1.414  0.00  0.00    +0.046 A 
ATOM     22  S   UNL     1       0.219  -7.339  -0.472  0.00  0.00    -0.092 S 
ENDBRANCH  16  18
BRANCH  15  23
ATOM     23  C   UNL     1      -1.705  -6.303   3.730  0.00  0.00    +0.182 C 
BRANCH  23  24
ATOM     24  C   UNL     1      -3.039  -6.992   3.845  0.00  0.00    +0.122 A 
ATOM     25  C   UNL     1      -3.256  -8.201   4.396  0.00  0.00    +0.046 A 
ATOM     26  C   UNL     1      -4.643  -8.456   4.292  0.00  0.00    +0.041 A 
ATOM     27  C   UNL     1      -5.191  -7.388   3.685  0.00  0.00    +0.195 A 
ATOM     28  O   UNL     1      -4.216  -6.503   3.421  0.00  0.00    -0.466 OA
ENDBRANCH  23  24
ENDBRANCH  15  23
ENDBRANCH   1  15
TORSDOF 5
