REMARK  Name = ZINC40428569
REMARK  8 active torsions:
REMARK  status: ('A' for Active; 'I' for Inactive)
REMARK    1  A    between atoms: C_1  and  C_2
REMARK    2  A    between atoms: C_4  and  O_10
REMARK    3  A    between atoms: C_5  and  N_9
REMARK    4  A    between atoms: O_10  and  C_11
REMARK    5  A    between atoms: C_13  and  C_24
REMARK    6  A    between atoms: N_15  and  C_16
REMARK    7  A    between atoms: C_24  and  C_25
REMARK    8  A    between atoms: C_24  and  C_26
REMARK                            x       y       z     vdW  Elec       q    Type
REMARK                         _______ _______ _______ _____ _____    ______ ____
ROOT
ATOM      1  C   UNL     1       0.215  -1.861  -3.523  0.00  0.00    +0.226 A 
ATOM      2  C   UNL     1       0.012  -2.313  -4.789  0.00  0.00    +0.093 A 
ATOM      3  C   UNL     1       0.063  -1.213  -5.651  0.00  0.00    +0.070 A 
ATOM      4  N   UNL     1       0.287  -0.139  -4.939  0.00  0.00    -0.168 NA
ATOM      5  N   UNL     1       0.382  -0.513  -3.592  0.00  0.00    -0.200 N 
ENDROOT
BRANCH   5   6
ATOM      6  C   UNL     1       0.611   0.348  -2.510  0.00  0.00    +0.072 A 
ATOM      7  C   UNL     1      -0.066   0.155  -1.313  0.00  0.00    +0.048 A 
ATOM      8  C   UNL     1       0.162   1.005  -0.247  0.00  0.00    +0.044 A 
ATOM      9  C   UNL     1       1.064   2.047  -0.372  0.00  0.00    +0.040 A 
ATOM     10  C   UNL     1       1.739   2.242  -1.565  0.00  0.00    +0.044 A 
ATOM     11  C   UNL     1       1.518   1.391  -2.632  0.00  0.00    +0.048 A 
ATOM     12 CL   UNL     1       2.868   3.551  -1.718  0.00  0.00    -0.083 Cl
ATOM     13 CL   UNL     1      -0.683   0.765   1.250  0.00  0.00    -0.083 Cl
ENDBRANCH   5   6
BRANCH   3  14
ATOM     14  C   UNL     1      -0.111  -1.258  -7.148  0.00  0.00    +0.033 C 
ATOM     15  C   UNL     1       1.230  -1.588  -7.807  0.00  0.00    +0.014 C 
ATOM     16  C   UNL     1      -1.135  -2.335  -7.510  0.00  0.00    +0.014 C 
ENDBRANCH   3  14
BRANCH   1  17
ATOM     17  O   UNL     1       0.240  -2.616  -2.395  0.00  0.00    -0.418 OA
BRANCH  17  21
ATOM     18  C   UNL     1       0.217  -6.426  -5.255  0.00  0.00    +0.088 C 
ATOM     19  C   UNL     1       0.166  -5.834  -3.871  0.00  0.00    +0.132 A 
ATOM     20  N   UNL     1       0.223  -4.524  -3.733  0.00  0.00    -0.196 NA
ATOM     21  C   UNL     1       0.181  -3.964  -2.530  0.00  0.00    +0.248 A 
ATOM     22  C   UNL     1       0.075  -4.787  -1.404  0.00  0.00    +0.125 A 
ATOM     23  C   UNL     1       0.018  -6.162  -1.598  0.00  0.00    +0.157 A 
ATOM     24  N   UNL     1       0.061  -6.640  -2.834  0.00  0.00    -0.219 NA
ATOM     25 CL   UNL     1      -0.114  -7.238  -0.242  0.00  0.00    -0.060 Cl
BRANCH  22  26
ATOM     26  N   UNL     1       0.027  -4.240  -0.115  0.00  0.00    -0.351 N 
ATOM     27  H   UNL     1       0.068  -3.279   0.005  0.00  0.00    +0.143 HD
ATOM     28  H   UNL     1      -0.046  -4.823   0.656  0.00  0.00    +0.143 HD
ENDBRANCH  22  26
ENDBRANCH  17  21
ENDBRANCH   1  17
TORSDOF 5
