REMARK  Name = ZINC63541298
REMARK  9 active torsions:
REMARK  status: ('A' for Active; 'I' for Inactive)
REMARK    1  A    between atoms: C_1  and  C_2
REMARK    2  A    between atoms: C_5  and  N_9
REMARK    3  A    between atoms: C_7  and  C_8
REMARK    4  A    between atoms: C_10  and  C_12
REMARK    5  A    between atoms: C_12  and  S_13
REMARK    6  A    between atoms: S_13  and  C_14
REMARK    7  A    between atoms: N_25  and  C_26
REMARK    8  A    between atoms: C_26  and  C_27
REMARK    9  A    between atoms: C_27  and  C_28
REMARK                            x       y       z     vdW  Elec       q    Type
REMARK                         _______ _______ _______ _____ _____    ______ ____
ROOT
ATOM      1  C   UNL     1      -0.359  -8.743  -2.723  0.00  0.00    +0.223 C 
ATOM      2  N   UNL     1      -1.549  -9.088  -1.937  0.00  0.00    -0.300 N 
ATOM      3  C   UNL     1      -1.516  -8.916  -0.563  0.00  0.00    +0.151 A 
ATOM      4  C   UNL     1      -0.278  -9.039   0.094  0.00  0.00    +0.165 A 
ATOM      5  N   UNL     1      -0.214  -8.906   1.411  0.00  0.00    -0.246 NA
ATOM      6  C   UNL     1      -1.313  -8.645   2.095  0.00  0.00    +0.131 A 
ATOM      7  C   UNL     1      -2.531  -8.509   1.444  0.00  0.00    +0.132 A 
ATOM      8  N   UNL     1      -2.609  -8.647   0.131  0.00  0.00    -0.237 NA
ATOM      9  C   UNL     1       0.929  -9.301  -0.716  0.00  0.00    +0.270 C 
ATOM     10  O   UNL     1       1.984  -9.571  -0.176  0.00  0.00    -0.268 OA
ATOM     11  N   UNL     1       0.847  -9.236  -2.057  0.00  0.00    -0.268 N 
ATOM     12  H   UNL     1      -2.345  -9.431  -2.372  0.00  0.00    +0.150 HD
ENDROOT
BRANCH   1  13
ATOM     13  S   UNL     1      -0.255  -6.941  -2.895  0.00  0.00    -0.110 S 
BRANCH  13  14
ATOM     14  C   UNL     1      -0.134  -6.343  -1.187  0.00  0.00    +0.168 C 
BRANCH  14  16
ATOM     15  N   UNL     1       0.059  -4.170  -0.021  0.00  0.00    -0.285 N 
ATOM     16  C   UNL     1      -0.040  -4.839  -1.187  0.00  0.00    +0.227 C 
ATOM     17  O   UNL     1      -0.054  -4.230  -2.236  0.00  0.00    -0.275 OA
ATOM     18  H   UNL     1       0.147  -4.658   0.812  0.00  0.00    +0.155 HD
BRANCH  15  23
ATOM     19  C   UNL     1      -0.041   1.502   0.014  0.00  0.00    +0.044 C 
ATOM     20  C   UNL     1      -0.015  -0.004   0.004  0.00  0.00    -0.047 A 
ATOM     21  C   UNL     1      -0.752  -0.702  -0.935  0.00  0.00    +0.005 A 
ATOM     22  C   UNL     1      -0.730  -2.082  -0.946  0.00  0.00    +0.023 A 
ATOM     23  C   UNL     1       0.034  -2.771  -0.013  0.00  0.00    +0.034 A 
ATOM     24  C   UNL     1       0.773  -2.068   0.929  0.00  0.00    +0.027 A 
ATOM     25  C   UNL     1       0.751  -0.686   0.932  0.00  0.00    -0.046 A 
ATOM     26  C   UNL     1       1.557   0.078   1.950  0.00  0.00    +0.044 C 
ENDBRANCH  15  23
ENDBRANCH  14  16
ENDBRANCH  13  14
ENDBRANCH   1  13
BRANCH  11  27
ATOM     27  C   UNL     1       1.991  -9.668  -2.864  0.00  0.00    +0.115 C 
BRANCH  27  28
ATOM     28  C   UNL     1       2.918  -8.477  -3.112  0.00  0.00    +0.052 C 
BRANCH  28  29
ATOM     29  C   UNL     1       4.095  -8.920  -3.942  0.00  0.00    -0.040 C 
ATOM     30  C   UNL     1       4.222  -8.830  -5.286  0.00  0.00    -0.001 A 
ATOM     31  C   UNL     1       3.337  -8.312  -6.336  0.00  0.00    +0.010 A 
ATOM     32  C   UNL     1       3.749  -8.358  -7.623  0.00  0.00    +0.001 A 
ATOM     33  C   UNL     1       4.997  -8.887  -7.979  0.00  0.00    +0.002 A 
ATOM     34  C   UNL     1       5.865  -9.381  -7.071  0.00  0.00    +0.026 A 
ATOM     35  C   UNL     1       5.535  -9.383  -5.687  0.00  0.00    +0.043 A 
ATOM     36  N   UNL     1       6.194  -9.799  -4.633  0.00  0.00    -0.380 N 
ATOM     37  C   UNL     1       5.375  -9.551  -3.442  0.00  0.00    +0.144 C 
ATOM     38  H   UNL     1       7.078 -10.200  -4.640  0.00  0.00    +0.160 HD
ENDBRANCH  28  29
ENDBRANCH  27  28
ENDBRANCH  11  27
TORSDOF 7
