REMARK  Name = ZINC39413456
REMARK  12 active torsions:
REMARK  status: ('A' for Active; 'I' for Inactive)
REMARK    1  A    between atoms: C_1  and  C_2
REMARK    2  A    between atoms: C_2  and  C_3
REMARK    3  A    between atoms: C_6  and  C_9
REMARK    4  A    between atoms: C_9  and  N_10
REMARK    5  A    between atoms: N_10  and  C_11
REMARK    6  A    between atoms: N_10  and  C_12
REMARK    7  A    between atoms: C_12  and  C_13
REMARK    8  A    between atoms: C_18  and  C_19
REMARK    9  A    between atoms: C_22  and  O_27
REMARK   10  A    between atoms: C_24  and  O_25
REMARK   11  A    between atoms: O_25  and  C_26
REMARK   12  A    between atoms: O_27  and  C_28
REMARK                            x       y       z     vdW  Elec       q    Type
REMARK                         _______ _______ _______ _____ _____    ______ ____
ROOT
ATOM      1  C   UNL     1      -8.755  -0.154  -0.027  0.00  0.00    +0.067 C 
ATOM      2  C   UNL     1      -8.518   0.902   1.034  0.00  0.00    +0.115 C 
ATOM      3  N   UNL     1      -9.638   1.034   1.668  0.00  0.00    -0.161 NA
ATOM      4  N   UNL     1     -10.631   0.194   1.175  0.00  0.00    -0.153 NA
ATOM      5  C   UNL     1     -10.207  -0.541   0.177  0.00  0.00    +0.081 C 
ENDROOT
BRANCH   5   6
ATOM      6  C   UNL     1     -10.974  -1.533  -0.587  0.00  0.00    +0.040 A 
ATOM      7  C   UNL     1     -10.366  -2.243  -1.629  0.00  0.00    +0.017 A 
ATOM      8  C   UNL     1     -11.089  -3.171  -2.341  0.00  0.00    +0.046 A 
ATOM      9  C   UNL     1     -12.425  -3.407  -2.031  0.00  0.00    +0.124 A 
ATOM     10  C   UNL     1     -13.039  -2.710  -1.000  0.00  0.00    +0.091 A 
ATOM     11  C   UNL     1     -12.322  -1.778  -0.271  0.00  0.00    +0.132 A 
BRANCH  11  12
ATOM     12  O   UNL     1     -12.918  -1.099   0.741  0.00  0.00    -0.494 OA
ATOM     13  C   UNL     1     -14.290  -1.401   1.004  0.00  0.00    +0.277 C 
ENDBRANCH  11  12
BRANCH   9  14
ATOM     14  O   UNL     1     -13.131  -4.325  -2.740  0.00  0.00    -0.495 OA
ATOM     15  C   UNL     1     -12.440  -5.007  -3.788  0.00  0.00    +0.277 C 
ENDBRANCH   9  14
ENDBRANCH   5   6
BRANCH   1  16
ATOM     16  C   UNL     1      -7.840  -1.359   0.198  0.00  0.00    -0.063 C 
BRANCH  16  17
ATOM     17  N   UNL     1      -6.450  -0.978  -0.089  0.00  0.00    +0.381 N 
ATOM     18  C   UNL     1      -5.555  -2.086   0.268  0.00  0.00    -0.096 C 
ATOM     19  H   UNL     1      -6.207  -0.161   0.452  0.00  0.00    -0.082 HD
BRANCH  17  20
ATOM     20  C   UNL     1      -6.310  -0.677  -1.520  0.00  0.00    -0.043 C 
BRANCH  20  24
ATOM     21  C   UNL     1      -2.365   0.765  -2.296  0.00  0.00    -0.048 A 
ATOM     22  C   UNL     1      -2.633  -0.589  -2.369  0.00  0.00    +0.004 A 
ATOM     23  C   UNL     1      -3.909  -1.056  -2.118  0.00  0.00    +0.002 A 
ATOM     24  C   UNL     1      -4.918  -0.168  -1.793  0.00  0.00    -0.064 A 
ATOM     25  C   UNL     1      -4.650   1.186  -1.719  0.00  0.00    +0.002 A 
ATOM     26  C   UNL     1      -3.372   1.652  -1.966  0.00  0.00    +0.004 A 
BRANCH  21  28
ATOM     27  C   UNL     1      -0.173   1.299  -1.265  0.00  0.00    +0.009 C 
ATOM     28  C   UNL     1      -0.973   1.274  -2.569  0.00  0.00    +0.032 C 
ENDBRANCH  21  28
ENDBRANCH  20  24
ENDBRANCH  17  20
ENDBRANCH  16  17
ENDBRANCH   1  16
TORSDOF 8
