REMARK  Name = ZINC38026343
REMARK  4 active torsions:
REMARK  status: ('A' for Active; 'I' for Inactive)
REMARK    1  A    between atoms: N_4  and  C_19
REMARK    2  A    between atoms: C_5  and  C_6
REMARK    3  A    between atoms: C_13  and  C_15
REMARK    4  A    between atoms: C_15  and  C_16
REMARK                            x       y       z     vdW  Elec       q    Type
REMARK                         _______ _______ _______ _____ _____    ______ ____
ROOT
ATOM      1  C   UNL     1      -1.316  -1.003  -0.536  0.00  0.00    +0.263 C 
ATOM      2  O   UNL     1      -2.404  -0.462  -0.612  0.00  0.00    -0.268 OA
ATOM      3  N   UNL     1      -1.238  -2.334  -0.340  0.00  0.00    -0.293 N 
ATOM      4  C   UNL     1       0.059  -2.979  -0.093  0.00  0.00    +0.108 C 
ATOM      5  C   UNL     1       0.240  -4.122  -1.097  0.00  0.00    +0.019 C 
ATOM      6  C   UNL     1      -0.960  -5.067  -1.010  0.00  0.00    +0.003 C 
ATOM      7  C   UNL     1      -2.239  -4.307  -1.369  0.00  0.00    +0.023 C 
ATOM      8  C   UNL     1      -2.449  -3.166  -0.362  0.00  0.00    +0.087 C 
ENDROOT
BRANCH   1  13
ATOM      9  C   UNL     1       1.136  -0.660  -1.095  0.00  0.00    +0.047 A 
ATOM     10  C   UNL     1       2.015   0.427  -1.054  0.00  0.00    +0.036 A 
ATOM     11  C   UNL     1       1.325   1.502  -0.603  0.00  0.00    +0.102 A 
ATOM     12  N   UNL     1       0.044   1.131  -0.359  0.00  0.00    -0.339 N 
ATOM     13  C   UNL     1      -0.090  -0.206  -0.658  0.00  0.00    +0.106 A 
ATOM     14 BR   UNL     1       3.842   0.400  -1.541  0.00  0.00    -0.049 Br
BRANCH  12  15
ATOM     15  C   UNL     1      -1.019   2.006   0.140  0.00  0.00    +0.088 C 
ATOM     16  C   UNL     1      -0.617   3.398   0.630  0.00  0.00    +0.027 C 
ATOM     17  C   UNL     1      -1.368   3.240  -0.694  0.00  0.00    +0.027 C 
ENDBRANCH  12  15
ENDBRANCH   1  13
BRANCH   8  18
ATOM     18  C   UNL     1      -3.647  -2.317  -0.789  0.00  0.00    +0.147 C 
BRANCH  18  19
ATOM     19  C   UNL     1      -4.102  -1.470   0.372  0.00  0.00    +0.358 C 
ATOM     20  O   UNL     1      -3.521  -1.539   1.441  0.00  0.00    -0.246 OA
ATOM     21  O   UNL     1      -5.050  -0.715   0.241  0.00  0.00    -0.246 OA
ENDBRANCH  18  19
ENDBRANCH   8  18
TORSDOF 4
