REMARK  Name = ZINC66122114
REMARK  7 active torsions:
REMARK  status: ('A' for Active; 'I' for Inactive)
REMARK    1  A    between atoms: C_1  and  C_2
REMARK    2  A    between atoms: C_2  and  C_4
REMARK    3  A    between atoms: C_2  and  N_12
REMARK    4  A    between atoms: N_12  and  C_13
REMARK    5  A    between atoms: C_13  and  N_15
REMARK    6  A    between atoms: N_15  and  N_16
REMARK    7  A    between atoms: C_17  and  C_19
REMARK                            x       y       z     vdW  Elec       q    Type
REMARK                         _______ _______ _______ _____ _____    ______ ____
ROOT
ATOM      1  C   UNL     1      -1.937  -0.708  -1.295  0.00  0.00    +0.147 C 
ATOM      2  S   UNL     1      -1.059  -0.356  -2.722  0.00  0.00    -0.017 S 
ENDROOT
BRANCH   1   3
ATOM      3  N   UNL     1      -1.368  -0.515  -0.088  0.00  0.00    -0.319 N 
ATOM      4  H   UNL     1      -1.866  -0.715   0.720  0.00  0.00    +0.148 HD
BRANCH   3   6
ATOM      5  C   UNL     1      -0.022   1.526  -0.018  0.00  0.00    +0.033 C 
ATOM      6  C   UNL     1       0.002  -0.004   0.002  0.00  0.00    +0.101 C 
BRANCH   6   7
ATOM      7  C   UNL     1       0.632  -0.480   1.286  0.00  0.00    -0.009 A 
ATOM      8  C   UNL     1      -0.162  -0.763   2.382  0.00  0.00    +0.008 A 
ATOM      9  C   UNL     1       0.415  -1.199   3.559  0.00  0.00    +0.020 A 
ATOM     10  C   UNL     1       1.788  -1.354   3.642  0.00  0.00    +0.042 A 
ATOM     11  C   UNL     1       2.582  -1.071   2.546  0.00  0.00    +0.040 A 
ATOM     12  C   UNL     1       2.004  -0.639   1.365  0.00  0.00    +0.047 A 
ATOM     13 CL   UNL     1       3.000  -0.290  -0.013  0.00  0.00    -0.083 Cl
ATOM     14 CL   UNL     1       2.512  -1.901   5.121  0.00  0.00    -0.083 Cl
ENDBRANCH   6   7
ENDBRANCH   3   6
ENDBRANCH   1   3
BRANCH   1  15
ATOM     15  N   UNL     1      -3.197  -1.178  -1.378  0.00  0.00    -0.246 N 
ATOM     16  H   UNL     1      -3.607  -1.317  -2.247  0.00  0.00    +0.172 HD
BRANCH  15  17
ATOM     17  N   UNL     1      -3.916  -1.466  -0.211  0.00  0.00    -0.231 N 
ATOM     18  C   UNL     1      -5.176  -1.936  -0.294  0.00  0.00    +0.262 C 
ATOM     19  O   UNL     1      -5.690  -2.110  -1.383  0.00  0.00    -0.269 OA
ATOM     20  H   UNL     1      -3.506  -1.327   0.658  0.00  0.00    +0.173 HD
BRANCH  18  21
ATOM     21  C   UNL     1      -5.933  -2.239   0.935  0.00  0.00    +0.054 A 
ATOM     22  C   UNL     1      -5.343  -2.033   2.205  0.00  0.00    +0.020 A 
ATOM     23  C   UNL     1      -6.063  -2.321   3.322  0.00  0.00    +0.071 A 
ATOM     24  C   UNL     1      -7.375  -2.815   3.192  0.00  0.00    +0.249 A 
ATOM     25  N   UNL     1      -7.916  -3.004   1.975  0.00  0.00    -0.328 N 
ATOM     26  C   UNL     1      -7.224  -2.721   0.856  0.00  0.00    +0.099 A 
ATOM     27  O   UNL     1      -8.025  -3.075   4.191  0.00  0.00    -0.268 OA
ATOM     28  H   UNL     1      -8.821  -3.345   1.903  0.00  0.00    +0.168 HD
ENDBRANCH  18  21
ENDBRANCH  15  17
ENDBRANCH   1  15
TORSDOF 6
