REMARK  Name = ZINC35099149
REMARK  9 active torsions:
REMARK  status: ('A' for Active; 'I' for Inactive)
REMARK    1  A    between atoms: C_1  and  C_2
REMARK    2  A    between atoms: N_8  and  C_9
REMARK    3  A    between atoms: C_9  and  C_10
REMARK    4  A    between atoms: C_10  and  C_12
REMARK    5  A    between atoms: C_10  and  O_35
REMARK    6  A    between atoms: C_12  and  N_13
REMARK    7  A    between atoms: C_21  and  C_22
REMARK    8  A    between atoms: C_22  and  C_23
REMARK    9  A    between atoms: C_22  and  C_29
REMARK                            x       y       z     vdW  Elec       q    Type
REMARK                         _______ _______ _______ _____ _____    ______ ____
ROOT
ATOM      1  N   UNL     1       0.384  -0.011   6.180  0.00  0.00    -0.324 N 
ATOM      2  C   UNL     1      -0.087  -1.004   7.016  0.00  0.00    +0.069 A 
ATOM      3  C   UNL     1      -1.099  -1.950   6.920  0.00  0.00    +0.028 A 
ATOM      4  C   UNL     1      -1.319  -2.823   7.963  0.00  0.00    +0.002 A 
ATOM      5  C   UNL     1      -0.537  -2.762   9.108  0.00  0.00    +0.002 A 
ATOM      6  C   UNL     1       0.463  -1.838   9.221  0.00  0.00    +0.030 A 
ATOM      7  C   UNL     1       0.705  -0.943   8.175  0.00  0.00    +0.089 A 
ATOM      8  N   UNL     1       1.599   0.062   7.990  0.00  0.00    -0.231 NA
ATOM      9  C   UNL     1       1.415   0.602   6.822  0.00  0.00    +0.123 A 
ENDROOT
BRANCH   1  10
ATOM     10  C   UNL     1      -0.127   0.316   4.847  0.00  0.00    +0.153 C 
BRANCH  10  11
ATOM     11  C   UNL     1       0.619  -0.510   3.797  0.00  0.00    +0.118 C 
BRANCH  11  12
ATOM     12  O   UNL     1       0.325  -1.896   3.985  0.00  0.00    -0.392 OA
ATOM     13  H   UNL     1      -0.614  -2.113   3.905  0.00  0.00    +0.210 HD
ENDBRANCH  11  12
BRANCH  11  14
ATOM     14  C   UNL     1       0.174  -0.079   2.398  0.00  0.00    -0.045 C 
BRANCH  14  21
ATOM     15  C   UNL     1       0.889   1.342   0.085  0.00  0.00    -0.013 C 
ATOM     16  C   UNL     1       0.717  -0.178   0.066  0.00  0.00    -0.072 C 
ATOM     17  C   UNL     1       1.662  -0.785  -0.974  0.00  0.00    -0.016 C 
ATOM     18  C   UNL     1       1.486  -2.306  -0.989  0.00  0.00    -0.003 C 
ATOM     19  C   UNL     1       1.742  -2.854   0.417  0.00  0.00    -0.019 C 
ATOM     20  C   UNL     1       0.795  -2.171   1.405  0.00  0.00    -0.078 C 
ATOM     21  N   UNL     1       1.030  -0.722   1.392  0.00  0.00    +0.383 N 
ATOM     22  H   UNL     1       1.998  -0.537   1.610  0.00  0.00    -0.081 HD
ENDBRANCH  14  21
ENDBRANCH  11  14
ENDBRANCH  10  11
ENDBRANCH   1  10
BRANCH   9  23
ATOM     23  C   UNL     1       2.223   1.744   6.261  0.00  0.00    +0.115 C 
BRANCH  23  24
ATOM     24  C   UNL     1       2.095   2.942   7.166  0.00  0.00    -0.033 A 
ATOM     25  C   UNL     1       2.359   2.819   8.518  0.00  0.00    +0.004 A 
ATOM     26  C   UNL     1       2.241   3.918   9.348  0.00  0.00    +0.000 A 
ATOM     27  C   UNL     1       1.860   5.140   8.827  0.00  0.00    +0.000 A 
ATOM     28  C   UNL     1       1.597   5.263   7.476  0.00  0.00    +0.000 A 
ATOM     29  C   UNL     1       1.719   4.166   6.644  0.00  0.00    +0.004 A 
ENDBRANCH  23  24
BRANCH  23  30
ATOM     30  C   UNL     1       3.671   1.337   6.169  0.00  0.00    -0.033 A 
ATOM     31  C   UNL     1       4.316   0.822   7.278  0.00  0.00    +0.004 A 
ATOM     32  C   UNL     1       5.644   0.449   7.193  0.00  0.00    +0.000 A 
ATOM     33  C   UNL     1       6.327   0.589   6.000  0.00  0.00    +0.000 A 
ATOM     34  C   UNL     1       5.682   1.103   4.891  0.00  0.00    +0.000 A 
ATOM     35  C   UNL     1       4.353   1.473   4.974  0.00  0.00    +0.004 A 
ENDBRANCH  23  30
ENDBRANCH   9  23
TORSDOF 8
