REMARK  Name = ZINC36541803
REMARK  11 active torsions:
REMARK  status: ('A' for Active; 'I' for Inactive)
REMARK    1  A    between atoms: C_5  and  N_7
REMARK    2  A    between atoms: N_7  and  C_8
REMARK    3  A    between atoms: C_8  and  C_10
REMARK    4  A    between atoms: C_8  and  C_19
REMARK    5  A    between atoms: C_11  and  O_18
REMARK    6  A    between atoms: C_13  and  O_17
REMARK    7  A    between atoms: C_15  and  O_16
REMARK    8  A    between atoms: N_21  and  C_22
REMARK    9  A    between atoms: C_28  and  C_30
REMARK   10  A    between atoms: C_30  and  C_31
REMARK   11  A    between atoms: C_31  and  C_32
REMARK                            x       y       z     vdW  Elec       q    Type
REMARK                         _______ _______ _______ _____ _____    ______ ____
ROOT
ATOM      1  C   UNL     1       1.101  -2.796  -1.256  0.00  0.00    +0.204 C 
ENDROOT
BRANCH   1   2
ATOM      2  C   UNL     1       2.193  -2.009  -1.934  0.00  0.00    +0.065 A 
ATOM      3  C   UNL     1       1.919  -1.301  -3.094  0.00  0.00    +0.129 A 
ATOM      4  C   UNL     1       2.924  -0.577  -3.718  0.00  0.00    +0.091 A 
ATOM      5  C   UNL     1       4.202  -0.560  -3.181  0.00  0.00    +0.124 A 
ATOM      6  C   UNL     1       4.476  -1.267  -2.019  0.00  0.00    +0.091 A 
ATOM      7  C   UNL     1       3.470  -1.988  -1.393  0.00  0.00    +0.129 A 
BRANCH   7   8
ATOM      8  O   UNL     1       3.737  -2.677  -0.253  0.00  0.00    -0.506 OA
ATOM      9  H   UNL     1       4.029  -3.586  -0.402  0.00  0.00    +0.292 HD
ENDBRANCH   7   8
BRANCH   5  10
ATOM     10  O   UNL     1       5.187   0.149  -3.792  0.00  0.00    -0.507 OA
ATOM     11  H   UNL     1       5.260   1.064  -3.488  0.00  0.00    +0.292 HD
ENDBRANCH   5  10
BRANCH   3  12
ATOM     12  O   UNL     1       0.667  -1.318  -3.621  0.00  0.00    -0.506 OA
ATOM     13  H   UNL     1       0.117  -0.569  -3.353  0.00  0.00    +0.292 HD
ENDBRANCH   3  12
ENDBRANCH   1   2
BRANCH   1  14
ATOM     14  C   UNL     1      -0.125  -2.811  -2.132  0.00  0.00    +0.239 C 
ATOM     15  O   UNL     1      -1.079  -2.117  -1.851  0.00  0.00    -0.273 OA
ATOM     16  N   UNL     1      -0.161  -3.596  -3.227  0.00  0.00    -0.311 N 
ATOM     17  H   UNL     1       0.572  -4.203  -3.413  0.00  0.00    +0.149 HD
BRANCH  16  18
ATOM     18  C   UNL     1      -1.307  -3.531  -4.138  0.00  0.00    +0.073 C 
ATOM     19  C   UNL     1      -2.419  -4.448  -3.624  0.00  0.00    +0.022 C 
ATOM     20  C   UNL     1      -3.616  -4.380  -4.574  0.00  0.00    +0.002 C 
ATOM     21  C   UNL     1      -3.185  -4.834  -5.971  0.00  0.00    +0.000 C 
ATOM     22  C   UNL     1      -2.073  -3.917  -6.484  0.00  0.00    +0.002 C 
ATOM     23  C   UNL     1      -0.876  -3.984  -5.534  0.00  0.00    +0.022 C 
ENDBRANCH  16  18
ENDBRANCH   1  14
BRANCH   1  24
ATOM     24  N   UNL     1       0.775  -2.173   0.029  0.00  0.00    -0.254 N 
ATOM     25  C   UNL     1       0.999  -2.841   1.178  0.00  0.00    +0.221 C 
ATOM     26  O   UNL     1       1.470  -3.958   1.148  0.00  0.00    -0.275 OA
BRANCH  24  31
ATOM     27  C   UNL     1      -1.677   0.567   0.056  0.00  0.00    +0.002 A 
ATOM     28  C   UNL     1      -0.842   1.667   0.131  0.00  0.00    +0.002 A 
ATOM     29  C   UNL     1       0.529   1.495   0.173  0.00  0.00    +0.022 A 
ATOM     30  C   UNL     1       1.069   0.223   0.139  0.00  0.00    +0.062 A 
ATOM     31  C   UNL     1       0.232  -0.883   0.064  0.00  0.00    +0.056 A 
ATOM     32  C   UNL     1      -1.144  -0.707   0.022  0.00  0.00    +0.025 A 
ATOM     33 CL   UNL     1       2.791   0.009   0.191  0.00  0.00    -0.082 Cl
ENDBRANCH  24  31
BRANCH  25  34
ATOM     34  C   UNL     1       0.664  -2.200   2.500  0.00  0.00    +0.096 C 
BRANCH  34  35
ATOM     35  C   UNL     1       1.012  -3.163   3.637  0.00  0.00    +0.013 C 
BRANCH  35  36
ATOM     36  C   UNL     1       0.671  -2.512   4.979  0.00  0.00    -0.011 C 
ATOM     37  C   UNL     1       1.567  -1.291   5.195  0.00  0.00    +0.003 C 
ATOM     38  C   UNL     1       1.227  -0.640   6.537  0.00  0.00    +0.000 C 
ATOM     39  C   UNL     1       1.458  -1.647   7.665  0.00  0.00    +0.000 C 
ATOM     40  C   UNL     1       0.562  -2.869   7.449  0.00  0.00    +0.000 C 
ATOM     41  C   UNL     1       0.902  -3.520   6.107  0.00  0.00    +0.003 C 
ENDBRANCH  35  36
ENDBRANCH  34  35
ENDBRANCH  25  34
ENDBRANCH   1  24
TORSDOF 11
