REMARK  Name = ZINC26682472
REMARK  10 active torsions:
REMARK  status: ('A' for Active; 'I' for Inactive)
REMARK    1  A    between atoms: C_1  and  C_2
REMARK    2  A    between atoms: C_2  and  C_4
REMARK    3  A    between atoms: C_2  and  S_17
REMARK    4  A    between atoms: C_4  and  C_6
REMARK    5  A    between atoms: C_9  and  N_12
REMARK    6  A    between atoms: N_12  and  S_13
REMARK    7  A    between atoms: S_13  and  C_16
REMARK    8  A    between atoms: S_17  and  C_18
REMARK    9  A    between atoms: N_23  and  C_24
REMARK   10  A    between atoms: C_24  and  C_25
REMARK                            x       y       z     vdW  Elec       q    Type
REMARK                         _______ _______ _______ _____ _____    ______ ____
ROOT
ATOM      1  C   UNL     1      -5.738   4.646   1.094  0.00  0.00    +0.028 C 
ATOM      2  C   UNL     1      -5.191   4.856  -0.319  0.00  0.00    +0.121 C 
ENDROOT
BRANCH   2   3
ATOM      3  C   UNL     1      -4.906   3.518  -0.952  0.00  0.00    +0.176 C 
ATOM      4  O   UNL     1      -5.737   2.995  -1.664  0.00  0.00    -0.291 OA
BRANCH   3   5
ATOM      5  C   UNL     1      -3.623   2.849  -0.707  0.00  0.00    +0.019 A 
ATOM      6  C   UNL     1      -3.356   1.605  -1.294  0.00  0.00    +0.013 A 
ATOM      7  C   UNL     1      -2.161   0.986  -1.063  0.00  0.00    +0.025 A 
ATOM      8  C   UNL     1      -1.208   1.590  -0.246  0.00  0.00    +0.048 A 
ATOM      9  C   UNL     1      -1.471   2.824   0.344  0.00  0.00    +0.025 A 
ATOM     10  C   UNL     1      -2.662   3.453   0.115  0.00  0.00    +0.013 A 
BRANCH   8  11
ATOM     11  N   UNL     1       0.006   0.956  -0.014  0.00  0.00    -0.221 N 
ATOM     12  H   UNL     1       0.029  -0.115   0.234  0.00  0.00    +0.173 HD
BRANCH  11  13
ATOM     13  S   UNL     1       1.419   1.814  -0.110  0.00  0.00    +0.040 S 
ATOM     14  O   UNL     1       1.248   2.898   0.793  0.00  0.00    -0.155 OA
ATOM     15  O   UNL     1       2.443   0.851   0.101  0.00  0.00    -0.155 OA
ATOM     16  C   UNL     1       1.478   2.426  -1.816  0.00  0.00    +0.218 C 
ENDBRANCH  11  13
ENDBRANCH   8  11
ENDBRANCH   3   5
ENDBRANCH   2   3
BRANCH   2  17
ATOM     17  S   UNL     1      -6.417   5.748  -1.316  0.00  0.00    -0.086 S 
BRANCH  17  18
ATOM     18  C   UNL     1      -6.530   7.326  -0.541  0.00  0.00    +0.161 A 
ATOM     19  N   UNL     1      -5.893   7.784   0.519  0.00  0.00    -0.133 NA
ATOM     20  N   UNL     1      -6.130   9.066   0.959  0.00  0.00    -0.125 NA
ATOM     21  C   UNL     1      -7.001   9.827   0.325  0.00  0.00    +0.183 A 
ATOM     22  S   UNL     1      -7.543   8.731  -0.978  0.00  0.00    -0.025 S 
ATOM     23  N   UNL     1      -7.393  11.132   0.598  0.00  0.00    -0.315 N 
ATOM     24  H   UNL     1      -8.141  11.627  -0.039  0.00  0.00    +0.148 HD
BRANCH  23  25
ATOM     25  C   UNL     1      -6.809  11.850   1.734  0.00  0.00    +0.178 C 
BRANCH  25  26
ATOM     26  C   UNL     1      -7.398  13.235   1.809  0.00  0.00    +0.122 A 
ATOM     27  C   UNL     1      -8.502  13.585   2.494  0.00  0.00    +0.046 A 
ATOM     28  C   UNL     1      -8.689  14.971   2.289  0.00  0.00    +0.041 A 
ATOM     29  C   UNL     1      -7.689  15.386   1.491  0.00  0.00    +0.195 A 
ATOM     30  O   UNL     1      -6.906  14.332   1.208  0.00  0.00    -0.466 OA
ENDBRANCH  25  26
ENDBRANCH  23  25
ENDBRANCH  17  18
ENDBRANCH   2  17
TORSDOF 8
