REMARK  Name = ZINC13138053
REMARK  9 active torsions:
REMARK  status: ('A' for Active; 'I' for Inactive)
REMARK    1  A    between atoms: C_1  and  C_2
REMARK    2  A    between atoms: C_5  and  S_8
REMARK    3  A    between atoms: S_8  and  N_11
REMARK    4  A    between atoms: N_11  and  C_12
REMARK    5  A    between atoms: C_12  and  C_13
REMARK    6  A    between atoms: C_13  and  C_15
REMARK    7  A    between atoms: C_13  and  N_64
REMARK    8  A    between atoms: C_23  and  C_26
REMARK    9  A    between atoms: C_26  and  C_27
REMARK                            x       y       z     vdW  Elec       q    Type
REMARK                         _______ _______ _______ _____ _____    ______ ____
ROOT
ATOM      1  C   UNL     1       2.286  -3.458  -3.744  0.00  0.00    -0.022 C 
ENDROOT
BRANCH   1   7
ATOM      2  C   UNL     1       3.554  -4.398  -1.908  0.00  0.00    -0.078 C 
ATOM      3  C   UNL     1       3.627  -5.575  -0.933  0.00  0.00    -0.015 C 
ATOM      4  C   UNL     1       3.889  -6.864  -1.717  0.00  0.00    -0.010 C 
ATOM      5  C   UNL     1       2.779  -7.058  -2.753  0.00  0.00    -0.015 C 
ATOM      6  C   UNL     1       2.731  -5.837  -3.675  0.00  0.00    -0.078 C 
ATOM      7  N   UNL     1       2.451  -4.633  -2.864  0.00  0.00    +0.385 N 
ATOM      8  H   UNL     1       1.581  -4.781  -2.338  0.00  0.00    -0.081 HD
BRANCH   4   9
ATOM      9  C   UNL     1       3.904  -8.055  -0.755  0.00  0.00    +0.038 C 
BRANCH   9  10
ATOM     10  C   UNL     1       5.072  -7.925   0.187  0.00  0.00    -0.047 A 
ATOM     11  C   UNL     1       6.293  -8.481  -0.145  0.00  0.00    +0.003 A 
ATOM     12  C   UNL     1       7.367  -8.358   0.718  0.00  0.00    +0.000 A 
ATOM     13  C   UNL     1       7.216  -7.687   1.917  0.00  0.00    +0.000 A 
ATOM     14  C   UNL     1       5.993  -7.134   2.251  0.00  0.00    +0.000 A 
ATOM     15  C   UNL     1       4.921  -7.254   1.387  0.00  0.00    +0.003 A 
ENDBRANCH   9  10
ENDBRANCH   4   9
ENDBRANCH   1   7
BRANCH   1  16
ATOM     16  C   UNL     1       3.575  -3.149  -4.462  0.00  0.00    -0.060 A 
ATOM     17  C   UNL     1       3.677  -3.366  -5.823  0.00  0.00    +0.002 A 
ATOM     18  C   UNL     1       4.858  -3.078  -6.481  0.00  0.00    +0.000 A 
ATOM     19  C   UNL     1       5.939  -2.582  -5.777  0.00  0.00    +0.000 A 
ATOM     20  C   UNL     1       5.838  -2.369  -4.415  0.00  0.00    +0.000 A 
ATOM     21  C   UNL     1       4.656  -2.653  -3.757  0.00  0.00    +0.002 A 
ENDBRANCH   1  16
BRANCH   1  22
ATOM     22  C   UNL     1       1.875  -2.256  -2.892  0.00  0.00    +0.095 C 
BRANCH  22  23
ATOM     23  N   UNL     1       0.689  -2.599  -2.103  0.00  0.00    -0.191 NA
ATOM     24  H   UNL     1       0.168  -3.385  -2.329  0.00  0.00    +0.148 HD
BRANCH  23  25
ATOM     25  S   UNL     1       0.239  -1.644  -0.828  0.00  0.00    +0.058 S 
ATOM     26  O   UNL     1       1.406  -1.435  -0.045  0.00  0.00    -0.153 OA
ATOM     27  O   UNL     1      -0.946  -2.216  -0.291  0.00  0.00    -0.153 OA
BRANCH  25  32
ATOM     28  C   UNL     1      -1.311   3.733  -3.083  0.00  0.00    +0.044 C 
ATOM     29  C   UNL     1      -0.924   2.390  -2.519  0.00  0.00    -0.050 A 
ATOM     30  C   UNL     1      -1.877   1.399  -2.380  0.00  0.00    +0.005 A 
ATOM     31  C   UNL     1      -1.522   0.167  -1.863  0.00  0.00    +0.029 A 
ATOM     32  C   UNL     1      -0.214  -0.074  -1.486  0.00  0.00    +0.105 A 
ATOM     33  C   UNL     1       0.739   0.918  -1.626  0.00  0.00    +0.029 A 
ATOM     34  C   UNL     1       0.384   2.150  -2.143  0.00  0.00    +0.005 A 
ENDBRANCH  25  32
ENDBRANCH  23  25
ENDBRANCH  22  23
ENDBRANCH   1  22
TORSDOF 8
