REMARK  Name = ZINC05119060
REMARK  8 active torsions:
REMARK  status: ('A' for Active; 'I' for Inactive)
REMARK    1  A    between atoms: C_1  and  C_2
REMARK    2  A    between atoms: C_4  and  N_21
REMARK    3  A    between atoms: C_7  and  N_8
REMARK    4  A    between atoms: N_8  and  C_9
REMARK    5  A    between atoms: C_9  and  C_11
REMARK    6  A    between atoms: C_9  and  N_15
REMARK    7  A    between atoms: N_18  and  C_19
REMARK    8  A    between atoms: N_18  and  C_20
REMARK                            x       y       z     vdW  Elec       q    Type
REMARK                         _______ _______ _______ _____ _____    ______ ____
ROOT
ATOM      1  N   UNL     1       1.238  -2.077  -0.021  0.00  0.00    -0.322 N 
ATOM      2  H   UNL     1       0.404  -2.573  -0.010  0.00  0.00    +0.148 HD
ENDROOT
BRANCH   1   9
ATOM      3  C   UNL     1      -1.283  -0.759  -0.021  0.00  0.00    +0.046 C 
ATOM      4  C   UNL     1       0.014   0.000   0.087  0.00  0.00    -0.027 A 
ATOM      5  C   UNL     1       0.003   1.378   0.191  0.00  0.00    +0.038 A 
ATOM      6  C   UNL     1       1.193   2.075   0.290  0.00  0.00    +0.127 A 
ATOM      7  C   UNL     1       2.398   1.396   0.287  0.00  0.00    +0.034 A 
ATOM      8  C   UNL     1       2.416   0.019   0.184  0.00  0.00    +0.025 A 
ATOM      9  C   UNL     1       1.222  -0.684   0.083  0.00  0.00    +0.032 A 
BRANCH   6  10
ATOM     10  N   UNL     1       1.177   3.551   0.401  0.00  0.00    +0.056 N 
ATOM     11  O   UNL     1       0.116   4.150   0.403  0.00  0.00    -0.126 OA
ATOM     12  O   UNL     1       2.224   4.166   0.488  0.00  0.00    -0.126 OA
ENDBRANCH   6  10
ENDBRANCH   1   9
BRANCH   1  13
ATOM     13  C   UNL     1       2.512  -2.788  -0.148  0.00  0.00    +0.211 C 
BRANCH  13  14
ATOM     14  N   UNL     1       2.834  -3.444   1.122  0.00  0.00    -0.277 N 
ATOM     15  C   UNL     1       3.787  -2.929   1.924  0.00  0.00    +0.303 C 
ATOM     16  O   UNL     1       4.379  -1.920   1.593  0.00  0.00    -0.253 OA
ATOM     17  N   UNL     1       4.082  -3.532   3.092  0.00  0.00    -0.292 N 
ATOM     18  C   UNL     1       5.118  -2.972   3.964  0.00  0.00    +0.133 C 
ATOM     19  C   UNL     1       3.368  -4.747   3.491  0.00  0.00    +0.133 C 
ATOM     20  H   UNL     1       2.361  -4.249   1.386  0.00  0.00    +0.152 HD
ENDBRANCH  13  14
BRANCH  13  21
ATOM     21  C   UNL     1       2.401  -3.842  -1.252  0.00  0.00    +0.225 C 
ATOM     22 CL   UNL     1       2.005  -3.035  -2.815  0.00  0.00    -0.080 Cl
ATOM     23 CL   UNL     1       3.969  -4.717  -1.408  0.00  0.00    -0.080 Cl
ATOM     24 CL   UNL     1       1.097  -5.015  -0.834  0.00  0.00    -0.080 Cl
ENDBRANCH  13  21
ENDBRANCH   1  13
TORSDOF 5
