REMARK  Name = ZINC39637366
REMARK  10 active torsions:
REMARK  status: ('A' for Active; 'I' for Inactive)
REMARK    1  A    between atoms: C_1  and  C_2
REMARK    2  A    between atoms: C_2  and  C_3
REMARK    3  A    between atoms: C_3  and  C_4
REMARK    4  A    between atoms: C_4  and  C_5
REMARK    5  A    between atoms: C_5  and  C_6
REMARK    6  A    between atoms: C_6  and  C_7
REMARK    7  A    between atoms: C_11  and  C_20
REMARK    8  A    between atoms: N_22  and  C_23
REMARK    9  A    between atoms: C_28  and  C_33
REMARK   10  A    between atoms: C_30  and  C_32
REMARK                            x       y       z     vdW  Elec       q    Type
REMARK                         _______ _______ _______ _____ _____    ______ ____
ROOT
ATOM      1  C   UNL     1       2.006  -4.613   3.489  0.00  0.00    +0.216 C 
ATOM      2  O   UNL     1       2.399  -3.752   4.247  0.00  0.00    -0.276 OA
ATOM      3  N   UNL     1       2.238  -5.912   3.767  0.00  0.00    -0.300 N 
ATOM      4  C   UNL     1       1.847  -7.095   2.966  0.00  0.00    +0.121 C 
ATOM      5  C   UNL     1       3.053  -8.055   3.071  0.00  0.00    +0.100 C 
ATOM      6  C   UNL     1       3.768  -7.646   4.370  0.00  0.00    -0.004 C 
ATOM      7  C   UNL     1       2.948  -6.478   4.939  0.00  0.00    +0.115 C 
ATOM      8  C   UNL     1       5.191  -7.186   4.069  0.00  0.00    -0.010 C 
ATOM      9  C   UNL     1       5.899  -6.839   5.382  0.00  0.00    -0.082 C 
ATOM     10  N   UNL     1       5.918  -8.019   6.256  0.00  0.00    +0.379 N 
ATOM     11  C   UNL     1       4.547  -8.398   6.616  0.00  0.00    -0.082 C 
ATOM     12  C   UNL     1       3.781  -8.811   5.355  0.00  0.00    -0.010 C 
ATOM     13  H   UNL     1       6.362  -8.786   5.774  0.00  0.00    -0.086 HD
ATOM     14  H   UNL     1       6.438  -7.806   7.094  0.00  0.00    -0.086 HD
ENDROOT
BRANCH   5  15
ATOM     15  C   UNL     1       3.970  -7.877   1.888  0.00  0.00    +0.218 C 
ATOM     16  O   UNL     1       4.055  -6.796   1.344  0.00  0.00    -0.275 OA
ATOM     17  N   UNL     1       4.694  -8.919   1.434  0.00  0.00    -0.312 N 
ATOM     18  H   UNL     1       4.625  -9.784   1.869  0.00  0.00    +0.149 HD
BRANCH  17  19
ATOM     19  C   UNL     1       5.584  -8.747   0.284  0.00  0.00    +0.076 C 
ATOM     20  C   UNL     1       4.787  -8.926  -1.010  0.00  0.00    +0.022 C 
ATOM     21  C   UNL     1       5.717  -8.746  -2.211  0.00  0.00    +0.002 C 
ATOM     22  C   UNL     1       6.835  -9.789  -2.152  0.00  0.00    +0.003 C 
ATOM     23  C   UNL     1       7.632  -9.610  -0.859  0.00  0.00    -0.009 C 
ATOM     24  C   UNL     1       6.702  -9.790   0.343  0.00  0.00    +0.009 C 
ATOM     25  C   UNL     1       6.092 -11.193   0.310  0.00  0.00    +0.009 C 
ATOM     26  C   UNL     1       8.749 -10.653  -0.799  0.00  0.00    +0.008 C 
ENDBRANCH  17  19
ENDBRANCH   5  15
BRANCH   1  27
ATOM     27  C   UNL     1       1.260  -4.232   2.237  0.00  0.00    +0.096 C 
BRANCH  27  28
ATOM     28  C   UNL     1       1.133  -2.709   2.163  0.00  0.00    +0.009 C 
BRANCH  28  29
ATOM     29  C   UNL     1       0.376  -2.322   0.891  0.00  0.00    +0.000 C 
BRANCH  29  30
ATOM     30  C   UNL     1       0.249  -0.799   0.817  0.00  0.00    -0.000 C 
BRANCH  30  32
ATOM     31  C   UNL     1      -0.635   1.111  -0.529  0.00  0.00    +0.004 C 
ATOM     32  C   UNL     1      -0.509  -0.411  -0.455  0.00  0.00    -0.003 C 
ENDBRANCH  30  32
ENDBRANCH  29  30
ENDBRANCH  28  29
ENDBRANCH  27  28
ENDBRANCH   1  27
TORSDOF 7
