REMARK  Name = ZINC40569735
REMARK  11 active torsions:
REMARK  status: ('A' for Active; 'I' for Inactive)
REMARK    1  A    between atoms: C_1  and  C_2
REMARK    2  A    between atoms: C_2  and  C_3
REMARK    3  A    between atoms: C_3  and  C_4
REMARK    4  A    between atoms: N_10  and  C_11
REMARK    5  A    between atoms: C_11  and  C_12
REMARK    6  A    between atoms: C_18  and  C_28
REMARK    7  A    between atoms: C_20  and  C_24
REMARK    8  A    between atoms: C_21  and  N_23
REMARK    9  A    between atoms: C_24  and  O_26
REMARK   10  A    between atoms: O_26  and  C_27
REMARK   11  A    between atoms: C_31  and  C_34
REMARK                            x       y       z     vdW  Elec       q    Type
REMARK                         _______ _______ _______ _____ _____    ______ ____
ROOT
ATOM      1  C   UNL     1      -1.256  -2.335  -0.275  0.00  0.00    +0.026 A 
ATOM      2  C   UNL     1      -1.567  -3.147   0.758  0.00  0.00    +0.068 A 
ATOM      3  C   UNL     1      -1.546  -4.546   0.579  0.00  0.00    +0.141 A 
ATOM      4  C   UNL     1      -1.205  -5.056  -0.656  0.00  0.00    +0.071 A 
ATOM      5  C   UNL     1      -0.891  -4.175  -1.698  0.00  0.00    +0.259 A 
ATOM      6  O   UNL     1      -0.589  -4.612  -2.797  0.00  0.00    -0.267 OA
ATOM      7  N   UNL     1      -0.927  -2.845  -1.490  0.00  0.00    -0.309 N 
ATOM      8  C   UNL     1      -1.169  -6.542  -0.891  0.00  0.00    +0.100 C 
ATOM      9  C   UNL     1      -1.908  -7.258   0.205  0.00  0.00    +0.105 C 
ATOM     10  C   UNL     1      -2.205  -6.636   1.375  0.00  0.00    +0.195 C 
ATOM     11  O   UNL     1      -1.855  -5.361   1.610  0.00  0.00    -0.441 OA
ENDROOT
BRANCH   8  12
ATOM     12  C   UNL     1       0.264  -7.009  -0.911  0.00  0.00    -0.035 A 
ATOM     13  C   UNL     1       1.065  -6.830   0.201  0.00  0.00    +0.005 A 
ATOM     14  C   UNL     1       2.379  -7.258   0.182  0.00  0.00    +0.012 A 
ATOM     15  C   UNL     1       2.892  -7.867  -0.948  0.00  0.00    +0.055 A 
ATOM     16  C   UNL     1       2.091  -8.046  -2.060  0.00  0.00    +0.012 A 
ATOM     17  C   UNL     1       0.775  -7.622  -2.040  0.00  0.00    +0.005 A 
BRANCH  15  18
ATOM     18  C   UNL     1       4.325  -8.333  -0.969  0.00  0.00    +0.417 C 
ATOM     19  F   UNL     1       4.392  -9.654  -0.513  0.00  0.00    -0.166 F 
ATOM     20  F   UNL     1       4.819  -8.265  -2.276  0.00  0.00    -0.166 F 
ATOM     21  F   UNL     1       5.094  -7.513  -0.137  0.00  0.00    -0.166 F 
ENDBRANCH  15  18
ENDBRANCH   8  12
BRANCH  10  22
ATOM     22  N   UNL     1      -2.881  -7.330   2.343  0.00  0.00    -0.329 N 
ATOM     23  H   UNL     1      -3.072  -8.273   2.220  0.00  0.00    +0.145 HD
ATOM     24  H   UNL     1      -3.168  -6.878   3.152  0.00  0.00    +0.145 HD
ENDBRANCH  10  22
BRANCH   9  25
ATOM     25  C   UNL     1      -2.298  -8.592   0.016  0.00  0.00    +0.341 C 
ATOM     26  O   UNL     1      -3.286  -8.849  -0.648  0.00  0.00    -0.245 OA
BRANCH  25  27
ATOM     27  O   UNL     1      -1.577  -9.591   0.569  0.00  0.00    -0.465 OA
ATOM     28  C   UNL     1      -2.032 -10.925   0.335  0.00  0.00    +0.280 C 
ENDBRANCH  25  27
ENDBRANCH   9  25
BRANCH   1  29
ATOM     29  C   UNL     1      -1.280  -0.841  -0.078  0.00  0.00    +0.053 C 
BRANCH  29  31
ATOM     30  C   UNL     1       0.107   1.165   0.468  0.00  0.00    +0.004 C 
ATOM     31  C   UNL     1       0.108  -0.361   0.353  0.00  0.00    +0.003 C 
ENDBRANCH  29  31
ENDBRANCH   1  29
BRANCH   7  32
ATOM     32  C   UNL     1      -0.602  -1.935  -2.591  0.00  0.00    +0.156 C 
BRANCH  32  33
ATOM     33  C   UNL     1      -1.887  -1.531  -3.316  0.00  0.00    +0.138 C 
ATOM     34  C   UNL     1      -1.558  -0.623  -4.528  0.00  0.00    +0.035 C 
ATOM     35  C   UNL     1      -2.798  -0.875  -5.430  0.00  0.00    +0.031 C 
ATOM     36  C   UNL     1      -3.119  -2.356  -5.139  0.00  0.00    +0.160 C 
ATOM     37  O   UNL     1      -2.529  -2.688  -3.875  0.00  0.00    -0.375 OA
ENDBRANCH  32  33
ENDBRANCH   7  32
TORSDOF 9
