REMARK  Name = ZINC38901642
REMARK  10 active torsions:
REMARK  status: ('A' for Active; 'I' for Inactive)
REMARK    1  A    between atoms: C_1  and  C_2
REMARK    2  A    between atoms: C_2  and  C_3
REMARK    3  A    between atoms: C_3  and  C_5
REMARK    4  A    between atoms: C_3  and  C_12
REMARK    5  A    between atoms: C_5  and  C_6
REMARK    6  A    between atoms: C_12  and  N_13
REMARK    7  A    between atoms: C_14  and  C_16
REMARK    8  A    between atoms: N_21  and  C_23
REMARK    9  A    between atoms: C_23  and  C_24
REMARK   10  A    between atoms: C_26  and  C_29
REMARK                            x       y       z     vdW  Elec       q    Type
REMARK                         _______ _______ _______ _____ _____    ______ ____
ROOT
ATOM      1  C   UNL     1      -2.245   3.475  -2.917  0.00  0.00    +0.058 C 
ATOM      2  C   UNL     1      -3.127   4.167  -1.874  0.00  0.00    +0.009 C 
ATOM      3  C   UNL     1      -3.087   5.679  -2.108  0.00  0.00    -0.018 C 
ATOM      4  C   UNL     1      -3.537   5.981  -3.540  0.00  0.00    -0.078 C 
ATOM      5  N   UNL     1      -2.638   5.313  -4.489  0.00  0.00    +0.386 N 
ATOM      6  C   UNL     1      -2.724   3.858  -4.319  0.00  0.00    -0.065 C 
ATOM      7  H   UNL     1      -1.690   5.614  -4.322  0.00  0.00    -0.081 HD
ENDROOT
BRANCH   1   9
ATOM      8  N   UNL     1      -1.968   1.413  -1.579  0.00  0.00    -0.315 N 
ATOM      9  C   UNL     1      -2.338   1.981  -2.744  0.00  0.00    +0.214 C 
ATOM     10  O   UNL     1      -2.746   1.289  -3.653  0.00  0.00    -0.276 OA
ATOM     11  H   UNL     1      -1.641   1.966  -0.852  0.00  0.00    +0.149 HD
BRANCH   8  12
ATOM     12  C   UNL     1      -2.058  -0.040  -1.411  0.00  0.00    +0.108 C 
BRANCH  12  13
ATOM     13  C   UNL     1      -1.459  -0.435  -0.060  0.00  0.00    +0.010 C 
BRANCH  13  15
ATOM     14  C   UNL     1       0.738  -0.863  -1.170  0.00  0.00    +0.004 C 
ATOM     15  C   UNL     1       0.034  -0.100  -0.047  0.00  0.00    +0.002 C 
ENDBRANCH  13  15
BRANCH  13  16
ATOM     16  C   UNL     1      -1.646  -1.937   0.161  0.00  0.00    +0.040 C 
BRANCH  16  17
ATOM     17  C   UNL     1      -1.167  -2.305   1.542  0.00  0.00    -0.047 A 
ATOM     18  C   UNL     1       0.151  -2.669   1.742  0.00  0.00    +0.003 A 
ATOM     19  C   UNL     1       0.591  -3.007   3.008  0.00  0.00    +0.000 A 
ATOM     20  C   UNL     1      -0.288  -2.979   4.075  0.00  0.00    +0.000 A 
ATOM     21  C   UNL     1      -1.606  -2.614   3.875  0.00  0.00    +0.000 A 
ATOM     22  C   UNL     1      -2.045  -2.273   2.610  0.00  0.00    +0.003 A 
ENDBRANCH  16  17
ENDBRANCH  13  16
ENDBRANCH  12  13
ENDBRANCH   8  12
ENDBRANCH   1   9
BRANCH   5  23
ATOM     23  C   UNL     1      -3.026   5.668  -5.861  0.00  0.00    +0.022 C 
BRANCH  23  24
ATOM     24  C   UNL     1      -2.811   7.144  -6.078  0.00  0.00    +0.211 A 
ATOM     25  N   UNL     1      -1.718   7.697  -6.521  0.00  0.00    -0.193 NA
ATOM     26  C   UNL     1      -1.873   9.031  -6.592  0.00  0.00    +0.202 A 
ATOM     27  N   UNL     1      -3.083   9.334  -6.189  0.00  0.00    -0.056 NA
ATOM     28  O   UNL     1      -3.714   8.107  -5.853  0.00  0.00    -0.340 OA
BRANCH  26  29
ATOM     29  C   UNL     1      -0.846   9.998  -7.051  0.00  0.00    +0.023 A 
ATOM     30  C   UNL     1       0.406   9.546  -7.462  0.00  0.00    +0.014 A 
ATOM     31  C   UNL     1       1.358  10.449  -7.888  0.00  0.00    +0.039 A 
ATOM     32  C   UNL     1       1.070  11.804  -7.909  0.00  0.00    +0.123 A 
ATOM     33  C   UNL     1      -0.173  12.258  -7.500  0.00  0.00    +0.039 A 
ATOM     34  C   UNL     1      -1.133  11.362  -7.078  0.00  0.00    +0.014 A 
ATOM     35  F   UNL     1       2.005  12.685  -8.327  0.00  0.00    -0.205 F 
ENDBRANCH  26  29
ENDBRANCH  23  24
ENDBRANCH   5  23
TORSDOF 9
