REMARK  Name = ZINC11872435
REMARK  10 active torsions:
REMARK  status: ('A' for Active; 'I' for Inactive)
REMARK    1  A    between atoms: C_1  and  C_2
REMARK    2  A    between atoms: C_2  and  C_3
REMARK    3  A    between atoms: C_3  and  N_49
REMARK    4  A    between atoms: C_9  and  C_13
REMARK    5  A    between atoms: C_13  and  C_15
REMARK    6  A    between atoms: C_13  and  N_18
REMARK    7  A    between atoms: C_15  and  C_16
REMARK    8  A    between atoms: C_15  and  C_17
REMARK    9  A    between atoms: N_18  and  S_19
REMARK   10  A    between atoms: S_19  and  C_22
REMARK                            x       y       z     vdW  Elec       q    Type
REMARK                         _______ _______ _______ _____ _____    ______ ____
ROOT
ATOM      1  C   UNL     1       1.693   2.259   2.186  0.00  0.00    -0.071 C 
ATOM      2  C   UNL     1       2.223   2.105   3.615  0.00  0.00    +0.058 C 
ATOM      3  C   UNL     1       1.638   3.199   4.471  0.00  0.00    +0.132 A 
ATOM      4  N   UNL     1       2.260   3.963   5.321  0.00  0.00    -0.134 NA
ATOM      5  N   UNL     1       1.416   4.761   5.878  0.00  0.00    -0.133 NA
ATOM      6  C   UNL     1       0.219   4.543   5.400  0.00  0.00    +0.152 A 
ATOM      7  N   UNL     1       0.331   3.557   4.484  0.00  0.00    -0.315 N 
ATOM      8  C   UNL     1      -0.725   2.989   3.647  0.00  0.00    +0.106 C 
ATOM      9  C   UNL     1      -0.359   1.547   3.283  0.00  0.00    -0.057 C 
ATOM     10  N   UNL     1       0.435   1.496   2.033  0.00  0.00    +0.381 N 
ATOM     11  H   UNL     1       0.666   0.517   1.828  0.00  0.00    -0.082 HD
ENDROOT
BRANCH  10  12
ATOM     12  C   UNL     1      -0.352   2.046   0.915  0.00  0.00    -0.079 C 
BRANCH  12  14
ATOM     13  C   UNL     1      -0.431   2.286  -1.570  0.00  0.00    +0.002 C 
ATOM     14  C   UNL     1       0.385   1.750  -0.392  0.00  0.00    -0.022 C 
ENDBRANCH  12  14
ENDBRANCH  10  12
BRANCH   6  15
ATOM     15  C   UNL     1      -1.047   5.258   5.796  0.00  0.00    +0.146 C 
BRANCH  15  16
ATOM     16  C   UNL     1      -1.507   4.758   7.167  0.00  0.00    +0.009 C 
ATOM     17  C   UNL     1      -2.738   5.551   7.611  0.00  0.00    +0.009 C 
ATOM     18  C   UNL     1      -1.863   3.273   7.075  0.00  0.00    +0.009 C 
ENDBRANCH  15  16
BRANCH  15  19
ATOM     19  N   UNL     1      -0.794   6.699   5.861  0.00  0.00    -0.184 NA
ATOM     20  H   UNL     1      -0.422   7.090   6.667  0.00  0.00    +0.148 HD
BRANCH  19  21
ATOM     21  S   UNL     1      -1.143   7.661   4.559  0.00  0.00    +0.027 S 
ATOM     22  O   UNL     1      -0.750   8.967   4.957  0.00  0.00    -0.158 OA
ATOM     23  O   UNL     1      -0.515   7.020   3.456  0.00  0.00    -0.158 OA
ATOM     24  C   UNL     1      -2.946   7.576   4.386  0.00  0.00    +0.214 C 
ENDBRANCH  19  21
ENDBRANCH  15  19
ENDBRANCH   6  15
TORSDOF 6
