REMARK  Name = ZINC59362915
REMARK  6 active torsions:
REMARK  status: ('A' for Active; 'I' for Inactive)
REMARK    1  A    between atoms: C_6  and  C_7
REMARK    2  A    between atoms: C_7  and  C_8
REMARK    3  A    between atoms: C_7  and  N_15
REMARK    4  A    between atoms: C_21  and  C_23
REMARK    5  A    between atoms: C_27  and  N_30
REMARK    6  A    between atoms: C_28  and  N_29
REMARK                            x       y       z     vdW  Elec       q    Type
REMARK                         _______ _______ _______ _____ _____    ______ ____
ROOT
ATOM      1  N   UNL     1      -0.677  -2.525   0.799  0.00  0.00    -0.289 NA
ATOM      2  C   UNL     1      -0.396  -1.940   2.116  0.00  0.00    +0.104 C 
ATOM      3  C   UNL     1      -0.253  -3.062   3.150  0.00  0.00    +0.123 C 
ATOM      4  N   UNL     1      -1.455  -3.908   3.089  0.00  0.00    -0.295 N 
ATOM      5  C   UNL     1      -1.879  -4.420   1.777  0.00  0.00    +0.123 C 
ATOM      6  C   UNL     1      -1.957  -3.245   0.798  0.00  0.00    +0.104 C 
ATOM      7  C   UNL     1      -2.148  -4.207   4.206  0.00  0.00    +0.249 C 
ATOM      8  O   UNL     1      -1.743  -3.835   5.290  0.00  0.00    -0.270 OA
ENDROOT
BRANCH   7   9
ATOM      9  C   UNL     1      -3.397  -4.984   4.112  0.00  0.00    +0.062 A 
ATOM     10  C   UNL     1      -3.415  -6.207   3.435  0.00  0.00    +0.053 A 
ATOM     11  C   UNL     1      -4.587  -6.929   3.351  0.00  0.00    +0.126 A 
ATOM     12  C   UNL     1      -5.750  -6.447   3.935  0.00  0.00    +0.073 A 
ATOM     13  C   UNL     1      -5.747  -5.241   4.606  0.00  0.00    +0.150 A 
ATOM     14  C   UNL     1      -4.574  -4.503   4.706  0.00  0.00    +0.068 A 
ATOM     15  F   UNL     1      -4.604  -8.111   2.697  0.00  0.00    -0.205 F 
BRANCH  14  16
ATOM     16  N   UNL     1      -4.567  -3.291   5.387  0.00  0.00    -0.356 N 
ATOM     17  H   UNL     1      -3.906  -2.616   5.169  0.00  0.00    +0.142 HD
ATOM     18  H   UNL     1      -5.224  -3.121   6.080  0.00  0.00    +0.142 HD
ENDBRANCH  14  16
BRANCH  13  19
ATOM     19  N   UNL     1      -6.993  -4.735   5.224  0.00  0.00    +0.058 N 
ATOM     20  O   UNL     1      -7.981  -5.431   5.248  0.00  0.00    -0.126 OA
ATOM     21  O   UNL     1      -7.023  -3.627   5.705  0.00  0.00    -0.126 OA
ENDBRANCH  13  19
ENDBRANCH   7   9
BRANCH   1  22
ATOM     22  C   UNL     1      -0.650  -1.497  -0.250  0.00  0.00    +0.117 C 
BRANCH  22  28
ATOM     23  C   UNL     1       0.727   0.587  -0.410  0.00  0.00    +0.008 A 
ATOM     24  C   UNL     1       1.942   1.245  -0.381  0.00  0.00    +0.038 A 
ATOM     25  C   UNL     1       3.109   0.533  -0.160  0.00  0.00    +0.123 A 
ATOM     26  C   UNL     1       3.057  -0.838   0.032  0.00  0.00    +0.038 A 
ATOM     27  C   UNL     1       1.840  -1.493   0.002  0.00  0.00    +0.008 A 
ATOM     28  C   UNL     1       0.676  -0.781  -0.219  0.00  0.00    -0.026 A 
ATOM     29  F   UNL     1       4.297   1.174  -0.132  0.00  0.00    -0.205 F 
ENDBRANCH  22  28
BRANCH  22  30
ATOM     30  C   UNL     1      -0.837  -2.148  -1.597  0.00  0.00    -0.026 A 
ATOM     31  C   UNL     1      -0.223  -3.356  -1.871  0.00  0.00    +0.008 A 
ATOM     32  C   UNL     1      -0.395  -3.954  -3.105  0.00  0.00    +0.038 A 
ATOM     33  C   UNL     1      -1.181  -3.343  -4.067  0.00  0.00    +0.123 A 
ATOM     34  C   UNL     1      -1.796  -2.133  -3.791  0.00  0.00    +0.038 A 
ATOM     35  C   UNL     1      -1.627  -1.539  -2.554  0.00  0.00    +0.008 A 
ATOM     36  F   UNL     1      -1.349  -3.927  -5.273  0.00  0.00    -0.205 F 
ENDBRANCH  22  30
ENDBRANCH   1  22
TORSDOF 6
