REMARK  Name = ZINC35965641
REMARK  10 active torsions:
REMARK  status: ('A' for Active; 'I' for Inactive)
REMARK    1  A    between atoms: C_1  and  C_2
REMARK    2  A    between atoms: C_6  and  C_8
REMARK    3  A    between atoms: N_13  and  C_16
REMARK    4  A    between atoms: C_16  and  C_18
REMARK    5  A    between atoms: C_16  and  C_25
REMARK    6  A    between atoms: C_18  and  C_19
REMARK    7  A    between atoms: N_27  and  C_28
REMARK    8  A    between atoms: C_28  and  C_29
REMARK    9  A    between atoms: N_35  and  C_39
REMARK   10  A    between atoms: C_39  and  C_40
REMARK                            x       y       z     vdW  Elec       q    Type
REMARK                         _______ _______ _______ _____ _____    ______ ____
ROOT
ATOM      1  C   UNL     1       0.054  -2.845   2.489  0.00  0.00    +0.142 C 
ATOM      2  C   UNL     1      -1.372  -3.237   2.818  0.00  0.00    +0.058 C 
ATOM      3  C   UNL     1      -1.641  -4.550   2.973  0.00  0.00    +0.043 C 
ATOM      4  C   UNL     1      -3.116  -4.647   3.292  0.00  0.00    +0.160 C 
ATOM      5  N   UNL     1      -3.596  -3.257   3.289  0.00  0.00    -0.280 N 
ATOM      6  C   UNL     1      -2.541  -2.472   3.007  0.00  0.00    +0.247 C 
ATOM      7  O   UNL     1      -2.589  -1.258   2.927  0.00  0.00    -0.270 OA
ATOM      8  N   UNL     1      -0.663  -5.493   2.837  0.00  0.00    -0.253 N 
ATOM      9  C   UNL     1       0.612  -5.203   2.547  0.00  0.00    +0.307 C 
ATOM     10  O   UNL     1       1.414  -6.111   2.446  0.00  0.00    -0.252 OA
ATOM     11  N   UNL     1       1.034  -3.937   2.364  0.00  0.00    -0.288 N 
ATOM     12  H   UNL     1       1.962  -3.749   2.153  0.00  0.00    +0.151 HD
ENDROOT
BRANCH   1  18
ATOM     13  C   UNL     1      -0.018   1.503   0.010  0.00  0.00    +0.044 C 
ATOM     14  C   UNL     1       0.002  -0.004   0.002  0.00  0.00    -0.050 A 
ATOM     15  C   UNL     1       0.006  -0.689  -1.199  0.00  0.00    +0.003 A 
ATOM     16  C   UNL     1       0.025  -2.071  -1.207  0.00  0.00    +0.001 A 
ATOM     17  C   UNL     1       0.040  -2.768  -0.013  0.00  0.00    +0.006 A 
ATOM     18  C   UNL     1       0.037  -2.084   1.188  0.00  0.00    -0.022 A 
ATOM     19  C   UNL     1       0.023  -0.702   1.195  0.00  0.00    +0.009 A 
ENDBRANCH   1  18
BRANCH   5  20
ATOM     20  C   UNL     1      -4.968  -2.811   3.545  0.00  0.00    +0.167 C 
BRANCH  20  21
ATOM     21  C   UNL     1      -5.489  -2.073   2.338  0.00  0.00    +0.234 C 
ATOM     22  O   UNL     1      -4.785  -1.934   1.361  0.00  0.00    -0.274 OA
ATOM     23  N   UNL     1      -6.739  -1.568   2.346  0.00  0.00    -0.311 N 
ATOM     24  H   UNL     1      -7.303  -1.680   3.127  0.00  0.00    +0.149 HD
BRANCH  23  25
ATOM     25  C   UNL     1      -7.246  -0.851   1.173  0.00  0.00    +0.135 C 
BRANCH  25  26
ATOM     26  C   UNL     1      -8.678  -0.385   1.440  0.00  0.00    +0.135 C 
ATOM     27  C   UNL     1      -9.264   0.265   0.168  0.00  0.00    +0.035 C 
ATOM     28  C   UNL     1     -10.069   1.459   0.749  0.00  0.00    +0.031 C 
ATOM     29  C   UNL     1      -9.184   1.850   1.960  0.00  0.00    +0.160 C 
ATOM     30  O   UNL     1      -8.682   0.605   2.476  0.00  0.00    -0.375 OA
ENDBRANCH  25  26
ENDBRANCH  23  25
ENDBRANCH  20  21
BRANCH  20  31
ATOM     31  C   UNL     1      -4.983  -1.879   4.758  0.00  0.00    +0.067 C 
BRANCH  31  32
ATOM     32  C   UNL     1      -4.579  -2.650   5.988  0.00  0.00    -0.045 A 
ATOM     33  C   UNL     1      -5.539  -3.289   6.750  0.00  0.00    +0.004 A 
ATOM     34  C   UNL     1      -5.168  -3.996   7.879  0.00  0.00    +0.000 A 
ATOM     35  C   UNL     1      -3.837  -4.065   8.245  0.00  0.00    +0.000 A 
ATOM     36  C   UNL     1      -2.876  -3.427   7.482  0.00  0.00    +0.000 A 
ATOM     37  C   UNL     1      -3.247  -2.723   6.351  0.00  0.00    +0.004 A 
ENDBRANCH  31  32
ENDBRANCH  20  31
ENDBRANCH   5  20
BRANCH   8  38
ATOM     38  C   UNL     1      -1.028  -6.900   3.020  0.00  0.00    +0.141 C 
BRANCH  38  39
ATOM     39  C   UNL     1      -1.446  -7.487   1.696  0.00  0.00    -0.015 C 
ATOM     40  C   UNL     1      -0.857  -8.565   1.242  0.00  0.00    +0.005 C 
ENDBRANCH  38  39
ENDBRANCH   8  38
TORSDOF 9
