REMARK  Name = ZINC39580790
REMARK  6 active torsions:
REMARK  status: ('A' for Active; 'I' for Inactive)
REMARK    1  A    between atoms: C_1  and  C_2
REMARK    2  A    between atoms: C_4  and  C_12
REMARK    3  A    between atoms: C_13  and  C_14
REMARK    4  A    between atoms: N_25  and  C_26
REMARK    5  A    between atoms: C_31  and  O_32
REMARK    6  A    between atoms: O_32  and  C_33
REMARK                            x       y       z     vdW  Elec       q    Type
REMARK                         _______ _______ _______ _____ _____    ______ ____
ROOT
ATOM      1  C   UNL     1       0.870  -0.383  -4.990  0.00  0.00    +0.190 C 
ATOM      2  N   UNL     1       1.980   0.388  -5.563  0.00  0.00    -0.322 N 
ATOM      3  C   UNL     1       3.140  -0.283  -5.934  0.00  0.00    +0.041 A 
ATOM      4  C   UNL     1       4.378   0.337  -5.917  0.00  0.00    +0.024 A 
ATOM      5  C   UNL     1       5.501  -0.368  -6.305  0.00  0.00    +0.002 A 
ATOM      6  C   UNL     1       5.399  -1.689  -6.712  0.00  0.00    +0.001 A 
ATOM      7  C   UNL     1       4.173  -2.323  -6.729  0.00  0.00    +0.015 A 
ATOM      8  C   UNL     1       3.033  -1.626  -6.336  0.00  0.00    +0.058 A 
ATOM      9  C   UNL     1       1.706  -2.266  -6.315  0.00  0.00    +0.254 C 
ATOM     10  O   UNL     1       1.547  -3.366  -6.809  0.00  0.00    -0.270 OA
ATOM     11  N   UNL     1       0.673  -1.621  -5.745  0.00  0.00    -0.241 N 
ATOM     12  H   UNL     1       1.906   1.348  -5.680  0.00  0.00    +0.148 HD
ENDROOT
BRANCH  11  13
ATOM     13  C   UNL     1      -0.618  -2.148  -5.876  0.00  0.00    +0.080 A 
ATOM     14  C   UNL     1      -1.415  -1.777  -6.949  0.00  0.00    +0.027 A 
ATOM     15  C   UNL     1      -2.688  -2.299  -7.077  0.00  0.00    +0.002 A 
ATOM     16  C   UNL     1      -3.171  -3.191  -6.137  0.00  0.00    +0.004 A 
ATOM     17  C   UNL     1      -2.382  -3.566  -5.065  0.00  0.00    +0.047 A 
ATOM     18  C   UNL     1      -1.102  -3.052  -4.933  0.00  0.00    +0.141 A 
BRANCH  18  19
ATOM     19  O   UNL     1      -0.323  -3.424  -3.883  0.00  0.00    -0.493 OA
ATOM     20  C   UNL     1      -0.886  -4.354  -2.955  0.00  0.00    +0.277 C 
ENDBRANCH  18  19
ENDBRANCH  11  13
BRANCH   1  22
ATOM     21  C   UNL     1       0.379  -0.285  -2.573  0.00  0.00    +0.005 C 
ATOM     22  C   UNL     1       1.184  -0.719  -3.555  0.00  0.00    +0.015 C 
BRANCH  21  25
ATOM     23  C   UNL     1       1.799  -2.757  -1.163  0.00  0.00    +0.035 C 
ATOM     24  C   UNL     1       1.906  -1.301  -0.705  0.00  0.00    +0.107 C 
ATOM     25  C   UNL     1       0.731  -0.504  -1.226  0.00  0.00    -0.017 C 
ATOM     26  C   UNL     1       0.070  -0.032  -0.099  0.00  0.00    +0.003 A 
ATOM     27  C   UNL     1      -1.087   0.765   0.067  0.00  0.00    +0.010 A 
ATOM     28  C   UNL     1      -1.513   1.079   1.315  0.00  0.00    +0.001 A 
ATOM     29  C   UNL     1      -0.837   0.634   2.455  0.00  0.00    +0.002 A 
ATOM     30  C   UNL     1       0.277  -0.132   2.374  0.00  0.00    +0.026 A 
ATOM     31  C   UNL     1       0.786  -0.503   1.100  0.00  0.00    +0.043 A 
ATOM     32  N   UNL     1       1.833  -1.226   0.757  0.00  0.00    -0.378 N 
ATOM     33  H   UNL     1       2.456  -1.642   1.373  0.00  0.00    +0.160 HD
ENDBRANCH  21  25
ENDBRANCH   1  22
TORSDOF 4
