REMARK  Name = ZINC33020012
REMARK  9 active torsions:
REMARK  status: ('A' for Active; 'I' for Inactive)
REMARK    1  A    between atoms: C_1  and  C_2
REMARK    2  A    between atoms: C_2  and  N_3
REMARK    3  A    between atoms: N_3  and  S_4
REMARK    4  A    between atoms: S_4  and  C_7
REMARK    5  A    between atoms: C_10  and  C_13
REMARK    6  A    between atoms: C_14  and  C_15
REMARK    7  A    between atoms: N_17  and  C_18
REMARK    8  A    between atoms: C_18  and  C_20
REMARK    9  A    between atoms: C_18  and  C_21
REMARK                            x       y       z     vdW  Elec       q    Type
REMARK                         _______ _______ _______ _____ _____    ______ ____
ROOT
ATOM      1  C   UNL     1       1.992   9.163   1.478  0.00  0.00    +0.237 C 
ATOM      2  O   UNL     1       1.010   9.848   1.258  0.00  0.00    -0.271 OA
ATOM      3  N   UNL     1       2.103   7.945   0.911  0.00  0.00    -0.305 N 
ATOM      4  H   UNL     1       2.990   7.325   1.109  0.00  0.00    +0.150 HD
ENDROOT
BRANCH   1   6
ATOM      5  C   UNL     1       2.939  10.879   2.925  0.00  0.00    +0.013 C 
ATOM      6  C   UNL     1       3.050   9.661   2.358  0.00  0.00    +0.068 C 
BRANCH   5  10
ATOM      7  C   UNL     1       6.006  12.321   5.476  0.00  0.00    +0.105 A 
ATOM      8  C   UNL     1       4.892  13.104   5.228  0.00  0.00    +0.029 A 
ATOM      9  C   UNL     1       3.891  12.642   4.400  0.00  0.00    +0.010 A 
ATOM     10  C   UNL     1       4.003  11.379   3.810  0.00  0.00    -0.025 A 
ATOM     11  C   UNL     1       5.130  10.592   4.069  0.00  0.00    +0.010 A 
ATOM     12  C   UNL     1       6.125  11.069   4.896  0.00  0.00    +0.029 A 
BRANCH   7  13
ATOM     13  S   UNL     1       7.280  12.919   6.536  0.00  0.00    +0.058 S 
ATOM     14  O   UNL     1       8.468  12.228   6.174  0.00  0.00    -0.153 OA
ATOM     15  O   UNL     1       7.189  14.337   6.519  0.00  0.00    -0.153 OA
BRANCH  13  16
ATOM     16  N   UNL     1       6.902  12.439   8.075  0.00  0.00    -0.190 NA
ATOM     17  H   UNL     1       6.511  13.179   8.788  0.00  0.00    +0.148 HD
BRANCH  16  19
ATOM     18  C   UNL     1       6.880  10.851   9.934  0.00  0.00    +0.022 C 
ATOM     19  C   UNL     1       6.882  11.014   8.413  0.00  0.00    +0.102 C 
ENDBRANCH  16  19
ENDBRANCH  13  16
ENDBRANCH   7  13
ENDBRANCH   5  10
ENDBRANCH   1   6
BRANCH   3  20
ATOM     20  C   UNL     1       1.044   7.447   0.030  0.00  0.00    +0.100 C 
ATOM     21  C   UNL     1       1.274   7.968  -1.390  0.00  0.00    +0.033 C 
BRANCH  20  22
ATOM     22  C   UNL     1       1.064   5.940   0.022  0.00  0.00    -0.027 A 
ATOM     23  C   UNL     1       2.286   5.270   0.008  0.00  0.00    +0.006 A 
ATOM     24  C   UNL     1       2.340   3.910   0.001  0.00  0.00    +0.009 A 
ATOM     25  C   UNL     1       1.147   3.167   0.008  0.00  0.00    -0.018 A 
ATOM     26  C   UNL     1       1.163   1.762   0.000  0.00  0.00    +0.008 A 
ATOM     27  C   UNL     1      -0.013   1.076   0.008  0.00  0.00    +0.001 A 
ATOM     28  C   UNL     1      -1.235   1.746   0.017  0.00  0.00    +0.001 A 
ATOM     29  C   UNL     1      -1.288   3.106   0.031  0.00  0.00    +0.008 A 
ATOM     30  C   UNL     1      -0.096   3.849   0.023  0.00  0.00    -0.018 A 
ATOM     31  C   UNL     1      -0.111   5.254   0.030  0.00  0.00    +0.014 A 
ENDBRANCH  20  22
ENDBRANCH   3  20
TORSDOF 7
