REMARK  Name = ZINC59890355
REMARK  13 active torsions:
REMARK  status: ('A' for Active; 'I' for Inactive)
REMARK    1  A    between atoms: C_1  and  C_2
REMARK    2  A    between atoms: C_2  and  C_3
REMARK    3  A    between atoms: C_3  and  C_4
REMARK    4  A    between atoms: C_4  and  C_34
REMARK    5  A    between atoms: N_5  and  N_6
REMARK    6  A    between atoms: C_9  and  S_12
REMARK    7  A    between atoms: S_12  and  C_13
REMARK    8  A    between atoms: C_13  and  C_14
REMARK    9  A    between atoms: C_14  and  C_15
REMARK   10  A    between atoms: N_17  and  C_18
REMARK   11  A    between atoms: C_21  and  S_24
REMARK   12  A    between atoms: S_24  and  N_27
REMARK   13  A    between atoms: C_30  and  C_33
REMARK                            x       y       z     vdW  Elec       q    Type
REMARK                         _______ _______ _______ _____ _____    ______ ____
ROOT
ATOM      1  C   UNL     1      -5.043  -8.057   8.123  0.00  0.00    +0.218 C 
ATOM      2  O   UNL     1      -4.724  -9.006   7.438  0.00  0.00    -0.275 OA
ATOM      3  N   UNL     1      -5.594  -8.256   9.336  0.00  0.00    -0.285 N 
ATOM      4  H   UNL     1      -5.787  -7.499   9.911  0.00  0.00    +0.155 HD
ENDROOT
BRANCH   3   5
ATOM      5  C   UNL     1      -5.887  -9.554   9.768  0.00  0.00    +0.033 A 
ATOM      6  C   UNL     1      -7.011  -9.792  10.547  0.00  0.00    +0.025 A 
ATOM      7  C   UNL     1      -7.298 -11.075  10.971  0.00  0.00    +0.030 A 
ATOM      8  C   UNL     1      -6.466 -12.122  10.620  0.00  0.00    +0.106 A 
ATOM      9  C   UNL     1      -5.345 -11.889   9.844  0.00  0.00    +0.030 A 
ATOM     10  C   UNL     1      -5.057 -10.609   9.412  0.00  0.00    +0.025 A 
BRANCH   8  11
ATOM     11  S   UNL     1      -6.835 -13.757  11.163  0.00  0.00    +0.061 S 
ATOM     12  O   UNL     1      -5.607 -14.473  11.158  0.00  0.00    -0.153 OA
ATOM     13  O   UNL     1      -7.636 -13.627  12.329  0.00  0.00    -0.153 OA
BRANCH  11  14
ATOM     14  N   UNL     1      -7.793 -14.453  10.005  0.00  0.00    -0.177 NA
ATOM     15  C   UNL     1      -9.256 -14.333  10.074  0.00  0.00    +0.110 C 
ATOM     16  C   UNL     1      -9.870 -15.735  10.005  0.00  0.00    +0.020 C 
ATOM     17  C   UNL     1      -9.356 -16.452   8.755  0.00  0.00    -0.012 C 
ATOM     18  C   UNL     1      -7.834 -16.594   8.835  0.00  0.00    +0.020 C 
ATOM     19  C   UNL     1      -7.197 -15.197   8.888  0.00  0.00    +0.110 C 
ATOM     20  C   UNL     1      -9.994 -17.839   8.665  0.00  0.00    +0.007 C 
ENDBRANCH  11  14
ENDBRANCH   8  11
ENDBRANCH   3   5
BRANCH   1  21
ATOM     21  C   UNL     1      -4.824  -6.655   7.615  0.00  0.00    +0.107 C 
BRANCH  21  22
ATOM     22  C   UNL     1      -4.190  -6.709   6.224  0.00  0.00    +0.086 C 
BRANCH  22  23
ATOM     23  S   UNL     1      -3.926  -5.021   5.613  0.00  0.00    -0.084 S 
BRANCH  23  27
ATOM     24  N   UNL     1      -1.837  -4.092   1.006  0.00  0.00    -0.205 N 
ATOM     25  C   UNL     1      -2.326  -4.797   2.092  0.00  0.00    +0.232 A 
ATOM     26  N   UNL     1      -2.830  -4.274   3.190  0.00  0.00    -0.186 NA
ATOM     27  C   UNL     1      -3.201  -5.252   4.024  0.00  0.00    +0.210 A 
ATOM     28  N   UNL     1      -2.938  -6.410   3.467  0.00  0.00    -0.144 NA
ATOM     29  N   UNL     1      -2.374  -6.140   2.209  0.00  0.00    -0.245 N 
ATOM     30  H   UNL     1      -1.488  -4.568   0.237  0.00  0.00    +0.177 HD
ATOM     31  H   UNL     1      -2.076  -6.792   1.555  0.00  0.00    +0.192 HD
BRANCH  24  33
ATOM     32  C   UNL     1      -1.395  -2.039   0.013  0.00  0.00    +0.034 C 
ATOM     33  N   UNL     1      -1.847  -2.691   1.018  0.00  0.00    -0.189 NA
ATOM     34  C   UNL     1      -0.852  -2.779  -1.182  0.00  0.00    +0.062 C 
BRANCH  32  35
ATOM     35  C   UNL     1      -1.406  -0.532   0.026  0.00  0.00    +0.052 C 
BRANCH  35  37
ATOM     36  C   UNL     1       0.022   1.518   0.026  0.00  0.00    +0.004 C 
ATOM     37  C   UNL     1       0.033  -0.012   0.013  0.00  0.00    +0.002 C 
ENDBRANCH  35  37
ENDBRANCH  32  35
ENDBRANCH  24  33
ENDBRANCH  23  27
ENDBRANCH  22  23
ENDBRANCH  21  22
ENDBRANCH   1  21
TORSDOF 10
