REMARK  Name = ZINC21244239
REMARK  5 active torsions:
REMARK  status: ('A' for Active; 'I' for Inactive)
REMARK    1  A    between atoms: C_1  and  C_2
REMARK    2  A    between atoms: C_2  and  O_3
REMARK    3  A    between atoms: O_3  and  C_4
REMARK    4  A    between atoms: C_7  and  C_11
REMARK    5  A    between atoms: C_16  and  C_21
REMARK                            x       y       z     vdW  Elec       q    Type
REMARK                         _______ _______ _______ _____ _____    ______ ____
ROOT
ATOM      1  C   UNL     1       2.606   4.709   1.278  0.00  0.00    +0.136 C 
ATOM      2  C   UNL     1       1.807   5.949   1.595  0.00  0.00    +0.036 C 
ATOM      3  C   UNL     1       0.615   6.276   1.066  0.00  0.00    +0.017 C 
ATOM      4  C   UNL     1      -0.080   7.566   1.469  0.00  0.00    +0.059 C 
ATOM      5  C   UNL     1       0.249   7.902   2.922  0.00  0.00    +0.033 C 
ATOM      6  C   UNL     1       1.770   8.059   3.033  0.00  0.00    +0.088 C 
ATOM      7  C   UNL     1       2.417   6.796   2.550  0.00  0.00    +0.163 C 
ATOM      8  O   UNL     1       3.506   6.488   2.995  0.00  0.00    -0.292 OA
ATOM      9  N   UNL     1      -0.053   5.532   0.148  0.00  0.00    -0.316 N 
ATOM     10  C   UNL     1      -0.246   4.158   0.227  0.00  0.00    +0.052 A 
ATOM     11  C   UNL     1      -1.503   3.593   0.356  0.00  0.00    +0.025 A 
ATOM     12  C   UNL     1      -1.631   2.214   0.360  0.00  0.00    +0.002 A 
ATOM     13  C   UNL     1      -0.511   1.409   0.247  0.00  0.00    +0.002 A 
ATOM     14  C   UNL     1       0.748   1.973   0.135  0.00  0.00    +0.025 A 
ATOM     15  C   UNL     1       0.879   3.352   0.142  0.00  0.00    +0.049 A 
ATOM     16  N   UNL     1       2.132   3.964   0.132  0.00  0.00    -0.331 N 
ATOM     17  H   UNL     1      -0.489   6.014  -0.739  0.00  0.00    +0.152 HD
ATOM     18  H   UNL     1       2.762   3.873  -0.765  0.00  0.00    +0.147 HD
ENDROOT
BRANCH   1  22
ATOM     19  C   UNL     1       2.519   2.134   4.688  0.00  0.00    +0.139 A 
ATOM     20  C   UNL     1       1.344   2.439   4.017  0.00  0.00    +0.047 A 
ATOM     21  C   UNL     1       1.374   3.276   2.918  0.00  0.00    +0.009 A 
ATOM     22  C   UNL     1       2.576   3.801   2.480  0.00  0.00    -0.021 A 
ATOM     23  C   UNL     1       3.749   3.499   3.146  0.00  0.00    +0.029 A 
ATOM     24  C   UNL     1       3.724   2.666   4.249  0.00  0.00    +0.083 A 
ATOM     25 CL   UNL     1       5.197   2.287   5.086  0.00  0.00    -0.080 Cl
BRANCH  19  26
ATOM     26  O   UNL     1       2.491   1.315   5.772  0.00  0.00    -0.491 OA
BRANCH  26  28
ATOM     27  C   UNL     1       1.383  -0.091   7.396  0.00  0.00    +0.048 C 
ATOM     28  C   UNL     1       1.216   0.804   6.166  0.00  0.00    +0.226 C 
ENDBRANCH  26  28
ENDBRANCH  19  26
ENDBRANCH   1  22
BRANCH   5  29
ATOM     29  C   UNL     1      -0.427   9.191   3.314  0.00  0.00    -0.025 A 
ATOM     30  C   UNL     1      -0.137  10.359   2.632  0.00  0.00    +0.005 A 
ATOM     31  C   UNL     1      -0.757  11.541   2.991  0.00  0.00    +0.000 A 
ATOM     32  C   UNL     1      -1.668  11.556   4.031  0.00  0.00    +0.001 A 
ATOM     33  C   UNL     1      -1.958  10.390   4.713  0.00  0.00    +0.020 A 
ATOM     34  C   UNL     1      -1.342   9.205   4.351  0.00  0.00    +0.044 A 
ATOM     35 CL   UNL     1      -1.712   7.738   5.202  0.00  0.00    -0.083 Cl
ENDBRANCH   5  29
TORSDOF 4
