REMARK  Name = ZINC25703391
REMARK  7 active torsions:
REMARK  status: ('A' for Active; 'I' for Inactive)
REMARK    1  A    between atoms: C_1  and  N_2
REMARK    2  A    between atoms: N_2  and  C_3
REMARK    3  A    between atoms: N_2  and  C_4
REMARK    4  A    between atoms: C_7  and  C_10
REMARK    5  A    between atoms: N_11  and  N_12
REMARK    6  A    between atoms: C_13  and  C_15
REMARK    7  A    between atoms: C_17  and  N_23
REMARK                            x       y       z     vdW  Elec       q    Type
REMARK                         _______ _______ _______ _____ _____    ______ ____
ROOT
ATOM      1  N   UNL     1      -1.191   1.870   0.025  0.00  0.00    -0.202 N 
ATOM      2  C   UNL     1      -0.015   1.212   0.030  0.00  0.00    +0.283 C 
ATOM      3  O   UNL     1       0.002  -0.003   0.037  0.00  0.00    -0.267 OA
ATOM      4  H   UNL     1      -1.206   2.970   0.019  0.00  0.00    +0.178 HD
ENDROOT
BRANCH   2   5
ATOM      5  C   UNL     1       1.257   1.970   0.021  0.00  0.00    +0.149 A 
ATOM      6  C   UNL     1       2.468   1.283   0.025  0.00  0.00    +0.094 A 
ATOM      7  C   UNL     1       3.658   2.012   0.011  0.00  0.00    +0.067 A 
ATOM      8  C   UNL     1       3.581   3.404   0.003  0.00  0.00    +0.100 A 
ATOM      9  C   UNL     1       2.337   4.014   0.004  0.00  0.00    +0.150 A 
ATOM     10  N   UNL     1       1.231   3.299   0.013  0.00  0.00    -0.228 NA
ATOM     11 CL   UNL     1       2.234   5.747  -0.005  0.00  0.00    -0.060 Cl
ATOM     12 CL   UNL     1       5.028   4.362  -0.007  0.00  0.00    -0.078 Cl
ATOM     13 CL   UNL     1       2.498  -0.452   0.043  0.00  0.00    -0.079 Cl
BRANCH   7  14
ATOM     14  N   UNL     1       4.892   1.365   0.010  0.00  0.00    -0.356 N 
ATOM     15  H   UNL     1       5.821   1.953  -0.002  0.00  0.00    +0.142 HD
ATOM     16  H   UNL     1       4.936   0.266   0.021  0.00  0.00    +0.142 HD
ENDBRANCH   7  14
ENDBRANCH   2   5
BRANCH   1  18
ATOM     17  C   UNL     1      -3.528   1.787   0.024  0.00  0.00    +0.138 C 
ATOM     18  N   UNL     1      -2.394   1.153   0.028  0.00  0.00    -0.187 NA
BRANCH  17  22
ATOM     19  C   UNL     1      -7.175  -0.386   0.032  0.00  0.00    +0.029 A 
ATOM     20  C   UNL     1      -7.196   1.005   0.025  0.00  0.00    +0.024 A 
ATOM     21  C   UNL     1      -6.015   1.713   0.022  0.00  0.00    +0.011 A 
ATOM     22  C   UNL     1      -4.794   1.033   0.027  0.00  0.00    -0.005 A 
ATOM     23  C   UNL     1      -4.777  -0.365   0.029  0.00  0.00    +0.011 A 
ATOM     24  C   UNL     1      -5.962  -1.067   0.037  0.00  0.00    +0.024 A 
BRANCH  19  26
ATOM     25  C   UNL     1      -9.649  -0.389   0.157  0.00  0.00    +0.129 C 
ATOM     26  N   UNL     1      -8.373  -1.100   0.035  0.00  0.00    -0.336 N 
ATOM     27  C   UNL     1      -8.356  -2.560  -0.084  0.00  0.00    +0.129 C 
ENDBRANCH  19  26
ENDBRANCH  17  22
ENDBRANCH   1  18
TORSDOF 5
