REMARK  Name = ZINC13066571
REMARK  12 active torsions:
REMARK  status: ('A' for Active; 'I' for Inactive)
REMARK    1  A    between atoms: C_1  and  C_2
REMARK    2  A    between atoms: C_2  and  N_48
REMARK    3  A    between atoms: C_3  and  C_4
REMARK    4  A    between atoms: C_3  and  N_48
REMARK    5  A    between atoms: C_5  and  C_6
REMARK    6  A    between atoms: C_5  and  N_48
REMARK    7  A    between atoms: C_8  and  C_13
REMARK    8  A    between atoms: C_11  and  O_12
REMARK    9  A    between atoms: C_13  and  C_27
REMARK   10  A    between atoms: N_14  and  N_15
REMARK   11  A    between atoms: N_15  and  C_16
REMARK   12  A    between atoms: CA_18  and  C_24
REMARK                            x       y       z     vdW  Elec       q    Type
REMARK                         _______ _______ _______ _____ _____    ______ ____
ROOT
ATOM      1  C   UNL     1       4.246   2.207  -0.200  0.00  0.00    +0.063 C 
ATOM      2  N   UNL     1       3.186   2.952  -0.120  0.00  0.00    -0.187 NA
ATOM      3  C   UNL     1       4.164   0.741   0.140  0.00  0.00    +0.068 C 
ENDROOT
BRANCH   1   6
ATOM      4  C   UNL     1       6.811   4.697  -1.336  0.00  0.00    -0.022 A 
ATOM      5  C   UNL     1       5.608   4.152  -0.945  0.00  0.00    +0.015 A 
ATOM      6  C   UNL     1       5.530   2.794  -0.624  0.00  0.00    -0.002 A 
ATOM      7  C   UNL     1       6.672   1.994  -0.711  0.00  0.00    +0.013 A 
ATOM      8  C   UNL     1       7.870   2.547  -1.107  0.00  0.00    +0.046 A 
ATOM      9  C   UNL     1       7.944   3.898  -1.421  0.00  0.00    +0.118 A 
BRANCH   9  10
ATOM     10  O   UNL     1       9.127   4.439  -1.812  0.00  0.00    -0.507 OA
ATOM     11  H   UNL     1       9.276   4.411  -2.767  0.00  0.00    +0.292 HD
ENDBRANCH   9  10
BRANCH   4  12
ATOM     12  C   UNL     1       6.898   6.163  -1.677  0.00  0.00    -0.039 C 
BRANCH  12  13
ATOM     13  N   UNL     1       7.320   6.906  -0.471  0.00  0.00    +0.382 N 
ATOM     14  H   UNL     1       6.826   6.525   0.345  0.00  0.00    -0.081 HD
BRANCH  13  16
ATOM     15  C   UNL     1       9.549   7.367  -1.435  0.00  0.00    -0.017 C 
ATOM     16  C   UNL     1       8.775   6.752  -0.267  0.00  0.00    -0.082 C 
ENDBRANCH  13  16
BRANCH  13  17
ATOM     17  C   UNL     1       6.978   8.337  -0.614  0.00  0.00    -0.082 C 
ATOM     18  C   UNL     1       7.094   9.009   0.755  0.00  0.00    -0.017 C 
ENDBRANCH  13  17
ENDBRANCH  12  13
ENDBRANCH   4  12
ENDBRANCH   1   6
BRANCH   2  19
ATOM     19  N   UNL     1       1.966   2.394   0.282  0.00  0.00    -0.235 N 
ATOM     20  H   UNL     1       1.913   1.450   0.501  0.00  0.00    +0.174 HD
BRANCH  19  21
ATOM     21  C   UNL     1       0.829   3.193   0.368  0.00  0.00    +0.090 A 
ATOM     22  C   UNL     1      -0.442   2.622   0.459  0.00  0.00    +0.097 A 
ATOM     23  CA  UNL     1      -1.552   3.458   0.538  0.00  0.00    +0.173 A 
ATOM     24  N   UNL     1      -1.406   4.780   0.538  0.00  0.00    -0.225 NA
ATOM     25  C   UNL     1      -0.222   5.348   0.453  0.00  0.00    +0.150 A 
ATOM     26  C   UNL     1       0.932   4.583   0.365  0.00  0.00    +0.102 A 
ATOM     27 CL   UNL     1       2.486   5.349   0.254  0.00  0.00    -0.078 Cl
ATOM     28 CL   UNL     1      -0.102   7.080   0.450  0.00  0.00    -0.060 Cl
ATOM     29 CL   UNL     1      -0.635   0.897   0.467  0.00  0.00    -0.079 Cl
BRANCH  23  30
ATOM     30  C   UNL     1      -2.906   2.871   0.630  0.00  0.00    +0.406 C 
ATOM     31  O   UNL     1      -3.046   1.664   0.636  0.00  0.00    -0.239 OA
ATOM     32  OXT UNL     1      -3.985   3.674   0.707  0.00  0.00    -0.239 OA
ENDBRANCH  23  30
ENDBRANCH  19  21
ENDBRANCH   2  19
TORSDOF 9
