REMARK  Name = ZINC52566235
REMARK  5 active torsions:
REMARK  status: ('A' for Active; 'I' for Inactive)
REMARK    1  A    between atoms: C_4  and  C_7
REMARK    2  A    between atoms: C_16  and  O_34
REMARK    3  A    between atoms: C_17  and  C_18
REMARK    4  A    between atoms: C_22  and  C_32
REMARK    5  A    between atoms: C_24  and  C_26
REMARK                            x       y       z     vdW  Elec       q    Type
REMARK                         _______ _______ _______ _____ _____    ______ ____
ROOT
ATOM      1  C   UNL     1       3.696  -0.685  -0.037  0.00  0.00    -0.000 A 
ATOM      2  C   UNL     1       4.571  -0.605   1.030  0.00  0.00    +0.101 A 
ATOM      3  C   UNL     1       5.790  -1.302   0.978  0.00  0.00    +0.338 A 
ATOM      4  O   UNL     1       6.556  -1.227   1.923  0.00  0.00    -0.245 OA
ATOM      5  O   UNL     1       6.133  -2.048  -0.084  0.00  0.00    -0.421 OA
ATOM      6  C   UNL     1       5.329  -2.171  -1.159  0.00  0.00    +0.152 A 
ATOM      7  C   UNL     1       4.090  -1.514  -1.189  0.00  0.00    +0.026 A 
ATOM      8  C   UNL     1       3.251  -1.644  -2.301  0.00  0.00    +0.016 A 
ATOM      9  C   UNL     1       3.634  -2.422  -3.369  0.00  0.00    +0.047 A 
ATOM     10  C   UNL     1       4.856  -3.086  -3.354  0.00  0.00    +0.129 A 
ATOM     11  C   UNL     1       5.717  -2.959  -2.254  0.00  0.00    +0.082 A 
ENDROOT
BRANCH  11  12
ATOM     12  C   UNL     1       7.010  -3.661  -2.240  0.00  0.00    +0.071 C 
ATOM     13  N   UNL     1       7.047  -4.890  -1.751  0.00  0.00    -0.179 NA
ATOM     14  C   UNL     1       8.165  -5.607  -1.695  0.00  0.00    +0.258 C 
ATOM     15  O   UNL     1       8.157  -6.734  -1.238  0.00  0.00    -0.272 OA
ATOM     16  C   UNL     1       9.448  -4.992  -2.212  0.00  0.00    +0.210 C 
ATOM     17  C   UNL     1       9.357  -3.582  -2.762  0.00  0.00    -0.011 C 
ATOM     18  C   UNL     1       8.138  -2.987  -2.754  0.00  0.00    +0.032 C 
BRANCH  17  19
ATOM     19  C   UNL     1      10.543  -2.889  -3.290  0.00  0.00    -0.002 A 
ATOM     20  C   UNL     1      10.621  -2.541  -4.647  0.00  0.00    +0.011 A 
ATOM     21  C   UNL     1      11.758  -1.891  -5.091  0.00  0.00    +0.020 A 
ATOM     22  C   UNL     1      12.772  -1.607  -4.193  0.00  0.00    +0.111 A 
ATOM     23  N   UNL     1      12.672  -1.946  -2.921  0.00  0.00    -0.263 NA
ATOM     24  C   UNL     1      11.609  -2.560  -2.446  0.00  0.00    +0.119 A 
ENDBRANCH  17  19
BRANCH  16  25
ATOM     25  C   UNL     1      10.425  -4.987  -1.111  0.00  0.00    +0.080 C 
ATOM     26  N   UNL     1      11.179  -4.983  -0.261  0.00  0.00    -0.195 NA
ENDBRANCH  16  25
ENDBRANCH  11  12
BRANCH   1  30
ATOM     27  C   UNL     1      -0.017   1.379   0.010  0.00  0.00    +0.000 A 
ATOM     28  C   UNL     1       1.169   2.094   0.002  0.00  0.00    +0.001 A 
ATOM     29  C   UNL     1       2.377   1.429  -0.013  0.00  0.00    +0.008 A 
ATOM     30  C   UNL     1       2.403   0.034  -0.021  0.00  0.00    -0.017 A 
ATOM     31  C   UNL     1       1.204  -0.680  -0.013  0.00  0.00    +0.008 A 
ATOM     32  C   UNL     1       0.002  -0.004   0.002  0.00  0.00    +0.001 A 
ENDBRANCH   1  30
BRANCH  10  33
ATOM     33  O   UNL     1       5.222  -3.849  -4.413  0.00  0.00    -0.506 OA
ATOM     34  H   UNL     1       5.713  -3.369  -5.093  0.00  0.00    +0.292 HD
ENDBRANCH  10  33
TORSDOF 5
