REMARK  Name = ZINC08846171
REMARK  11 active torsions:
REMARK  status: ('A' for Active; 'I' for Inactive)
REMARK    1  A    between atoms: C_1  and  C_2
REMARK    2  A    between atoms: C_2  and  C_3
REMARK    3  A    between atoms: C_3  and  O_4
REMARK    4  A    between atoms: O_4  and  C_5
REMARK    5  A    between atoms: C_8  and  C_14
REMARK    6  A    between atoms: C_10  and  O_11
REMARK    7  A    between atoms: O_11  and  C_12
REMARK    8  A    between atoms: C_12  and  C_13
REMARK    9  A    between atoms: C_19  and  N_28
REMARK   10  A    between atoms: C_23  and  N_27
REMARK   11  A    between atoms: C_24  and  C_25
REMARK                            x       y       z     vdW  Elec       q    Type
REMARK                         _______ _______ _______ _____ _____    ______ ____
ROOT
ATOM      1  C   UNL     1       1.296  -0.768  -0.013  0.00  0.00    +0.098 C 
ATOM      2  C   UNL     1       2.428   0.134  -0.430  0.00  0.00    +0.008 A 
ATOM      3  C   UNL     1       3.625  -0.424  -0.844  0.00  0.00    +0.010 A 
ATOM      4  C   UNL     1       4.674   0.385  -1.230  0.00  0.00    +0.023 A 
ATOM      5  C   UNL     1       4.531   1.767  -1.202  0.00  0.00    +0.028 A 
ATOM      6  C   UNL     1       3.332   2.329  -0.787  0.00  0.00    +0.069 A 
ATOM      7  C   UNL     1       2.279   1.512  -0.400  0.00  0.00    +0.136 A 
ATOM      8  O   UNL     1       1.114   2.076   0.003  0.00  0.00    -0.441 OA
ATOM      9  C   UNL     1      -0.016   1.350   0.009  0.00  0.00    +0.199 C 
ATOM     10  C   UNL     1       0.002  -0.004   0.002  0.00  0.00    +0.098 C 
ENDROOT
BRANCH   1  14
ATOM     11  C   UNL     1       2.078  -2.304   3.901  0.00  0.00    +0.162 A 
ATOM     12  C   UNL     1       1.958  -0.938   3.700  0.00  0.00    +0.050 A 
ATOM     13  C   UNL     1       1.705  -0.444   2.434  0.00  0.00    +0.008 A 
ATOM     14  C   UNL     1       1.572  -1.311   1.365  0.00  0.00    -0.031 A 
ATOM     15  C   UNL     1       1.685  -2.675   1.559  0.00  0.00    +0.054 A 
ATOM     16  C   UNL     1       1.943  -3.176   2.825  0.00  0.00    +0.162 A 
BRANCH  11  17
ATOM     17  O   UNL     1       2.326  -2.790   5.146  0.00  0.00    -0.488 OA
BRANCH  17  18
ATOM     18  C   UNL     1       2.452  -1.836   6.202  0.00  0.00    +0.229 C 
BRANCH  18  20
ATOM     19  C   UNL     1       2.862  -1.545   8.649  0.00  0.00    +0.007 C 
ATOM     20  C   UNL     1       2.728  -2.566   7.518  0.00  0.00    +0.038 C 
ENDBRANCH  18  20
ENDBRANCH  17  18
ENDBRANCH  11  17
BRANCH  16  21
ATOM     21  O   UNL     1       2.060  -4.517   3.016  0.00  0.00    -0.489 OA
BRANCH  21  22
ATOM     22  C   UNL     1       1.910  -5.352   1.866  0.00  0.00    +0.226 C 
ATOM     23  C   UNL     1       2.073  -6.817   2.276  0.00  0.00    +0.048 C 
ENDBRANCH  21  22
ENDBRANCH  16  21
ENDBRANCH   1  14
BRANCH   9  24
ATOM     24  N   UNL     1      -1.226   1.999   0.019  0.00  0.00    -0.328 N 
ATOM     25  H   UNL     1      -2.050   1.489   0.020  0.00  0.00    +0.145 HD
ATOM     26  H   UNL     1      -1.255   2.969   0.024  0.00  0.00    +0.145 HD
ENDBRANCH   9  24
BRANCH   5  27
ATOM     27  N   UNL     1       5.591   2.589  -1.592  0.00  0.00    -0.358 N 
ATOM     28  H   UNL     1       5.489   3.553  -1.573  0.00  0.00    +0.142 HD
ATOM     29  H   UNL     1       6.428   2.195  -1.883  0.00  0.00    +0.142 HD
ENDBRANCH   5  27
BRANCH  10  30
ATOM     30  C   UNL     1      -1.237  -0.723   0.010  0.00  0.00    +0.101 C 
ATOM     31  N   UNL     1      -2.219  -1.292   0.016  0.00  0.00    -0.191 NA
ENDBRANCH  10  30
TORSDOF 9
