REMARK  Name = ZINC08739497
REMARK  15 active torsions:
REMARK  status: ('A' for Active; 'I' for Inactive)
REMARK    1  A    between atoms: C_1  and  C_2
REMARK    2  A    between atoms: C_2  and  N_67
REMARK    3  A    between atoms: C_3  and  C_4
REMARK    4  A    between atoms: C_3  and  N_67
REMARK    5  A    between atoms: C_5  and  C_6
REMARK    6  A    between atoms: C_5  and  N_67
REMARK    7  A    between atoms: C_6  and  N_7
REMARK    8  A    between atoms: C_8  and  C_27
REMARK    9  A    between atoms: C_11  and  C_12
REMARK   10  A    between atoms: C_11  and  O_22
REMARK   11  A    between atoms: C_15  and  O_18
REMARK   12  A    between atoms: O_18  and  C_19
REMARK   13  A    between atoms: C_19  and  C_20
REMARK   14  A    between atoms: C_19  and  C_21
REMARK   15  A    between atoms: C_30  and  C_33
REMARK                            x       y       z     vdW  Elec       q    Type
REMARK                         _______ _______ _______ _____ _____    ______ ____
ROOT
ATOM      1  N   UNL     1      -2.521   4.825   4.802  0.00  0.00    -0.285 N 
ATOM      2  C   UNL     1      -3.623   5.641   4.284  0.00  0.00    +0.144 C 
ATOM      3  C   UNL     1      -4.596   5.829   5.425  0.00  0.00    +0.071 C 
ATOM      4  C   UNL     1      -5.784   6.533   5.395  0.00  0.00    +0.133 C 
ATOM      5  C   UNL     1      -4.049   5.144   6.521  0.00  0.00    +0.249 C 
ATOM      6  O   UNL     1      -4.543   5.063   7.631  0.00  0.00    -0.282 OA
ATOM      7  C   UNL     1      -2.763   4.532   6.091  0.00  0.00    +0.288 C 
ATOM      8  O   UNL     1      -2.038   3.865   6.801  0.00  0.00    -0.266 OA
ENDROOT
BRANCH   2   9
ATOM      9  C   UNL     1      -4.299   4.929   3.141  0.00  0.00    -0.022 A 
ATOM     10  C   UNL     1      -4.503   3.563   3.202  0.00  0.00    +0.006 A 
ATOM     11  C   UNL     1      -5.128   2.910   2.156  0.00  0.00    +0.004 A 
ATOM     12  C   UNL     1      -5.539   3.622   1.044  0.00  0.00    -0.050 A 
ATOM     13  C   UNL     1      -5.330   4.987   0.981  0.00  0.00    +0.004 A 
ATOM     14  C   UNL     1      -4.710   5.640   2.030  0.00  0.00    +0.006 A 
ATOM     15  C   UNL     1      -6.216   2.909  -0.099  0.00  0.00    +0.044 C 
ENDBRANCH   2   9
BRANCH   4  16
ATOM     16  C   UNL     1      -6.665   6.539   6.573  0.00  0.00    +0.017 A 
ATOM     17  C   UNL     1      -7.036   5.332   7.179  0.00  0.00    +0.015 A 
ATOM     18  C   UNL     1      -7.856   5.343   8.284  0.00  0.00    +0.046 A 
ATOM     19  C   UNL     1      -8.325   6.550   8.793  0.00  0.00    +0.121 A 
ATOM     20  C   UNL     1      -7.964   7.751   8.191  0.00  0.00    +0.046 A 
ATOM     21  C   UNL     1      -7.140   7.751   7.089  0.00  0.00    +0.015 A 
BRANCH  19  22
ATOM     22  O   UNL     1      -9.138   6.556   9.879  0.00  0.00    -0.489 OA
BRANCH  22  23
ATOM     23  C   UNL     1      -9.564   5.286  10.377  0.00  0.00    +0.167 C 
ATOM     24  C   UNL     1      -8.499   4.725  11.322  0.00  0.00    +0.051 C 
ATOM     25  C   UNL     1     -10.882   5.452  11.136  0.00  0.00    +0.051 C 
ENDBRANCH  22  23
ENDBRANCH  19  22
ENDBRANCH   4  16
BRANCH   4  26
ATOM     26  O   UNL     1      -6.136   7.215   4.285  0.00  0.00    -0.506 OA
ATOM     27  H   UNL     1      -7.018   7.663   4.435  0.00  0.00    +0.292 HD
ENDBRANCH   4  26
BRANCH   1  28
ATOM     28  C   UNL     1      -1.348   4.395   4.037  0.00  0.00    +0.090 C 
BRANCH  28  29
ATOM     29  C   UNL     1      -0.240   5.442   4.169  0.00  0.00    -0.060 C 
BRANCH  29  30
ATOM     30  N   UNL     1       0.927   5.004   3.376  0.00  0.00    +0.380 N 
ATOM     31  H   UNL     1       0.617   4.777   2.424  0.00  0.00    -0.082 HD
BRANCH  30  33
ATOM     32  C   UNL     1       1.952   4.083   5.428  0.00  0.00    -0.017 C 
ATOM     33  C   UNL     1       1.529   3.800   3.985  0.00  0.00    -0.082 C 
ENDBRANCH  30  33
BRANCH  30  34
ATOM     34  C   UNL     1       1.928   6.090   3.308  0.00  0.00    -0.082 C 
ATOM     35  C   UNL     1       2.874   5.812   2.138  0.00  0.00    -0.017 C 
ENDBRANCH  30  34
ENDBRANCH  29  30
ENDBRANCH  28  29
ENDBRANCH   1  28
TORSDOF 10
