REMARK  Name = ZINC34921483
REMARK  15 active torsions:
REMARK  status: ('A' for Active; 'I' for Inactive)
REMARK    1  A    between atoms: C_1  and  C_2
REMARK    2  A    between atoms: C_2  and  C_3
REMARK    3  A    between atoms: C_3  and  C_4
REMARK    4  A    between atoms: C_4  and  C_5
REMARK    5  A    between atoms: C_5  and  C_6
REMARK    6  A    between atoms: N_8  and  C_9
REMARK    7  A    between atoms: N_8  and  C_14
REMARK    8  A    between atoms: C_9  and  C_10
REMARK    9  A    between atoms: C_10  and  N_11
REMARK   10  A    between atoms: N_11  and  C_12
REMARK   11  A    between atoms: N_11  and  C_13
REMARK   12  A    between atoms: C_14  and  C_15
REMARK   13  A    between atoms: C_18  and  O_21
REMARK   14  A    between atoms: O_21  and  S_22
REMARK   15  A    between atoms: S_22  and  C_25
REMARK                            x       y       z     vdW  Elec       q    Type
REMARK                         _______ _______ _______ _____ _____    ______ ____
ROOT
ATOM      1  C   UNL     1      -3.945  -6.764   1.424  0.00  0.00    -0.030 A 
ATOM      2  C   UNL     1      -2.738  -6.976   2.064  0.00  0.00    +0.009 A 
ATOM      3  C   UNL     1      -2.717  -7.444   3.364  0.00  0.00    +0.049 A 
ATOM      4  C   UNL     1      -3.908  -7.701   4.027  0.00  0.00    +0.157 A 
ATOM      5  C   UNL     1      -5.118  -7.487   3.383  0.00  0.00    +0.049 A 
ATOM      6  C   UNL     1      -5.134  -7.014   2.085  0.00  0.00    +0.009 A 
ENDROOT
BRANCH   1   7
ATOM      7  C   UNL     1      -3.966  -6.254   0.006  0.00  0.00    +0.142 C 
BRANCH   7  10
ATOM      8  C   UNL     1      -2.828  -4.100   0.007  0.00  0.00    +0.216 C 
ATOM      9  O   UNL     1      -1.769  -4.692  -0.006  0.00  0.00    -0.276 OA
ATOM     10  N   UNL     1      -3.985  -4.790   0.014  0.00  0.00    -0.299 N 
BRANCH   8  11
ATOM     11  C   UNL     1      -2.848  -2.593   0.015  0.00  0.00    +0.096 C 
BRANCH  11  12
ATOM     12  C   UNL     1      -1.413  -2.063   0.004  0.00  0.00    +0.009 C 
BRANCH  12  13
ATOM     13  C   UNL     1      -1.433  -0.534   0.013  0.00  0.00    +0.000 C 
BRANCH  13  15
ATOM     14  C   UNL     1      -0.019   1.526   0.010  0.00  0.00    +0.004 C 
ATOM     15  C   UNL     1       0.002  -0.004   0.002  0.00  0.00    -0.003 C 
ENDBRANCH  13  15
ENDBRANCH  12  13
ENDBRANCH  11  12
ENDBRANCH   8  11
BRANCH  10  16
ATOM     16  C   UNL     1      -5.264  -4.074   0.030  0.00  0.00    +0.089 C 
BRANCH  16  17
ATOM     17  C   UNL     1      -5.723  -3.818  -1.406  0.00  0.00    -0.060 C 
BRANCH  17  18
ATOM     18  N   UNL     1      -7.005  -3.101  -1.390  0.00  0.00    +0.377 N 
ATOM     19  C   UNL     1      -7.386  -2.749  -2.765  0.00  0.00    -0.097 C 
ATOM     20  C   UNL     1      -8.039  -3.960  -0.800  0.00  0.00    -0.097 C 
ATOM     21  H   UNL     1      -6.913  -2.259  -0.841  0.00  0.00    -0.083 HD
ENDBRANCH  17  18
ENDBRANCH  16  17
ENDBRANCH  10  16
ENDBRANCH   7  10
ENDBRANCH   1   7
BRANCH   4  22
ATOM     22  O   UNL     1      -3.889  -8.162   5.306  0.00  0.00    -0.342 OA
BRANCH  22  23
ATOM     23  S   UNL     1      -3.900  -7.064   6.359  0.00  0.00    +0.151 S 
ATOM     24  O   UNL     1      -3.669  -7.698   7.610  0.00  0.00    -0.131 OA
ATOM     25  O   UNL     1      -3.068  -6.021   5.869  0.00  0.00    -0.131 OA
BRANCH  23  26
ATOM     26  C   UNL     1      -5.538  -6.415   6.419  0.00  0.00    +0.128 A 
ATOM     27  C   UNL     1      -5.892  -5.358   5.601  0.00  0.00    +0.033 A 
ATOM     28  C   UNL     1      -7.176  -4.849   5.647  0.00  0.00    +0.040 A 
ATOM     29  C   UNL     1      -8.107  -5.397   6.512  0.00  0.00    +0.124 A 
ATOM     30  C   UNL     1      -7.751  -6.456   7.330  0.00  0.00    +0.040 A 
ATOM     31  C   UNL     1      -6.468  -6.967   7.279  0.00  0.00    +0.033 A 
ATOM     32  F   UNL     1      -9.363  -4.900   6.557  0.00  0.00    -0.205 F 
ENDBRANCH  23  26
ENDBRANCH  22  23
ENDBRANCH   4  22
TORSDOF 12
