REMARK  Name = ZINC23617020
REMARK  13 active torsions:
REMARK  status: ('A' for Active; 'I' for Inactive)
REMARK    1  A    between atoms: C_1  and  C_2
REMARK    2  A    between atoms: C_3  and  C_7
REMARK    3  A    between atoms: C_10  and  S_13
REMARK    4  A    between atoms: N_11  and  N_12
REMARK    5  A    between atoms: S_13  and  C_14
REMARK    6  A    between atoms: C_14  and  C_16
REMARK    7  A    between atoms: C_14  and  C_17
REMARK    8  A    between atoms: N_19  and  C_20
REMARK    9  A    between atoms: C_21  and  C_29
REMARK   10  A    between atoms: C_29  and  O_31
REMARK   11  A    between atoms: O_31  and  C_32
REMARK   12  A    between atoms: C_32  and  C_33
REMARK   13  A    between atoms: C_32  and  C_34
REMARK                            x       y       z     vdW  Elec       q    Type
REMARK                         _______ _______ _______ _____ _____    ______ ____
ROOT
ATOM      1  C   UNL     1       1.634   4.437   0.009  0.00  0.00    +0.231 C 
ATOM      2  O   UNL     1       0.422   4.401   0.021  0.00  0.00    -0.274 OA
ATOM      3  N   UNL     1       2.342   3.289  -0.003  0.00  0.00    -0.278 N 
ATOM      4  H   UNL     1       3.441   3.321  -0.014  0.00  0.00    +0.155 HD
ENDROOT
BRANCH   3   5
ATOM      5  C   UNL     1       1.684   2.070  -0.003  0.00  0.00    +0.086 A 
ATOM      6  C   UNL     1       2.232   0.793  -0.015  0.00  0.00    +0.091 A 
ATOM      7  C   UNL     1       1.312  -0.332  -0.012  0.00  0.00    -0.021 A 
ATOM      8  C   UNL     1       0.002  -0.004   0.002  0.00  0.00    -0.004 A 
ATOM      9  S   UNL     1      -0.022   1.766   0.012  0.00  0.00    -0.077 S 
ATOM     10  C   UNL     1      -1.164  -0.944   0.007  0.00  0.00    +0.043 C 
ATOM     11  C   UNL     1      -0.661  -2.341  -0.384  0.00  0.00    +0.005 C 
ATOM     12  C   UNL     1       0.589  -2.663   0.440  0.00  0.00    +0.005 C 
ATOM     13  C   UNL     1       1.756  -1.789  -0.024  0.00  0.00    +0.037 C 
BRANCH   6  14
ATOM     14  C   UNL     1       3.682   0.590  -0.030  0.00  0.00    +0.342 C 
ATOM     15  O   UNL     1       4.274   0.511  -1.090  0.00  0.00    -0.245 OA
BRANCH  14  16
ATOM     16  O   UNL     1       4.361   0.489   1.130  0.00  0.00    -0.458 OA
BRANCH  16  17
ATOM     17  C   UNL     1       5.796   0.287   1.039  0.00  0.00    +0.171 C 
ATOM     18  C   UNL     1       6.478   0.915   2.256  0.00  0.00    +0.052 C 
ATOM     19  C   UNL     1       6.099  -1.212   1.001  0.00  0.00    +0.052 C 
ENDBRANCH  16  17
ENDBRANCH  14  16
ENDBRANCH   6  14
ENDBRANCH   3   5
BRANCH   1  20
ATOM     20  C   UNL     1       2.350   5.763   0.009  0.00  0.00    +0.137 C 
ATOM     21  C   UNL     1       2.688   6.159  -1.430  0.00  0.00    +0.029 C 
BRANCH  20  22
ATOM     22  S   UNL     1       1.282   7.024   0.747  0.00  0.00    -0.072 S 
BRANCH  22  26
ATOM     23  C   UNL     1       3.273  10.375   1.025  0.00  0.00    +0.185 A 
ATOM     24  N   UNL     1       4.150   9.562   0.483  0.00  0.00    -0.127 NA
ATOM     25  N   UNL     1       3.632   8.396   0.332  0.00  0.00    -0.121 NA
ATOM     26  C   UNL     1       2.390   8.395   0.758  0.00  0.00    +0.209 A 
ATOM     27  N   UNL     1       2.119   9.653   1.218  0.00  0.00    -0.224 N 
BRANCH  23  30
ATOM     28  C   UNL     1       5.912  12.012   0.593  0.00  0.00    +0.087 C 
ATOM     29  C   UNL     1       4.624  12.524   1.184  0.00  0.00    +0.112 A 
ATOM     30  C   UNL     1       3.487  11.799   1.364  0.00  0.00    +0.061 A 
ATOM     31  C   UNL     1       2.519  12.721   1.970  0.00  0.00    +0.053 A 
ATOM     32  C   UNL     1       3.154  13.898   2.092  0.00  0.00    +0.196 A 
ATOM     33  O   UNL     1       4.403  13.773   1.619  0.00  0.00    -0.467 OA
ENDBRANCH  23  30
BRANCH  27  34
ATOM     34  N   UNL     1       0.946  10.101   1.757  0.00  0.00    -0.295 N 
ATOM     35  H   UNL     1       0.090   9.416   1.856  0.00  0.00    +0.163 HD
ATOM     36  H   UNL     1       0.857  11.145   2.091  0.00  0.00    +0.163 HD
ENDBRANCH  27  34
ENDBRANCH  22  26
ENDBRANCH  20  22
ENDBRANCH   1  20
TORSDOF 9
