REMARK  Name = ZINC13500087
REMARK  12 active torsions:
REMARK  status: ('A' for Active; 'I' for Inactive)
REMARK    1  A    between atoms: C_1  and  C_2
REMARK    2  A    between atoms: C_2  and  C_3
REMARK    3  A    between atoms: C_3  and  C_4
REMARK    4  A    between atoms: C_4  and  C_6
REMARK    5  A    between atoms: C_4  and  N_72
REMARK    6  A    between atoms: N_10  and  C_11
REMARK    7  A    between atoms: C_11  and  C_12
REMARK    8  A    between atoms: C_17  and  C_18
REMARK    9  A    between atoms: C_17  and  N_72
REMARK   10  A    between atoms: C_22  and  C_31
REMARK   11  A    between atoms: C_24  and  C_30
REMARK   12  A    between atoms: C_32  and  N_72
REMARK                            x       y       z     vdW  Elec       q    Type
REMARK                         _______ _______ _______ _____ _____    ______ ____
ROOT
ATOM      1  N   UNL     1      -0.365   8.043  -0.716  0.00  0.00    +0.391 N 
ATOM      2  H   UNL     1       0.276   7.594  -1.382  0.00  0.00    -0.080 HD
ENDROOT
BRANCH   1   3
ATOM      3  C   UNL     1      -1.669   7.348  -0.762  0.00  0.00    -0.067 C 
ATOM      4  C   UNL     1      -1.445   5.928  -1.286  0.00  0.00    -0.015 C 
ATOM      5  C   UNL     1      -2.784   5.192  -1.352  0.00  0.00    -0.002 C 
ATOM      6  C   UNL     1      -3.731   5.940  -2.293  0.00  0.00    -0.000 C 
ATOM      7  C   UNL     1      -3.955   7.360  -1.770  0.00  0.00    -0.002 C 
ATOM      8  C   UNL     1      -2.615   8.096  -1.703  0.00  0.00    -0.015 C 
ENDBRANCH   1   3
BRANCH   1   9
ATOM      9  C   UNL     1      -0.534   9.461  -1.096  0.00  0.00    +0.003 C 
BRANCH   9  10
ATOM     10  C   UNL     1      -1.319  10.200  -0.043  0.00  0.00    +0.139 A 
ATOM     11  N   UNL     1      -1.433   9.873   1.222  0.00  0.00    -0.115 NA
ATOM     12  N   UNL     1      -2.184  10.750   1.794  0.00  0.00    -0.023 NA
ATOM     13  N   UNL     1      -2.553  11.627   0.927  0.00  0.00    -0.044 NA
ATOM     14  N   UNL     1      -2.036  11.326  -0.216  0.00  0.00    -0.223 N 
BRANCH  14  15
ATOM     15  C   UNL     1      -2.200  12.068  -1.469  0.00  0.00    +0.221 C 
BRANCH  15  16
ATOM     16  C   UNL     1      -3.595  11.854  -1.999  0.00  0.00    +0.126 A 
ATOM     17  C   UNL     1      -4.677  12.588  -1.683  0.00  0.00    +0.046 A 
ATOM     18  C   UNL     1      -5.765  12.045  -2.405  0.00  0.00    +0.041 A 
ATOM     19  C   UNL     1      -5.284  11.007  -3.112  0.00  0.00    +0.195 A 
ATOM     20  O   UNL     1      -3.969  10.896  -2.862  0.00  0.00    -0.466 OA
ENDBRANCH  15  16
ENDBRANCH  14  15
ENDBRANCH   9  10
BRANCH   9  21
ATOM     21  C   UNL     1       0.848  10.101  -1.244  0.00  0.00    -0.008 C 
BRANCH  21  23
ATOM     22  C   UNL     1       3.037   9.963  -2.439  0.00  0.00    +0.004 C 
ATOM     23  C   UNL     1       1.616   9.401  -2.366  0.00  0.00    -0.005 C 
ENDBRANCH  21  23
ENDBRANCH   9  21
ENDBRANCH   1   9
BRANCH   1  24
ATOM     24  C   UNL     1       0.211   7.949   0.642  0.00  0.00    -0.036 C 
BRANCH  24  25
ATOM     25  C   UNL     1       0.818   6.580   0.815  0.00  0.00    +0.001 A 
ATOM     26  C   UNL     1       2.139   6.391   0.571  0.00  0.00    +0.017 A 
ATOM     27  C   UNL     1       2.698   5.050   0.748  0.00  0.00    -0.001 A 
ATOM     28  C   UNL     1       4.052   4.793   0.511  0.00  0.00    +0.013 A 
ATOM     29  C   UNL     1       4.543   3.531   0.685  0.00  0.00    -0.050 A 
ATOM     30  C   UNL     1       3.709   2.499   1.096  0.00  0.00    +0.008 A 
ATOM     31  C   UNL     1       2.370   2.728   1.330  0.00  0.00    -0.026 A 
ATOM     32  C   UNL     1       1.849   4.007   1.164  0.00  0.00    +0.052 A 
ATOM     33  N   UNL     1       0.515   4.265   1.396  0.00  0.00    -0.322 N 
ATOM     34  H   UNL     1      -0.068   3.545   1.683  0.00  0.00    +0.169 HD
ATOM     35  C   UNL     1       0.011   5.500   1.231  0.00  0.00    +0.251 A 
ATOM     36  O   UNL     1      -1.174   5.692   1.445  0.00  0.00    -0.268 OA
ATOM     37  C   UNL     1       1.476   1.597   1.769  0.00  0.00    +0.046 C 
ATOM     38  C   UNL     1       6.002   3.255   0.430  0.00  0.00    +0.044 C 
ENDBRANCH  24  25
ENDBRANCH   1  24
TORSDOF 9
