REMARK  Name = ZINC62321582
REMARK  4 active torsions:
REMARK  status: ('A' for Active; 'I' for Inactive)
REMARK    1  A    between atoms: C_3  and  N_22
REMARK    2  A    between atoms: N_7  and  C_15
REMARK    3  A    between atoms: C_9  and  C_12
REMARK    4  A    between atoms: C_15  and  C_16
REMARK                            x       y       z     vdW  Elec       q    Type
REMARK                         _______ _______ _______ _____ _____    ______ ____
ROOT
ATOM      1  C   UNL     1      -0.013   1.371   0.110  0.00  0.00    +0.004 A 
ATOM      2  C   UNL     1       1.165   2.097   0.103  0.00  0.00    +0.023 A 
ATOM      3  C   UNL     1       2.384   1.446  -0.013  0.00  0.00    +0.037 A 
ATOM      4  C   UNL     1       2.411   0.049  -0.123  0.00  0.00    +0.067 A 
ATOM      5  C   UNL     1       1.211  -0.683  -0.114  0.00  0.00    +0.055 A 
ATOM      6  C   UNL     1       0.002  -0.004   0.003  0.00  0.00    +0.026 A 
ATOM      7  N   UNL     1       1.233  -2.057  -0.222  0.00  0.00    -0.343 N 
ATOM      8  C   UNL     1       2.369  -2.757  -0.337  0.00  0.00    +0.105 A 
ATOM      9  C   UNL     1       3.609  -2.149  -0.357  0.00  0.00    +0.126 A 
ATOM     10  C   UNL     1       3.683  -0.681  -0.248  0.00  0.00    +0.205 A 
ATOM     11  O   UNL     1       4.752  -0.096  -0.260  0.00  0.00    -0.286 OA
ENDROOT
BRANCH   9  12
ATOM     12  C   UNL     1       4.830  -2.950  -0.483  0.00  0.00    +0.392 C 
ATOM     13  O   UNL     1       4.757  -4.168  -0.573  0.00  0.00    -0.240 OA
ATOM     14  O   UNL     1       5.924  -2.400  -0.499  0.00  0.00    -0.240 OA
ENDBRANCH   9  12
BRANCH   3  15
ATOM     15  N   UNL     1       3.569   2.173  -0.022  0.00  0.00    -0.357 N 
ATOM     16  H   UNL     1       3.544   3.140  -0.090  0.00  0.00    +0.142 HD
ATOM     17  H   UNL     1       4.421   1.713   0.041  0.00  0.00    +0.142 HD
ENDBRANCH   3  15
BRANCH   7  18
ATOM     18  C   UNL     1      -0.039  -2.783  -0.209  0.00  0.00    +0.153 C 
BRANCH  18  19
ATOM     19  C   UNL     1      -0.560  -2.924  -1.641  0.00  0.00    +0.138 C 
ATOM     20  C   UNL     1      -1.924  -3.659  -1.647  0.00  0.00    +0.035 C 
ATOM     21  C   UNL     1      -2.536  -3.134  -2.974  0.00  0.00    +0.031 C 
ATOM     22  C   UNL     1      -1.991  -1.691  -3.039  0.00  0.00    +0.160 C 
ATOM     23  O   UNL     1      -0.826  -1.630  -2.205  0.00  0.00    -0.375 OA
ENDBRANCH  18  19
ENDBRANCH   7  18
TORSDOF 4
