REMARK  Name = ZINC59044956
REMARK  10 active torsions:
REMARK  status: ('A' for Active; 'I' for Inactive)
REMARK    1  A    between atoms: C_1  and  C_2
REMARK    2  A    between atoms: C_2  and  C_3
REMARK    3  A    between atoms: C_3  and  S_4
REMARK    4  A    between atoms: S_4  and  C_5
REMARK    5  A    between atoms: C_10  and  N_11
REMARK    6  A    between atoms: C_12  and  C_14
REMARK    7  A    between atoms: C_14  and  S_15
REMARK    8  A    between atoms: S_15  and  C_16
REMARK    9  A    between atoms: C_19  and  C_22
REMARK   10  A    between atoms: N_20  and  N_21
REMARK                            x       y       z     vdW  Elec       q    Type
REMARK                         _______ _______ _______ _____ _____    ______ ____
ROOT
ATOM      1  S   UNL     1      -2.584  -9.138   0.309  0.00  0.00    -0.075 S 
ENDROOT
BRANCH   1   2
ATOM      2  C   UNL     1      -1.227 -10.257   0.419  0.00  0.00    +0.209 A 
ATOM      3  N   UNL     1       0.048  -9.938   0.421  0.00  0.00    -0.121 NA
ATOM      4  N   UNL     1       0.767 -10.999   0.513  0.00  0.00    -0.127 NA
ATOM      5  C   UNL     1      -0.004 -12.060   0.576  0.00  0.00    +0.183 A 
ATOM      6  N   UNL     1      -1.305 -11.616   0.523  0.00  0.00    -0.224 N 
BRANCH   5   7
ATOM      7  C   UNL     1       0.442 -13.465   0.687  0.00  0.00    +0.035 A 
ATOM      8  C   UNL     1      -0.067 -14.433  -0.180  0.00  0.00    +0.013 A 
ATOM      9  C   UNL     1       0.354 -15.742  -0.071  0.00  0.00    +0.001 A 
ATOM     10  C   UNL     1       1.278 -16.097   0.896  0.00  0.00    +0.001 A 
ATOM     11  C   UNL     1       1.787 -15.143   1.759  0.00  0.00    +0.016 A 
ATOM     12  C   UNL     1       1.379 -13.828   1.657  0.00  0.00    +0.029 A 
ATOM     13 BR   UNL     1       2.082 -12.524   2.832  0.00  0.00    -0.050 Br
ENDBRANCH   5   7
BRANCH   6  14
ATOM     14  N   UNL     1      -2.438 -12.378   0.564  0.00  0.00    -0.295 N 
ATOM     15  H   UNL     1      -2.768 -12.585  -0.367  0.00  0.00    +0.163 HD
ATOM     16  H   UNL     1      -2.286 -13.225   1.090  0.00  0.00    +0.163 HD
ENDBRANCH   6  14
ENDBRANCH   1   2
BRANCH   1  17
ATOM     17  C   UNL     1      -1.799  -7.506   0.196  0.00  0.00    +0.173 C 
BRANCH  17  19
ATOM     18  N   UNL     1      -2.511  -5.146   0.000  0.00  0.00    -0.284 N 
ATOM     19  C   UNL     1      -2.862  -6.443   0.095  0.00  0.00    +0.228 C 
ATOM     20  O   UNL     1      -4.035  -6.755   0.100  0.00  0.00    -0.275 OA
ATOM     21  H   UNL     1      -1.576  -4.901  -0.085  0.00  0.00    +0.155 HD
BRANCH  18  27
ATOM     22  C   UNL     1      -3.251  -2.908  -0.562  0.00  0.00    +0.029 A 
ATOM     23  C   UNL     1      -4.233  -1.927  -0.539  0.00  0.00    +0.016 A 
ATOM     24  C   UNL     1      -5.448  -2.181   0.070  0.00  0.00    +0.001 A 
ATOM     25  C   UNL     1      -5.689  -3.410   0.656  0.00  0.00    +0.002 A 
ATOM     26  C   UNL     1      -4.716  -4.393   0.638  0.00  0.00    +0.024 A 
ATOM     27  C   UNL     1      -3.496  -4.149   0.025  0.00  0.00    +0.047 A 
BRANCH  22  28
ATOM     28  S   UNL     1      -1.701  -2.588  -1.337  0.00  0.00    -0.123 S 
BRANCH  28  29
ATOM     29  C   UNL     1      -1.855  -0.883  -1.938  0.00  0.00    +0.074 C 
BRANCH  29  31
ATOM     30  C   UNL     1      -0.689   0.967  -3.148  0.00  0.00    +0.004 C 
ATOM     31  C   UNL     1      -0.560  -0.471  -2.641  0.00  0.00    +0.008 C 
ENDBRANCH  29  31
ENDBRANCH  28  29
ENDBRANCH  22  28
ENDBRANCH  18  27
ENDBRANCH  17  19
ENDBRANCH   1  17
TORSDOF 9
