REMARK  Name = ZINC12550612
REMARK  6 active torsions:
REMARK  status: ('A' for Active; 'I' for Inactive)
REMARK    1  A    between atoms: C_2  and  C_26
REMARK    2  A    between atoms: N_11  and  C_14
REMARK    3  A    between atoms: C_14  and  C_15
REMARK    4  A    between atoms: N_17  and  C_18
REMARK    5  A    between atoms: C_18  and  C_19
REMARK    6  A    between atoms: C_19  and  C_20
REMARK                            x       y       z     vdW  Elec       q    Type
REMARK                         _______ _______ _______ _____ _____    ______ ____
ROOT
ATOM      1  C   UNL     1      -2.949   0.001  -4.900  0.00  0.00    +0.037 A 
ATOM      2  C   UNL     1      -3.908   1.004  -4.981  0.00  0.00    +0.074 A 
ATOM      3  C   UNL     1      -4.181   1.769  -3.866  0.00  0.00    +0.125 A 
ATOM      4  N   UNL     1      -3.546   1.561  -2.728  0.00  0.00    -0.238 NA
ATOM      5  C   UNL     1      -2.626   0.616  -2.610  0.00  0.00    +0.140 A 
ATOM      6  C   UNL     1      -2.295  -0.191  -3.696  0.00  0.00    +0.081 A 
ATOM      7 CL   UNL     1      -1.083  -1.424  -3.539  0.00  0.00    -0.080 Cl
ATOM      8  N   UNL     1      -1.981   0.431  -1.392  0.00  0.00    -0.318 N 
ATOM      9  C   UNL     1      -2.908   0.628  -0.269  0.00  0.00    +0.088 C 
ATOM     10  C   UNL     1      -2.182   0.339   1.046  0.00  0.00    -0.059 C 
ATOM     11  N   UNL     1      -1.018   1.227   1.167  0.00  0.00    +0.387 N 
ATOM     12  C   UNL     1      -0.090   1.030   0.044  0.00  0.00    -0.059 C 
ATOM     13  C   UNL     1      -0.817   1.320  -1.272  0.00  0.00    +0.088 C 
ATOM     14  H   UNL     1      -1.378   2.266   1.131  0.00  0.00    -0.081 HD
ENDROOT
BRANCH   2  15
ATOM     15  C   UNL     1      -4.641   1.252  -6.274  0.00  0.00    +0.419 C 
ATOM     16  F   UNL     1      -5.547   2.304  -6.101  0.00  0.00    -0.166 F 
ATOM     17  F   UNL     1      -3.723   1.587  -7.274  0.00  0.00    -0.166 F 
ATOM     18  F   UNL     1      -5.335   0.096  -6.646  0.00  0.00    -0.166 F 
ENDBRANCH   2  15
BRANCH  11  19
ATOM     19  C   UNL     1      -0.336   1.031   2.453  0.00  0.00    +0.019 C 
BRANCH  19  20
ATOM     20  C   UNL     1      -1.248   1.457   3.575  0.00  0.00    +0.196 C 
ATOM     21  O   UNL     1      -2.311   1.986   3.325  0.00  0.00    -0.278 OA
ATOM     22  N   UNL     1      -0.883   1.251   4.855  0.00  0.00    -0.317 N 
ATOM     23  H   UNL     1       0.081   0.772   5.082  0.00  0.00    +0.149 HD
BRANCH  22  24
ATOM     24  C   UNL     1      -1.770   1.665   5.946  0.00  0.00    +0.108 C 
BRANCH  24  25
ATOM     25  C   UNL     1      -1.123   1.319   7.288  0.00  0.00    +0.049 C 
BRANCH  25  26
ATOM     26  C   UNL     1      -2.035   1.745   8.410  0.00  0.00    -0.072 C 
ATOM     27  C   UNL     1      -2.839   0.861   8.907  0.00  0.00    -0.028 C 
ATOM     28  C   UNL     1      -3.810   1.138  10.017  0.00  0.00    +0.027 C 
ATOM     29  C   UNL     1      -3.428   2.430  10.742  0.00  0.00    +0.004 C 
ATOM     30  C   UNL     1      -3.200   3.526   9.693  0.00  0.00    +0.005 C 
ATOM     31  C   UNL     1      -1.950   3.166   8.885  0.00  0.00    +0.030 C 
ENDBRANCH  25  26
ENDBRANCH  24  25
ENDBRANCH  22  24
ENDBRANCH  19  20
ENDBRANCH  11  19
TORSDOF 6
