REMARK  Name = ZINC66773506
REMARK  6 active torsions:
REMARK  status: ('A' for Active; 'I' for Inactive)
REMARK    1  A    between atoms: C_1  and  C_2
REMARK    2  A    between atoms: C_2  and  C_4
REMARK    3  A    between atoms: C_7  and  O_11
REMARK    4  A    between atoms: O_11  and  C_12
REMARK    5  A    between atoms: C_12  and  C_14
REMARK    6  A    between atoms: C_17  and  C_19
REMARK                            x       y       z     vdW  Elec       q    Type
REMARK                         _______ _______ _______ _____ _____    ______ ____
ROOT
ATOM      1  C   UNL     1       0.222  -4.860  -6.093  0.00  0.00    +0.156 A 
ATOM      2  C   UNL     1       0.337  -6.235  -6.079  0.00  0.00    +0.082 A 
ATOM      3  S   UNL     1       0.432  -6.608  -7.718  0.00  0.00    -0.075 S 
ATOM      4  C   UNL     1       0.319  -4.949  -8.365  0.00  0.00    +0.109 A 
ATOM      5  N   UNL     1       0.210  -4.232  -7.262  0.00  0.00    -0.232 NA
ENDROOT
BRANCH   4   6
ATOM      6  C   UNL     1       0.336  -4.496  -9.772  0.00  0.00    +0.011 A 
ATOM      7  C   UNL     1       0.240  -3.136 -10.071  0.00  0.00    +0.014 A 
ATOM      8  C   UNL     1       0.256  -2.716 -11.384  0.00  0.00    +0.050 A 
ATOM      9  C   UNL     1       0.368  -3.642 -12.413  0.00  0.00    +0.162 A 
ATOM     10  C   UNL     1       0.466  -4.999 -12.122  0.00  0.00    +0.163 A 
ATOM     11  C   UNL     1       0.454  -5.426 -10.805  0.00  0.00    +0.060 A 
ATOM     12  O   UNL     1       0.584  -5.919 -13.119  0.00  0.00    -0.485 OA
ATOM     13  C   UNL     1       0.224  -5.489 -14.436  0.00  0.00    +0.270 C 
ATOM     14  C   UNL     1       0.868  -4.119 -14.688  0.00  0.00    +0.270 C 
ATOM     15  O   UNL     1       0.377  -3.205 -13.702  0.00  0.00    -0.485 OA
ENDBRANCH   4   6
BRANCH   1  16
ATOM     16  C   UNL     1       0.109  -4.105  -4.836  0.00  0.00    +0.363 C 
ATOM     17  O   UNL     1       0.121  -4.691  -3.771  0.00  0.00    -0.243 OA
BRANCH  16  18
ATOM     18  O   UNL     1      -0.007  -2.761  -4.864  0.00  0.00    -0.421 OA
BRANCH  18  22
ATOM     19  C   UNL     1       0.058  -0.738  -1.269  0.00  0.00    +0.052 A 
ATOM     20  C   UNL     1       1.216  -1.362  -1.751  0.00  0.00    +0.018 A 
ATOM     21  C   UNL     1       1.187  -2.030  -2.942  0.00  0.00    +0.047 A 
ATOM     22  C   UNL     1       0.011  -2.095  -3.682  0.00  0.00    +0.135 A 
ATOM     23  C   UNL     1      -1.145  -1.482  -3.216  0.00  0.00    +0.085 A 
ATOM     24  C   UNL     1      -1.130  -0.808  -2.011  0.00  0.00    +0.137 A 
ATOM     25  F   UNL     1      -2.253  -0.215  -1.552  0.00  0.00    -0.205 F 
BRANCH  19  27
ATOM     26  C   UNL     1       1.365   0.054   0.804  0.00  0.00    +0.091 C 
ATOM     27  C   UNL     1       0.087  -0.019   0.010  0.00  0.00    +0.163 C 
ATOM     28  O   UNL     1      -0.918   0.516   0.427  0.00  0.00    -0.292 OA
ENDBRANCH  19  27
ENDBRANCH  18  22
ENDBRANCH  16  18
ENDBRANCH   1  16
TORSDOF 5
