REMARK  Name = ZINC14471322
REMARK  7 active torsions:
REMARK  status: ('A' for Active; 'I' for Inactive)
REMARK    1  A    between atoms: C_1  and  C_2
REMARK    2  A    between atoms: C_2  and  C_3
REMARK    3  A    between atoms: C_3  and  C_4
REMARK    4  A    between atoms: C_4  and  N_5
REMARK    5  A    between atoms: C_6  and  C_8
REMARK    6  A    between atoms: C_21  and  C_24
REMARK    7  A    between atoms: C_28  and  N_30
REMARK                            x       y       z     vdW  Elec       q    Type
REMARK                         _______ _______ _______ _____ _____    ______ ____
ROOT
ATOM      1  C   UNL     1      -5.109   5.995  -0.185  0.00  0.00    +0.037 A 
ATOM      2  C   UNL     1      -4.780   6.221   1.155  0.00  0.00    +0.015 A 
ATOM      3  C   UNL     1      -3.462   6.385   1.511  0.00  0.00    +0.024 A 
ATOM      4  C   UNL     1      -2.461   6.326   0.544  0.00  0.00    +0.031 A 
ATOM      5  C   UNL     1      -2.777   6.103  -0.791  0.00  0.00    -0.019 A 
ATOM      6  C   UNL     1      -4.103   5.938  -1.150  0.00  0.00    +0.019 A 
ATOM      7  C   UNL     1      -1.733   6.035  -1.860  0.00  0.00    +0.049 C 
ATOM      8  C   UNL     1      -1.462   4.599  -2.318  0.00  0.00    -0.023 C 
ATOM      9  C   UNL     1      -0.188   4.434  -2.582  0.00  0.00    -0.030 C 
ATOM     10  C   UNL     1       0.573   5.725  -2.350  0.00  0.00    +0.033 C 
ATOM     11  C   UNL     1      -0.351   6.520  -1.381  0.00  0.00    +0.029 C 
ATOM     12  C   UNL     1      -0.079   6.003   0.035  0.00  0.00    +0.105 C 
ATOM     13  N   UNL     1      -1.144   6.475   0.926  0.00  0.00    -0.336 N 
ATOM     14  H   UNL     1      -0.932   6.905   1.769  0.00  0.00    +0.147 HD
ENDROOT
BRANCH  12  15
ATOM     15  C   UNL     1      -0.059   4.497   0.027  0.00  0.00    -0.025 A 
ATOM     16  C   UNL     1      -1.247   3.789   0.034  0.00  0.00    +0.007 A 
ATOM     17  C   UNL     1      -1.229   2.408   0.021  0.00  0.00    +0.022 A 
ATOM     18  C   UNL     1      -0.021   1.732   0.012  0.00  0.00    +0.071 A 
ATOM     19  C   UNL     1       1.167   2.440   0.004  0.00  0.00    +0.145 A 
ATOM     20  C   UNL     1       1.147   3.822   0.012  0.00  0.00    +0.039 A 
ATOM     21 CL   UNL     1       0.002  -0.004   0.002  0.00  0.00    -0.081 Cl
BRANCH  19  22
ATOM     22  N   UNL     1       2.459   1.718  -0.012  0.00  0.00    +0.058 N 
ATOM     23  O   UNL     1       3.505   2.341  -0.018  0.00  0.00    -0.126 OA
ATOM     24  O   UNL     1       2.476   0.500  -0.018  0.00  0.00    -0.126 OA
ENDBRANCH  19  22
ENDBRANCH  12  15
BRANCH   1  26
ATOM     25  N   UNL     1      -7.492   5.874   0.354  0.00  0.00    -0.311 N 
ATOM     26  C   UNL     1      -6.520   5.818  -0.579  0.00  0.00    +0.244 C 
ATOM     27  O   UNL     1      -6.806   5.622  -1.744  0.00  0.00    -0.270 OA
ATOM     28  H   UNL     1      -7.263   6.030   1.283  0.00  0.00    +0.149 HD
BRANCH  25  29
ATOM     29  C   UNL     1      -8.893   5.698  -0.037  0.00  0.00    +0.104 C 
BRANCH  29  30
ATOM     30  C   UNL     1      -9.785   5.806   1.201  0.00  0.00    +0.018 C 
BRANCH  30  32
ATOM     31  C   UNL     1     -12.140   5.730   2.031  0.00  0.00    +0.004 C 
ATOM     32  C   UNL     1     -11.248   5.623   0.793  0.00  0.00    -0.002 C 
ENDBRANCH  30  32
ENDBRANCH  29  30
ENDBRANCH  25  29
ENDBRANCH   1  26
TORSDOF 6
