REMARK  Name = ZINC15958835
REMARK  5 active torsions:
REMARK  status: ('A' for Active; 'I' for Inactive)
REMARK    1  A    between atoms: C_1  and  C_2
REMARK    2  A    between atoms: C_17  and  C_20
REMARK    3  A    between atoms: C_20  and  C_21
REMARK    4  A    between atoms: N_26  and  C_29
REMARK    5  A    between atoms: C_29  and  C_30
REMARK                            x       y       z     vdW  Elec       q    Type
REMARK                         _______ _______ _______ _____ _____    ______ ____
ROOT
ATOM      1  C   UNL     1      -0.018   1.503   0.010  0.00  0.00    +0.044 C 
ATOM      2  C   UNL     1       0.002  -0.004   0.002  0.00  0.00    -0.049 A 
ATOM      3  C   UNL     1       0.006  -0.691  -1.199  0.00  0.00    +0.011 A 
ATOM      4  C   UNL     1       0.025  -2.068  -1.206  0.00  0.00    +0.005 A 
ATOM      5  C   UNL     1       0.041  -2.783  -0.013  0.00  0.00    +0.057 A 
ATOM      6  C   UNL     1       0.038  -2.084   1.193  0.00  0.00    +0.063 A 
ATOM      7  C   UNL     1       0.023  -0.704   1.194  0.00  0.00    +0.025 A 
ATOM      8 CL   UNL     1       0.058  -2.951   2.697  0.00  0.00    -0.082 Cl
ATOM      9  N   UNL     1       0.060  -4.156  -0.272  0.00  0.00    -0.282 N 
ATOM     10  C   UNL     1       0.057  -4.423  -1.593  0.00  0.00    +0.243 C 
ATOM     11  O   UNL     1       0.071  -5.520  -2.110  0.00  0.00    -0.273 OA
ATOM     12  C   UNL     1       0.033  -3.097  -2.301  0.00  0.00    +0.136 C 
ATOM     13  C   UNL     1       1.248  -2.928  -3.222  0.00  0.00    +0.122 C 
ATOM     14  C   UNL     1       0.707  -2.132  -4.442  0.00  0.00    +0.107 C 
ATOM     15  C   UNL     1      -0.782  -1.879  -4.121  0.00  0.00    +0.076 C 
ATOM     16  N   UNL     1      -1.152  -2.969  -3.170  0.00  0.00    -0.295 NA
ATOM     17  C   UNL     1       0.826  -3.116  -5.582  0.00  0.00    +0.227 C 
ATOM     18  O   UNL     1       0.502  -2.901  -6.730  0.00  0.00    -0.275 OA
ATOM     19  N   UNL     1       1.346  -4.262  -5.128  0.00  0.00    -0.237 N 
ATOM     20  C   UNL     1       1.633  -4.269  -3.805  0.00  0.00    +0.229 C 
ATOM     21  O   UNL     1       2.115  -5.191  -3.184  0.00  0.00    -0.275 OA
ATOM     22  H   UNL     1       0.074  -4.837   0.418  0.00  0.00    +0.155 HD
ATOM     23  H   UNL     1      -1.341  -3.835  -3.653  0.00  0.00    +0.124 HD
ENDROOT
BRANCH  15  24
ATOM     24  C   UNL     1      -1.627  -1.990  -5.392  0.00  0.00    +0.115 C 
BRANCH  24  25
ATOM     25  C   UNL     1      -3.054  -1.620  -5.080  0.00  0.00    +0.212 C 
ATOM     26  O   UNL     1      -3.365  -1.299  -3.952  0.00  0.00    -0.276 OA
ATOM     27  N   UNL     1      -3.985  -1.645  -6.054  0.00  0.00    -0.329 N 
ATOM     28  H   UNL     1      -3.736  -1.902  -6.956  0.00  0.00    +0.145 HD
ATOM     29  H   UNL     1      -4.903  -1.407  -5.854  0.00  0.00    +0.145 HD
ENDBRANCH  24  25
ENDBRANCH  15  24
BRANCH  19  30
ATOM     30  C   UNL     1       1.591  -5.419  -5.993  0.00  0.00    +0.151 C 
BRANCH  30  31
ATOM     31  C   UNL     1       2.983  -5.332  -6.564  0.00  0.00    -0.030 A 
ATOM     32  C   UNL     1       3.199  -4.676  -7.762  0.00  0.00    +0.005 A 
ATOM     33  C   UNL     1       4.475  -4.597  -8.286  0.00  0.00    +0.000 A 
ATOM     34  C   UNL     1       5.536  -5.173  -7.613  0.00  0.00    +0.000 A 
ATOM     35  C   UNL     1       5.320  -5.829  -6.415  0.00  0.00    +0.000 A 
ATOM     36  C   UNL     1       4.044  -5.905  -5.888  0.00  0.00    +0.005 A 
ENDBRANCH  30  31
ENDBRANCH  19  30
TORSDOF 4
