REMARK  Name = ZINC39560945
REMARK  8 active torsions:
REMARK  status: ('A' for Active; 'I' for Inactive)
REMARK    1  A    between atoms: C_1  and  N_2
REMARK    2  A    between atoms: C_6  and  C_7
REMARK    3  A    between atoms: C_7  and  N_8
REMARK    4  A    between atoms: N_8  and  C_9
REMARK    5  A    between atoms: C_12  and  C_34
REMARK    6  A    between atoms: C_28  and  C_30
REMARK    7  A    between atoms: C_30  and  O_32
REMARK    8  A    between atoms: O_32  and  C_33
REMARK                            x       y       z     vdW  Elec       q    Type
REMARK                         _______ _______ _______ _____ _____    ______ ____
ROOT
ATOM      1  C   UNL     1       1.873   0.584   4.260  0.00  0.00    -0.068 C 
ATOM      2  C   UNL     1       1.274  -0.567   5.072  0.00  0.00    +0.008 C 
ATOM      3  C   UNL     1       1.191  -0.162   6.546  0.00  0.00    +0.090 C 
ATOM      4  N   UNL     1       2.535   0.164   7.036  0.00  0.00    -0.274 NA
ATOM      5  C   UNL     1       3.097   1.312   6.307  0.00  0.00    +0.106 C 
ATOM      6  C   UNL     1       3.248   0.945   4.829  0.00  0.00    +0.009 C 
ATOM      7  C   UNL     1       4.449   1.631   6.895  0.00  0.00    +0.063 C 
ATOM      8  N   UNL     1       5.408   2.360   6.383  0.00  0.00    -0.250 NA
ATOM      9  C   UNL     1       6.444   2.389   7.233  0.00  0.00    +0.068 C 
ATOM     10  C   UNL     1       7.680   3.026   7.135  0.00  0.00    +0.028 C 
ATOM     11  C   UNL     1       8.581   2.869   8.209  0.00  0.00    -0.002 C 
ATOM     12  C   UNL     1       8.313   2.152   9.296  0.00  0.00    -0.022 C 
ATOM     13  C   UNL     1       7.029   1.411   9.541  0.00  0.00    +0.064 C 
ATOM     14  C   UNL     1       6.100   1.606   8.376  0.00  0.00    -0.013 C 
ATOM     15  C   UNL     1       4.861   1.143   8.155  0.00  0.00    -0.017 C 
ATOM     16  C   UNL     1       3.984   0.270   9.018  0.00  0.00    +0.067 C 
ATOM     17  C   UNL     1       2.547   0.374   8.487  0.00  0.00    +0.172 C 
ENDROOT
BRANCH   3  18
ATOM     18  C   UNL     1       0.625  -1.304   7.351  0.00  0.00    +0.005 A 
ATOM     19  C   UNL     1      -0.671  -1.239   7.825  0.00  0.00    +0.008 A 
ATOM     20  C   UNL     1      -1.190  -2.286   8.563  0.00  0.00    +0.000 A 
ATOM     21  C   UNL     1      -0.414  -3.399   8.828  0.00  0.00    +0.003 A 
ATOM     22  C   UNL     1       0.883  -3.466   8.354  0.00  0.00    +0.038 A 
ATOM     23  C   UNL     1       1.402  -2.420   7.610  0.00  0.00    +0.128 A 
ATOM     24  F   UNL     1       2.668  -2.486   7.142  0.00  0.00    -0.205 F 
ENDBRANCH   3  18
BRANCH   1  25
ATOM     25  N   UNL     1       2.015   0.172   2.857  0.00  0.00    +0.385 N 
ATOM     26  H   UNL     1       2.556  -0.679   2.810  0.00  0.00    -0.085 HD
ATOM     27  H   UNL     1       2.486   0.898   2.339  0.00  0.00    -0.085 HD
BRANCH  25  28
ATOM     28  C   UNL     1       0.686  -0.061   2.277  0.00  0.00    -0.028 C 
BRANCH  28  34
ATOM     29  C   UNL     1       0.975   1.816  -0.174  0.00  0.00    +0.148 C 
ATOM     30  N   UNL     1       0.959   0.352  -0.232  0.00  0.00    -0.355 N 
ATOM     31  C   UNL     1       1.073  -0.399  -1.363  0.00  0.00    +0.085 A 
ATOM     32  C   UNL     1       1.014  -1.700  -1.013  0.00  0.00    +0.019 A 
ATOM     33  C   UNL     1       0.857  -1.754   0.386  0.00  0.00    +0.021 A 
ATOM     34  C   UNL     1       0.832  -0.483   0.838  0.00  0.00    +0.001 A 
ENDBRANCH  28  34
ENDBRANCH  25  28
ENDBRANCH   1  25
BRANCH  17  35
ATOM     35  C   UNL     1       1.996   1.742   8.800  0.00  0.00    +0.325 C 
ATOM     36  O   UNL     1       2.408   2.709   8.204  0.00  0.00    -0.249 OA
BRANCH  35  37
ATOM     37  O   UNL     1       1.049   1.885   9.740  0.00  0.00    -0.467 OA
ATOM     38  C   UNL     1       0.573   3.210   9.984  0.00  0.00    +0.280 C 
ENDBRANCH  35  37
ENDBRANCH  17  35
TORSDOF 6
