REMARK  Name = ZINC03620011
REMARK  9 active torsions:
REMARK  status: ('A' for Active; 'I' for Inactive)
REMARK    1  A    between atoms: C_1  and  C_2
REMARK    2  A    between atoms: C_7  and  C_8
REMARK    3  A    between atoms: C_7  and  N_64
REMARK    4  A    between atoms: C_8  and  C_10
REMARK    5  A    between atoms: C_8  and  C_11
REMARK    6  A    between atoms: C_11  and  N_12
REMARK    7  A    between atoms: C_13  and  C_15
REMARK    8  A    between atoms: C_15  and  O_33
REMARK    9  A    between atoms: N_25  and  C_26
REMARK                            x       y       z     vdW  Elec       q    Type
REMARK                         _______ _______ _______ _____ _____    ______ ____
ROOT
ATOM      1  C   UNL     1      -2.664   5.250  -0.321  0.00  0.00    +0.247 C 
ATOM      2  C   UNL     1      -1.584   4.249   0.020  0.00  0.00    +0.034 A 
ATOM      3  C   UNL     1      -1.681   2.933  -0.370  0.00  0.00    +0.025 A 
ATOM      4  C   UNL     1      -0.674   2.042  -0.036  0.00  0.00    +0.018 A 
ATOM      5  C   UNL     1       0.428   2.479   0.678  0.00  0.00    +0.017 A 
ATOM      6  C   UNL     1       0.528   3.801   1.066  0.00  0.00    +0.025 A 
ATOM      7  C   UNL     1      -0.481   4.696   0.738  0.00  0.00    +0.043 A 
ATOM      8  N   UNL     1      -0.398   6.035   1.121  0.00  0.00    -0.269 N 
ATOM      9  C   UNL     1      -1.344   6.937   0.829  0.00  0.00    +0.314 C 
ATOM     10  O   UNL     1      -1.188   8.083   1.204  0.00  0.00    -0.252 OA
ATOM     11  N   UNL     1      -2.459   6.633   0.141  0.00  0.00    -0.214 N 
ATOM     12 BR   UNL     1      -0.801   0.230  -0.563  0.00  0.00    -0.050 Br
ATOM     13  H   UNL     1       0.381   6.327   1.621  0.00  0.00    +0.156 HD
ENDROOT
BRANCH  11  14
ATOM     14  C   UNL     1      -3.413   7.620  -0.134  0.00  0.00    +0.041 A 
ATOM     15  C   UNL     1      -3.271   8.433  -1.251  0.00  0.00    +0.024 A 
ATOM     16  C   UNL     1      -4.216   9.403  -1.522  0.00  0.00    +0.002 A 
ATOM     17  C   UNL     1      -5.297   9.572  -0.677  0.00  0.00    +0.000 A 
ATOM     18  C   UNL     1      -5.439   8.768   0.439  0.00  0.00    +0.002 A 
ATOM     19  C   UNL     1      -4.500   7.792   0.712  0.00  0.00    +0.024 A 
ENDBRANCH  11  14
BRANCH   1  21
ATOM     20  N   UNL     1      -1.770   5.618  -2.597  0.00  0.00    -0.311 N 
ATOM     21  C   UNL     1      -2.817   5.277  -1.819  0.00  0.00    +0.269 C 
ATOM     22  O   UNL     1      -3.882   4.993  -2.326  0.00  0.00    -0.270 OA
ATOM     23  H   UNL     1      -0.919   5.845  -2.192  0.00  0.00    +0.149 HD
BRANCH  20  24
ATOM     24  C   UNL     1      -1.919   5.644  -4.054  0.00  0.00    +0.105 C 
BRANCH  24  25
ATOM     25  C   UNL     1      -0.592   6.059  -4.695  0.00  0.00    -0.014 C 
ATOM     26  C   UNL     1      -0.261   7.498  -4.295  0.00  0.00    +0.007 C 
BRANCH  25  27
ATOM     27  C   UNL     1      -0.710   5.967  -6.217  0.00  0.00    -0.074 C 
BRANCH  27  34
ATOM     28  C   UNL     1       4.325   6.390  -8.889  0.00  0.00    +0.007 C 
ATOM     29  C   UNL     1       3.010   5.852  -8.323  0.00  0.00    -0.018 C 
ATOM     30  C   UNL     1       1.838   6.649  -8.904  0.00  0.00    -0.016 C 
ATOM     31  C   UNL     1       0.530   6.146  -8.288  0.00  0.00    -0.079 C 
ATOM     32  C   UNL     1       1.668   5.516  -6.244  0.00  0.00    -0.079 C 
ATOM     33  C   UNL     1       3.010   5.999  -6.799  0.00  0.00    -0.016 C 
ATOM     34  N   UNL     1       0.585   6.338  -6.823  0.00  0.00    +0.380 N 
ATOM     35  H   UNL     1       0.775   7.327  -6.624  0.00  0.00    -0.082 HD
ENDBRANCH  27  34
ENDBRANCH  25  27
ENDBRANCH  24  25
ENDBRANCH  20  24
ENDBRANCH   1  21
BRANCH   1  36
ATOM     36  O   UNL     1      -3.894   4.777   0.234  0.00  0.00    -0.360 OA
ATOM     37  H   UNL     1      -4.170   3.914  -0.101  0.00  0.00    +0.213 HD
ENDBRANCH   1  36
TORSDOF 7
