REMARK  Name = ZINC08876829
REMARK  6 active torsions:
REMARK  status: ('A' for Active; 'I' for Inactive)
REMARK    1  A    between atoms: C_1  and  C_2
REMARK    2  A    between atoms: C_4  and  C_32
REMARK    3  A    between atoms: C_9  and  C_17
REMARK    4  A    between atoms: N_19  and  C_20
REMARK    5  A    between atoms: C_25  and  O_26
REMARK    6  A    between atoms: O_26  and  C_27
REMARK                            x       y       z     vdW  Elec       q    Type
REMARK                         _______ _______ _______ _____ _____    ______ ____
ROOT
ATOM      1  C   UNL     1      -5.239  -0.031   1.420  0.00  0.00    +0.044 C 
ATOM      2  C   UNL     1      -4.726   1.372   1.619  0.00  0.00    -0.050 A 
ATOM      3  C   UNL     1      -5.107   2.097   2.734  0.00  0.00    +0.008 A 
ATOM      4  C   UNL     1      -4.641   3.382   2.922  0.00  0.00    -0.029 A 
ATOM      5  C   UNL     1      -3.783   3.959   1.989  0.00  0.00    +0.039 A 
ATOM      6  C   UNL     1      -3.407   3.220   0.871  0.00  0.00    -0.027 A 
ATOM      7  C   UNL     1      -3.874   1.938   0.688  0.00  0.00    +0.008 A 
ATOM      8  C   UNL     1      -2.493   4.111   0.074  0.00  0.00    +0.052 C 
ATOM      9  C   UNL     1      -1.102   3.476  -0.073  0.00  0.00    +0.076 C 
ATOM     10  C   UNL     1      -0.673   3.910  -1.501  0.00  0.00    -0.003 C 
ATOM     11  C   UNL     1      -2.022   3.878  -2.258  0.00  0.00    -0.066 C 
ATOM     12  C   UNL     1      -3.151   5.821  -1.498  0.00  0.00    -0.077 C 
ATOM     13  C   UNL     1      -3.037   5.966  -3.035  0.00  0.00    -0.020 C 
ATOM     14  C   UNL     1      -1.983   4.899  -3.406  0.00  0.00    -0.017 C 
ATOM     15  C   UNL     1      -2.413   5.390   0.868  0.00  0.00    +0.212 C 
ATOM     16  O   UNL     1      -1.774   6.380   0.582  0.00  0.00    -0.277 OA
ATOM     17  N   UNL     1      -3.186   5.221   1.957  0.00  0.00    -0.286 N 
ATOM     18  C   UNL     1      -5.063   4.163   4.139  0.00  0.00    +0.045 C 
ATOM     19  H   UNL     1      -3.313   5.897   2.641  0.00  0.00    +0.155 HD
ATOM     20  N   UNL     1      -2.996   4.369  -1.290  0.00  0.00    +0.394 N 
ATOM     21  H   UNL     1      -3.898   3.896  -1.423  0.00  0.00    -0.079 HD
ENDROOT
BRANCH   9  22
ATOM     22  C   UNL     1      -1.188   1.974   0.025  0.00  0.00    +0.220 C 
ATOM     23  O   UNL     1      -1.275   1.304  -0.982  0.00  0.00    -0.275 OA
ATOM     24  N   UNL     1      -1.167   1.376   1.233  0.00  0.00    -0.282 N 
ATOM     25  H   UNL     1      -1.177   1.913   2.041  0.00  0.00    +0.155 HD
BRANCH  24  26
ATOM     26  C   UNL     1      -1.127  -0.022   1.321  0.00  0.00    +0.077 A 
ATOM     27  C   UNL     1      -0.606  -0.770   0.276  0.00  0.00    +0.047 A 
ATOM     28  C   UNL     1      -0.567  -2.150   0.366  0.00  0.00    +0.043 A 
ATOM     29  C   UNL     1      -1.047  -2.786   1.497  0.00  0.00    +0.024 A 
ATOM     30  C   UNL     1      -1.567  -2.046   2.542  0.00  0.00    +0.049 A 
ATOM     31  C   UNL     1      -1.605  -0.663   2.462  0.00  0.00    +0.141 A 
ATOM     32 CL   UNL     1       0.084  -3.085  -0.944  0.00  0.00    -0.083 Cl
BRANCH  31  33
ATOM     33  O   UNL     1      -2.111   0.066   3.492  0.00  0.00    -0.493 OA
ATOM     34  C   UNL     1      -2.583  -0.659   4.630  0.00  0.00    +0.277 C 
ENDBRANCH  31  33
ENDBRANCH  24  26
ENDBRANCH   9  22
TORSDOF 3
