REMARK  Name = ZINC38547532
REMARK  13 active torsions:
REMARK  status: ('A' for Active; 'I' for Inactive)
REMARK    1  A    between atoms: C_1  and  C_2
REMARK    2  A    between atoms: C_6  and  N_8
REMARK    3  A    between atoms: N_8  and  C_9
REMARK    4  A    between atoms: C_9  and  C_11
REMARK    5  A    between atoms: C_9  and  C_21
REMARK    6  A    between atoms: C_15  and  O_19
REMARK    7  A    between atoms: C_16  and  O_17
REMARK    8  A    between atoms: O_17  and  C_18
REMARK    9  A    between atoms: O_19  and  C_20
REMARK   10  A    between atoms: C_22  and  C_36
REMARK   11  A    between atoms: C_23  and  C_35
REMARK   12  A    between atoms: C_25  and  N_26
REMARK   13  A    between atoms: C_27  and  C_29
REMARK                            x       y       z     vdW  Elec       q    Type
REMARK                         _______ _______ _______ _____ _____    ______ ____
ROOT
ATOM      1  C   UNL     1      -0.062  -4.112   2.037  0.00  0.00    +0.138 C 
ENDROOT
BRANCH   1   2
ATOM      2  C   UNL     1      -1.445  -4.383   1.504  0.00  0.00    +0.009 A 
ATOM      3  C   UNL     1      -2.033  -3.518   0.600  0.00  0.00    -0.033 A 
ATOM      4  C   UNL     1      -3.278  -3.791   0.141  0.00  0.00    -0.008 A 
ATOM      5  S   UNL     1      -3.664  -5.312   0.992  0.00  0.00    -0.078 S 
ATOM      6  C   UNL     1      -2.137  -5.488   1.900  0.00  0.00    +0.078 A 
ATOM      7  C   UNL     1      -4.121  -3.011  -0.836  0.00  0.00    +0.052 C 
ATOM      8  C   UNL     1      -1.300  -2.287   0.132  0.00  0.00    +0.045 C 
BRANCH   6   9
ATOM      9  N   UNL     1      -1.753  -6.495   2.788  0.00  0.00    -0.276 N 
ATOM     10  C   UNL     1      -2.558  -7.556   2.992  0.00  0.00    +0.249 C 
ATOM     11  O   UNL     1      -3.565  -7.693   2.325  0.00  0.00    -0.270 OA
ATOM     12  H   UNL     1      -0.906  -6.431   3.257  0.00  0.00    +0.156 HD
BRANCH  10  13
ATOM     13  C   UNL     1      -2.216  -8.555   4.027  0.00  0.00    +0.037 A 
ATOM     14  C   UNL     1      -1.128  -8.341   4.875  0.00  0.00    +0.013 A 
ATOM     15  C   UNL     1      -0.814  -9.276   5.839  0.00  0.00    +0.001 A 
ATOM     16  C   UNL     1      -1.575 -10.425   5.967  0.00  0.00    +0.000 A 
ATOM     17  C   UNL     1      -2.655 -10.643   5.129  0.00  0.00    +0.001 A 
ATOM     18  C   UNL     1      -2.983  -9.713   4.165  0.00  0.00    +0.013 A 
ENDBRANCH  10  13
ENDBRANCH   6   9
ENDBRANCH   1   2
BRANCH   1  19
ATOM     19  C   UNL     1       0.949  -4.314   0.937  0.00  0.00    +0.022 A 
ATOM     20  C   UNL     1       1.405  -3.231   0.209  0.00  0.00    +0.009 A 
ATOM     21  C   UNL     1       2.331  -3.413  -0.800  0.00  0.00    +0.004 A 
ATOM     22  C   UNL     1       2.806  -4.680  -1.087  0.00  0.00    +0.049 A 
ATOM     23  C   UNL     1       2.353  -5.770  -0.361  0.00  0.00    +0.162 A 
ATOM     24  C   UNL     1       1.424  -5.585   0.659  0.00  0.00    +0.167 A 
BRANCH  24  25
ATOM     25  O   UNL     1       0.981  -6.651   1.378  0.00  0.00    -0.491 OA
ATOM     26  C   UNL     1      -0.049  -7.448   0.788  0.00  0.00    +0.277 C 
ENDBRANCH  24  25
BRANCH  23  27
ATOM     27  O   UNL     1       2.818  -7.016  -0.642  0.00  0.00    -0.491 OA
ATOM     28  C   UNL     1       3.774  -7.129  -1.698  0.00  0.00    +0.277 C 
ENDBRANCH  23  27
ENDBRANCH   1  19
BRANCH   1  29
ATOM     29  N   UNL     1       0.013  -2.731   2.521  0.00  0.00    -0.319 N 
ATOM     30  H   UNL     1       0.481  -2.059   2.000  0.00  0.00    +0.148 HD
BRANCH  29  36
ATOM     31  C   UNL     1      -1.001   0.683   5.720  0.00  0.00    +0.063 C 
ATOM     32  C   UNL     1      -1.089  -0.757   5.285  0.00  0.00    +0.014 A 
ATOM     33  C   UNL     1      -1.749  -1.671   6.082  0.00  0.00    +0.021 A 
ATOM     34  C   UNL     1      -1.827  -2.997   5.676  0.00  0.00    +0.005 A 
ATOM     35  C   UNL     1      -1.235  -3.356   4.479  0.00  0.00    +0.041 A 
ATOM     36  C   UNL     1      -0.586  -2.383   3.726  0.00  0.00    +0.097 A 
ATOM     37  N   UNL     1      -0.538  -1.128   4.144  0.00  0.00    -0.347 N 
ATOM     38  H   UNL     1      -0.084  -0.465   3.601  0.00  0.00    +0.167 HD
ENDBRANCH  29  36
ENDBRANCH   1  29
TORSDOF 8
