REMARK  Name = ZINC22834893
REMARK  8 active torsions:
REMARK  status: ('A' for Active; 'I' for Inactive)
REMARK    1  A    between atoms: C_1  and  C_2
REMARK    2  A    between atoms: C_9  and  C_16
REMARK    3  A    between atoms: C_11  and  O_12
REMARK    4  A    between atoms: C_16  and  O_17
REMARK    5  A    between atoms: O_17  and  C_18
REMARK    6  A    between atoms: C_18  and  C_20
REMARK    7  A    between atoms: C_25  and  S_26
REMARK    8  A    between atoms: S_26  and  C_27
REMARK                            x       y       z     vdW  Elec       q    Type
REMARK                         _______ _______ _______ _____ _____    ______ ____
ROOT
ATOM      1  C   UNL     1       1.500  19.244  -0.196  0.00  0.00    +0.109 C 
ATOM      2  C   UNL     1       0.698  17.969  -0.240  0.00  0.00    +0.214 C 
ATOM      3  O   UNL     1      -0.425  17.943   0.219  0.00  0.00    -0.276 OA
ATOM      4  N   UNL     1       1.226  16.858  -0.790  0.00  0.00    -0.286 N 
ATOM      5  C   UNL     1       0.522  15.655  -0.746  0.00  0.00    +0.037 A 
ATOM      6  C   UNL     1       1.214  14.452  -0.600  0.00  0.00    +0.024 A 
ATOM      7  C   UNL     1       0.539  13.268  -0.555  0.00  0.00    +0.014 A 
ATOM      8  C   UNL     1      -0.858  13.258  -0.651  0.00  0.00    +0.024 A 
ATOM      9  C   UNL     1      -1.607  12.001  -0.613  0.00  0.00    +0.007 A 
ATOM     10  C   UNL     1      -2.961  12.057  -0.716  0.00  0.00    +0.095 A 
ATOM     11  C   UNL     1      -3.602  13.304  -0.861  0.00  0.00    +0.285 A 
ATOM     12  O   UNL     1      -2.909  14.453  -0.901  0.00  0.00    -0.425 OA
ATOM     13  C   UNL     1      -1.562  14.467  -0.804  0.00  0.00    +0.141 A 
ATOM     14  C   UNL     1      -0.861  15.663  -0.848  0.00  0.00    +0.070 A 
ATOM     15  H   UNL     1       2.213  16.900  -1.274  0.00  0.00    +0.155 HD
ENDROOT
BRANCH  11  16
ATOM     16  O   UNL     1      -4.816  13.340  -0.953  0.00  0.00    -0.480 OA
ATOM     17  H   UNL     1      -5.330  14.306  -1.067  0.00  0.00    +0.295 HD
ENDBRANCH  11  16
BRANCH   9  18
ATOM     18  C   UNL     1      -0.897  10.681  -0.456  0.00  0.00    +0.269 C 
BRANCH  18  19
ATOM     19  O   UNL     1      -1.872   9.605  -0.442  0.00  0.00    -0.456 OA
BRANCH  19  20
ATOM     20  C   UNL     1      -1.398   8.351  -0.308  0.00  0.00    +0.342 C 
ATOM     21  O   UNL     1      -0.202   8.161  -0.205  0.00  0.00    -0.245 OA
BRANCH  20  22
ATOM     22  C   UNL     1      -2.328   7.210  -0.285  0.00  0.00    +0.091 A 
ATOM     23  C   UNL     1      -3.709   7.414  -0.402  0.00  0.00    +0.019 A 
ATOM     24  C   UNL     1      -4.541   6.309  -0.375  0.00  0.00    +0.021 A 
ATOM     25  C   UNL     1      -3.993   5.045  -0.234  0.00  0.00    +0.112 A 
ATOM     26  N   UNL     1      -2.690   4.873  -0.131  0.00  0.00    -0.248 NA
ATOM     27  C   UNL     1      -1.847   5.896  -0.146  0.00  0.00    +0.116 A 
BRANCH  27  28
ATOM     28  S   UNL     1      -0.116   5.607   0.003  0.00  0.00    -0.069 S 
BRANCH  28  29
ATOM     29  C   UNL     1      -0.097   3.845  -0.008  0.00  0.00    +0.014 A 
ATOM     30  C   UNL     1      -0.089   3.157  -1.215  0.00  0.00    +0.015 A 
ATOM     31  C   UNL     1      -0.075   1.776  -1.220  0.00  0.00    +0.001 A 
ATOM     32  C   UNL     1      -0.069   1.079  -0.026  0.00  0.00    +0.000 A 
ATOM     33  C   UNL     1      -0.081   1.761   1.177  0.00  0.00    +0.001 A 
ATOM     34  C   UNL     1      -0.090   3.141   1.190  0.00  0.00    +0.015 A 
ENDBRANCH  28  29
ENDBRANCH  27  28
ENDBRANCH  20  22
ENDBRANCH  19  20
ENDBRANCH  18  19
ENDBRANCH   9  18
TORSDOF 7
