REMARK  Name = ZINC64574684
REMARK  7 active torsions:
REMARK  status: ('A' for Active; 'I' for Inactive)
REMARK    1  A    between atoms: C_1  and  S_2
REMARK    2  A    between atoms: S_2  and  C_3
REMARK    3  A    between atoms: C_8  and  N_9
REMARK    4  A    between atoms: C_10  and  C_12
REMARK    5  A    between atoms: N_14  and  C_15
REMARK    6  A    between atoms: C_15  and  C_16
REMARK    7  A    between atoms: C_16  and  C_17
REMARK                            x       y       z     vdW  Elec       q    Type
REMARK                         _______ _______ _______ _____ _____    ______ ____
ROOT
ATOM      1  N   UNL     1       0.613  -2.778   0.959  0.00  0.00    -0.277 N 
ATOM      2  C   UNL     1       0.907  -4.067   1.221  0.00  0.00    +0.303 C 
ATOM      3  O   UNL     1       1.511  -4.358   2.234  0.00  0.00    -0.265 OA
ATOM      4  H   UNL     1       0.062  -2.553   0.193  0.00  0.00    +0.155 HD
ENDROOT
BRANCH   1  10
ATOM      5  C   UNL     1       0.435  -0.542   1.870  0.00  0.00    +0.029 A 
ATOM      6  C   UNL     1       0.921   0.456   2.703  0.00  0.00    +0.018 A 
ATOM      7  C   UNL     1       2.064   0.239   3.448  0.00  0.00    +0.021 A 
ATOM      8  C   UNL     1       2.728  -0.973   3.366  0.00  0.00    +0.043 A 
ATOM      9  C   UNL     1       2.251  -1.974   2.539  0.00  0.00    +0.044 A 
ATOM     10  C   UNL     1       1.101  -1.766   1.792  0.00  0.00    +0.049 A 
ATOM     11 CL   UNL     1       4.164  -1.238   4.305  0.00  0.00    -0.083 Cl
BRANCH   5  13
ATOM     12  C   UNL     1      -1.513   1.427   1.346  0.00  0.00    +0.090 C 
ATOM     13  S   UNL     1      -1.023  -0.267   0.919  0.00  0.00    -0.127 S 
ENDBRANCH   5  13
ENDBRANCH   1  10
BRANCH   2  14
ATOM     14  C   UNL     1       0.492  -5.137   0.266  0.00  0.00    +0.299 C 
ATOM     15  O   UNL     1      -0.111  -4.846  -0.746  0.00  0.00    -0.265 OA
ATOM     16  N   UNL     1       0.786  -6.426   0.529  0.00  0.00    -0.307 N 
ATOM     17  H   UNL     1       1.268  -6.658   1.338  0.00  0.00    +0.149 HD
BRANCH  16  18
ATOM     18  C   UNL     1       0.379  -7.476  -0.408  0.00  0.00    +0.109 C 
BRANCH  18  19
ATOM     19  C   UNL     1       0.833  -8.837   0.122  0.00  0.00    +0.049 C 
BRANCH  19  20
ATOM     20  C   UNL     1       0.413  -9.917  -0.842  0.00  0.00    -0.072 C 
ATOM     21  C   UNL     1       1.275 -10.312  -1.723  0.00  0.00    -0.028 C 
ATOM     22  C   UNL     1       1.000 -11.368  -2.753  0.00  0.00    +0.027 C 
ATOM     23  C   UNL     1      -0.232 -12.184  -2.355  0.00  0.00    +0.004 C 
ATOM     24  C   UNL     1      -1.364 -11.213  -1.999  0.00  0.00    +0.005 C 
ATOM     25  C   UNL     1      -0.976 -10.472  -0.716  0.00  0.00    +0.030 C 
ENDBRANCH  19  20
ENDBRANCH  18  19
ENDBRANCH  16  18
ENDBRANCH   2  14
TORSDOF 6
