REMARK  Name = ZINC16494955
REMARK  7 active torsions:
REMARK  status: ('A' for Active; 'I' for Inactive)
REMARK    1  A    between atoms: C_1  and  C_2
REMARK    2  A    between atoms: C_3  and  C_23
REMARK    3  A    between atoms: C_4  and  C_16
REMARK    4  A    between atoms: N_9  and  C_10
REMARK    5  A    between atoms: C_10  and  C_11
REMARK    6  A    between atoms: C_23  and  O_25
REMARK    7  A    between atoms: O_25  and  C_26
REMARK                            x       y       z     vdW  Elec       q    Type
REMARK                         _______ _______ _______ _____ _____    ______ ____
ROOT
ATOM      1  C   UNL     1       0.045   1.468   0.443  0.00  0.00    +0.061 C 
ATOM      2  C   UNL     1       0.033  -0.021   0.212  0.00  0.00    +0.024 C 
ATOM      3  C   UNL     1      -1.128  -0.702   0.329  0.00  0.00    +0.078 C 
ATOM      4  C   UNL     1      -1.095  -2.197   0.089  0.00  0.00    +0.144 C 
ATOM      5  N   UNL     1       0.209  -2.790  -0.255  0.00  0.00    -0.288 N 
ATOM      6  C   UNL     1       1.282  -1.977  -0.334  0.00  0.00    +0.307 C 
ATOM      7  O   UNL     1       2.362  -2.457  -0.617  0.00  0.00    -0.252 OA
ATOM      8  N   UNL     1       1.194  -0.659  -0.117  0.00  0.00    -0.254 N 
ATOM      9  H   UNL     1       0.294  -3.742  -0.420  0.00  0.00    +0.151 HD
ENDROOT
BRANCH   4  10
ATOM     10  C   UNL     1      -1.601  -2.879   1.334  0.00  0.00    -0.021 A 
ATOM     11  C   UNL     1      -0.762  -3.045   2.420  0.00  0.00    +0.006 A 
ATOM     12  C   UNL     1      -1.225  -3.671   3.562  0.00  0.00    +0.001 A 
ATOM     13  C   UNL     1      -2.527  -4.130   3.619  0.00  0.00    +0.015 A 
ATOM     14  C   UNL     1      -3.367  -3.963   2.533  0.00  0.00    +0.018 A 
ATOM     15  C   UNL     1      -2.905  -3.333   1.392  0.00  0.00    +0.021 A 
ATOM     16 BR   UNL     1      -5.149  -4.592   2.610  0.00  0.00    -0.050 Br
ENDBRANCH   4  10
BRANCH   3  17
ATOM     17  C   UNL     1      -2.333  -0.041   0.664  0.00  0.00    +0.339 C 
ATOM     18  O   UNL     1      -2.335   1.161   0.854  0.00  0.00    -0.245 OA
BRANCH  17  19
ATOM     19  O   UNL     1      -3.479  -0.744   0.775  0.00  0.00    -0.465 OA
ATOM     20  C   UNL     1      -4.658  -0.012   1.117  0.00  0.00    +0.280 C 
ENDBRANCH  17  19
ENDBRANCH   3  17
BRANCH   8  21
ATOM     21  C   UNL     1       2.415   0.143  -0.232  0.00  0.00    +0.157 C 
BRANCH  21  22
ATOM     22  C   UNL     1       3.038   0.308   1.131  0.00  0.00    +0.008 A 
ATOM     23  C   UNL     1       3.957  -0.473   1.750  0.00  0.00    +0.013 A 
ATOM     24  C   UNL     1       4.391  -0.123   3.014  0.00  0.00    +0.008 A 
ATOM     25  C   UNL     1       3.884   0.990   3.599  0.00  0.00    +0.045 A 
ATOM     26  S   UNL     1       2.763   1.587   2.345  0.00  0.00    -0.100 S 
ENDBRANCH  21  22
ENDBRANCH   8  21
TORSDOF 5
