REMARK  Name = ZINC16613198
REMARK  6 active torsions:
REMARK  status: ('A' for Active; 'I' for Inactive)
REMARK    1  A    between atoms: C_4  and  N_7
REMARK    2  A    between atoms: N_9  and  C_28
REMARK    3  A    between atoms: N_20  and  C_21
REMARK    4  A    between atoms: C_28  and  C_29
REMARK    5  A    between atoms: N_31  and  C_32
REMARK    6  A    between atoms: C_32  and  C_33
REMARK                            x       y       z     vdW  Elec       q    Type
REMARK                         _______ _______ _______ _____ _____    ______ ____
ROOT
ATOM      1  N   UNL     1      -0.054   1.296   0.862  0.00  0.00    -0.300 N 
ATOM      2  C   UNL     1       0.250  -0.105   0.491  0.00  0.00    +0.217 C 
ATOM      3  N   UNL     1       1.714  -0.224   0.507  0.00  0.00    -0.275 N 
ATOM      4  C   UNL     1       2.268   1.006   0.463  0.00  0.00    +0.241 C 
ATOM      5  O   UNL     1       3.456   1.249   0.451  0.00  0.00    -0.273 OA
ATOM      6  C   UNL     1       1.157   2.027   0.431  0.00  0.00    +0.115 C 
ATOM      7  C   UNL     1       1.453   3.166   1.402  0.00  0.00    +0.054 C 
ATOM      8  C   UNL     1       2.736   3.884   0.970  0.00  0.00    +0.112 C 
ATOM      9  N   UNL     1       2.598   4.292  -0.435  0.00  0.00    -0.285 N 
ATOM     10  C   UNL     1       2.247   3.276  -1.436  0.00  0.00    +0.112 C 
ATOM     11  C   UNL     1       0.968   2.562  -0.985  0.00  0.00    +0.054 C 
ATOM     12  C   UNL     1       2.790   5.576  -0.798  0.00  0.00    +0.307 C 
ATOM     13  O   UNL     1       3.169   6.390   0.022  0.00  0.00    -0.252 OA
ATOM     14  N   UNL     1       2.563   5.957  -2.071  0.00  0.00    -0.267 N 
ATOM     15  H   UNL     1       2.214   5.319  -2.713  0.00  0.00    +0.156 HD
ENDROOT
BRANCH  14  16
ATOM     16  C   UNL     1       2.832   7.274  -2.466  0.00  0.00    +0.070 A 
ATOM     17  C   UNL     1       2.786   8.303  -1.536  0.00  0.00    +0.026 A 
ATOM     18  C   UNL     1       3.057   9.599  -1.928  0.00  0.00    +0.002 A 
ATOM     19  C   UNL     1       3.363   9.876  -3.247  0.00  0.00    +0.003 A 
ATOM     20  C   UNL     1       3.406   8.855  -4.179  0.00  0.00    +0.040 A 
ATOM     21  C   UNL     1       3.141   7.553  -3.793  0.00  0.00    +0.145 A 
ATOM     22  F   UNL     1       3.181   6.556  -4.703  0.00  0.00    -0.204 F 
ENDBRANCH  14  16
BRANCH   1  26
ATOM     23  C   UNL     1      -3.426   2.675  -1.155  0.00  0.00    +0.000 A 
ATOM     24  C   UNL     1      -3.123   1.326  -1.158  0.00  0.00    +0.002 A 
ATOM     25  C   UNL     1      -2.006   0.865  -0.490  0.00  0.00    +0.023 A 
ATOM     26  C   UNL     1      -1.185   1.759   0.185  0.00  0.00    +0.032 A 
ATOM     27  C   UNL     1      -1.494   3.113   0.191  0.00  0.00    +0.023 A 
ATOM     28  C   UNL     1      -2.610   3.568  -0.483  0.00  0.00    +0.002 A 
ENDBRANCH   1  26
BRANCH   3  29
ATOM     29  C   UNL     1       2.458  -1.485   0.562  0.00  0.00    +0.205 C 
BRANCH  29  30
ATOM     30  C   UNL     1       2.724  -1.972  -0.839  0.00  0.00    +0.231 C 
ATOM     31  O   UNL     1       2.331  -1.330  -1.790  0.00  0.00    -0.274 OA
ATOM     32  N   UNL     1       3.400  -3.122  -1.035  0.00  0.00    -0.312 N 
ATOM     33  H   UNL     1       3.714  -3.636  -0.275  0.00  0.00    +0.149 HD
BRANCH  32  34
ATOM     34  C   UNL     1       3.659  -3.596  -2.397  0.00  0.00    +0.135 C 
BRANCH  34  35
ATOM     35  C   UNL     1       4.436  -4.912  -2.340  0.00  0.00    +0.135 C 
ATOM     36  C   UNL     1       4.714  -5.420  -3.768  0.00  0.00    +0.035 C 
ATOM     37  C   UNL     1       6.257  -5.517  -3.843  0.00  0.00    +0.031 C 
ATOM     38  C   UNL     1       6.651  -5.590  -2.346  0.00  0.00    +0.160 C 
ATOM     39  O   UNL     1       5.709  -4.701  -1.707  0.00  0.00    -0.375 OA
ENDBRANCH  34  35
ENDBRANCH  32  34
ENDBRANCH  29  30
ENDBRANCH   3  29
TORSDOF 6
