REMARK  Name = ZINC11024132
REMARK  7 active torsions:
REMARK  status: ('A' for Active; 'I' for Inactive)
REMARK    1  A    between atoms: C_5  and  O_7
REMARK    2  A    between atoms: O_7  and  C_8
REMARK    3  A    between atoms: C_10  and  O_23
REMARK    4  A    between atoms: C_12  and  O_22
REMARK    5  A    between atoms: C_14  and  O_21
REMARK    6  A    between atoms: C_16  and  C_19
REMARK    7  A    between atoms: C_19  and  O_20
REMARK                            x       y       z     vdW  Elec       q    Type
REMARK                         _______ _______ _______ _____ _____    ______ ____
ROOT
ATOM      1  C   UNL     1      -2.375   0.060   0.024  0.00  0.00    +0.339 C 
ATOM      2  C   UNL     1      -3.573  -0.885  -0.095  0.00  0.00    +0.214 C 
ATOM      3  C   UNL     1      -3.598  -1.822   1.117  0.00  0.00    +0.180 C 
ATOM      4  C   UNL     1      -3.645  -0.981   2.397  0.00  0.00    +0.177 C 
ATOM      5  C   UNL     1      -2.444  -0.033   2.420  0.00  0.00    +0.179 C 
ATOM      6  O   UNL     1      -2.464   0.788   1.250  0.00  0.00    -0.331 OA
ENDROOT
BRANCH   4   7
ATOM      7  O   UNL     1      -4.854  -0.221   2.424  0.00  0.00    -0.386 OA
ATOM      8  H   UNL     1      -5.658  -0.759   2.407  0.00  0.00    +0.210 HD
ENDBRANCH   4   7
BRANCH   3   9
ATOM      9  O   UNL     1      -2.420  -2.631   1.119  0.00  0.00    -0.386 OA
ATOM     10  H   UNL     1      -2.322  -3.185   0.333  0.00  0.00    +0.210 HD
ENDBRANCH   3   9
BRANCH   2  11
ATOM     11  O   UNL     1      -3.457  -1.655  -1.293  0.00  0.00    -0.383 OA
ATOM     12  H   UNL     1      -3.431  -1.124  -2.101  0.00  0.00    +0.210 HD
ENDBRANCH   2  11
BRANCH   1  13
ATOM     13  O   UNL     1      -1.165  -0.701   0.009  0.00  0.00    -0.459 OA
BRANCH  13  18
ATOM     14  C   UNL     1       1.171   2.089   0.002  0.00  0.00    +0.004 A 
ATOM     15  C   UNL     1       2.378   1.415  -0.013  0.00  0.00    +0.002 A 
ATOM     16  C   UNL     1       2.400   0.032  -0.021  0.00  0.00    +0.023 A 
ATOM     17  C   UNL     1       1.215  -0.679  -0.013  0.00  0.00    +0.083 A 
ATOM     18  C   UNL     1       0.002  -0.004   0.002  0.00  0.00    +0.142 A 
ATOM     19  C   UNL     1      -0.017   1.383   0.010  0.00  0.00    +0.047 A 
ATOM     20 CL   UNL     1       1.243  -2.415  -0.022  0.00  0.00    -0.080 Cl
ENDBRANCH  13  18
ENDBRANCH   1  13
BRANCH   5  21
ATOM     21  C   UNL     1      -2.516   0.852   3.666  0.00  0.00    +0.190 C 
BRANCH  21  22
ATOM     22  O   UNL     1      -1.337   1.655   3.749  0.00  0.00    -0.392 OA
ATOM     23  H   UNL     1      -1.314   2.243   4.516  0.00  0.00    +0.210 HD
ENDBRANCH  21  22
ENDBRANCH   5  21
TORSDOF 7
