REMARK  Name = ZINC39635353
REMARK  8 active torsions:
REMARK  status: ('A' for Active; 'I' for Inactive)
REMARK    1  A    between atoms: C_1  and  C_2
REMARK    2  A    between atoms: C_4  and  C_11
REMARK    3  A    between atoms: N_5  and  C_7
REMARK    4  A    between atoms: C_7  and  C_8
REMARK    5  A    between atoms: C_7  and  C_9
REMARK    6  A    between atoms: C_7  and  C_10
REMARK    7  A    between atoms: C_15  and  C_24
REMARK    8  A    between atoms: N_26  and  C_27
REMARK                            x       y       z     vdW  Elec       q    Type
REMARK                         _______ _______ _______ _____ _____    ______ ____
ROOT
ATOM      1  C   UNL     1      -0.590  -4.110  -1.260  0.00  0.00    +0.265 C 
ATOM      2  O   UNL     1      -0.865  -3.972  -2.437  0.00  0.00    -0.268 OA
ATOM      3  N   UNL     1      -0.722  -5.316  -0.674  0.00  0.00    -0.295 N 
ATOM      4  C   UNL     1      -0.567  -5.651   0.761  0.00  0.00    +0.121 C 
ATOM      5  C   UNL     1      -1.685  -6.679   1.046  0.00  0.00    +0.100 C 
ATOM      6  C   UNL     1      -2.000  -7.305  -0.323  0.00  0.00    -0.004 C 
ATOM      7  C   UNL     1      -1.062  -6.608  -1.319  0.00  0.00    +0.115 C 
ATOM      8  C   UNL     1      -3.453  -7.041  -0.704  0.00  0.00    -0.010 C 
ATOM      9  C   UNL     1      -3.758  -7.722  -2.041  0.00  0.00    -0.082 C 
ATOM     10  N   UNL     1      -3.516  -9.165  -1.923  0.00  0.00    +0.379 N 
ATOM     11  C   UNL     1      -2.096  -9.414  -1.649  0.00  0.00    -0.082 C 
ATOM     12  C   UNL     1      -1.721  -8.805  -0.295  0.00  0.00    -0.010 C 
ATOM     13  H   UNL     1      -4.074  -9.538  -1.170  0.00  0.00    -0.086 HD
ATOM     14  H   UNL     1      -3.775  -9.619  -2.786  0.00  0.00    -0.086 HD
ENDROOT
BRANCH   1  18
ATOM     15  C   UNL     1       1.275  -1.151   2.412  0.00  0.00    +0.067 C 
ATOM     16  C   UNL     1       0.699  -1.655   1.114  0.00  0.00    +0.061 A 
ATOM     17  C   UNL     1       0.382  -2.982   0.816  0.00  0.00    +0.057 A 
ATOM     18  C   UNL     1      -0.114  -2.959  -0.476  0.00  0.00    +0.124 A 
ATOM     19  N   UNL     1      -0.071  -1.655  -0.878  0.00  0.00    -0.254 N 
ATOM     20  N   UNL     1       0.400  -0.926   0.069  0.00  0.00    -0.175 NA
BRANCH  19  21
ATOM     21  C   UNL     1      -0.502  -1.160  -2.188  0.00  0.00    +0.056 C 
ATOM     22  C   UNL     1      -1.948  -1.590  -2.445  0.00  0.00    +0.036 C 
ATOM     23  C   UNL     1      -0.411   0.367  -2.212  0.00  0.00    +0.036 C 
ATOM     24  C   UNL     1       0.404  -1.742  -3.276  0.00  0.00    +0.036 C 
ENDBRANCH  19  21
ENDBRANCH   1  18
BRANCH   5  25
ATOM     25  C   UNL     1      -1.198  -7.731   2.007  0.00  0.00    +0.218 C 
ATOM     26  O   UNL     1      -0.015  -7.991   2.074  0.00  0.00    -0.275 OA
ATOM     27  N   UNL     1      -2.076  -8.385   2.793  0.00  0.00    -0.312 N 
ATOM     28  H   UNL     1      -3.028  -8.233   2.687  0.00  0.00    +0.149 HD
BRANCH  27  29
ATOM     29  C   UNL     1      -1.593  -9.325   3.808  0.00  0.00    +0.073 C 
ATOM     30  C   UNL     1      -1.849 -10.799   3.454  0.00  0.00    +0.022 C 
ATOM     31  C   UNL     1      -2.202 -11.012   4.936  0.00  0.00    +0.004 C 
ATOM     32  C   UNL     1      -2.568  -9.519   4.982  0.00  0.00    +0.022 C 
ENDBRANCH  27  29
ENDBRANCH   5  25
TORSDOF 4
