REMARK  Name = ZINC04818916
REMARK  10 active torsions:
REMARK  status: ('A' for Active; 'I' for Inactive)
REMARK    1  A    between atoms: C_1  and  N_47
REMARK    2  A    between atoms: C_2  and  N_47
REMARK    3  A    between atoms: C_3  and  C_4
REMARK    4  A    between atoms: C_3  and  N_47
REMARK    5  A    between atoms: C_4  and  N_5
REMARK    6  A    between atoms: C_6  and  C_20
REMARK    7  A    between atoms: C_8  and  C_13
REMARK    8  A    between atoms: C_9  and  O_12
REMARK    9  A    between atoms: C_13  and  C_15
REMARK   10  A    between atoms: C_24  and  N_26
REMARK                            x       y       z     vdW  Elec       q    Type
REMARK                         _______ _______ _______ _____ _____    ______ ____
ROOT
ATOM      1  N   UNL     1      -0.682  -2.268  -0.000  0.00  0.00    -0.285 N 
ATOM      2  C   UNL     1      -1.210  -0.902   0.088  0.00  0.00    +0.144 C 
ATOM      3  C   UNL     1      -0.018   0.019  -0.026  0.00  0.00    +0.072 C 
ATOM      4  C   UNL     1       1.071  -0.770  -0.171  0.00  0.00    +0.188 C 
ATOM      5  C   UNL     1       0.653  -2.186  -0.149  0.00  0.00    +0.282 C 
ATOM      6  O   UNL     1       1.403  -3.136  -0.254  0.00  0.00    -0.267 OA
ENDROOT
BRANCH   2   7
ATOM      7  C   UNL     1      -1.898  -0.697   1.414  0.00  0.00    -0.020 A 
ATOM      8  C   UNL     1      -1.325  -1.188   2.572  0.00  0.00    +0.006 A 
ATOM      9  C   UNL     1      -1.954  -0.997   3.788  0.00  0.00    +0.003 A 
ATOM     10  C   UNL     1      -3.159  -0.322   3.845  0.00  0.00    +0.033 A 
ATOM     11  C   UNL     1      -3.734   0.165   2.686  0.00  0.00    +0.127 A 
ATOM     12  C   UNL     1      -3.103  -0.023   1.470  0.00  0.00    +0.038 A 
BRANCH  11  13
ATOM     13  N   UNL     1      -5.025   0.886   2.747  0.00  0.00    +0.056 N 
ATOM     14  O   UNL     1      -5.531   1.315   1.725  0.00  0.00    -0.126 OA
ATOM     15  O   UNL     1      -5.580   1.052   3.818  0.00  0.00    -0.126 OA
ENDBRANCH  11  13
ENDBRANCH   2   7
BRANCH   4  16
ATOM     16  O   UNL     1       2.344  -0.330  -0.313  0.00  0.00    -0.502 OA
ATOM     17  H   UNL     1       2.959  -1.114  -0.402  0.00  0.00    +0.292 HD
ENDBRANCH   4  16
BRANCH   3  18
ATOM     18  C   UNL     1      -0.038   1.486   0.008  0.00  0.00    +0.201 C 
ATOM     19  O   UNL     1       0.498   2.082   0.926  0.00  0.00    -0.286 OA
BRANCH  18  20
ATOM     20  C   UNL     1      -0.698   2.235  -1.065  0.00  0.00    +0.059 A 
ATOM     21  C   UNL     1      -0.751   3.607  -1.271  0.00  0.00    +0.019 A 
ATOM     22  C   UNL     1      -1.444   4.047  -2.369  0.00  0.00    +0.008 A 
ATOM     23  C   UNL     1      -2.035   3.138  -3.190  0.00  0.00    +0.046 A 
ATOM     24  S   UNL     1      -1.635   1.620  -2.454  0.00  0.00    -0.093 S 
ENDBRANCH  18  20
ENDBRANCH   3  18
BRANCH   1  25
ATOM     25  C   UNL     1      -1.468  -3.503   0.061  0.00  0.00    +0.090 C 
BRANCH  25  26
ATOM     26  C   UNL     1      -1.903  -3.901  -1.351  0.00  0.00    -0.060 C 
BRANCH  26  29
ATOM     27  C   UNL     1      -3.960  -4.921  -0.582  0.00  0.00    -0.097 C 
ATOM     28  C   UNL     1      -2.925  -5.682  -2.634  0.00  0.00    -0.097 C 
ATOM     29  N   UNL     1      -2.676  -5.159  -1.274  0.00  0.00    +0.377 N 
ATOM     30  H   UNL     1      -2.134  -5.852  -0.744  0.00  0.00    -0.083 HD
ENDBRANCH  26  29
ENDBRANCH  25  26
ENDBRANCH   1  25
TORSDOF 8
