REMARK  Name = ZINC01060157
REMARK  6 active torsions:
REMARK  status: ('A' for Active; 'I' for Inactive)
REMARK    1  A    between atoms: C_1  and  O_2
REMARK    2  A    between atoms: O_2  and  C_3
REMARK    3  A    between atoms: C_5  and  C_10
REMARK    4  A    between atoms: C_8  and  O_9
REMARK    5  A    between atoms: C_11  and  N_19
REMARK    6  A    between atoms: C_20  and  C_21
REMARK                            x       y       z     vdW  Elec       q    Type
REMARK                         _______ _______ _______ _____ _____    ______ ____
ROOT
ATOM      1  C   UNL     1       2.397   0.353  -4.220  0.00  0.00    +0.091 A 
ATOM      2  C   UNL     1       2.255   0.139  -5.590  0.00  0.00    +0.163 A 
ATOM      3  N   UNL     1       2.981   1.128  -6.216  0.00  0.00    -0.286 N 
ATOM      4  C   UNL     1       3.201   1.412  -7.533  0.00  0.00    +0.094 A 
ATOM      5  C   UNL     1       3.969   2.463  -7.891  0.00  0.00    +0.018 A 
ATOM      6  C   UNL     1       4.553   3.279  -6.909  0.00  0.00    +0.005 A 
ATOM      7  C   UNL     1       4.342   3.007  -5.592  0.00  0.00    +0.045 A 
ATOM      8  C   UNL     1       3.538   1.907  -5.233  0.00  0.00    +0.117 A 
ATOM      9  N   UNL     1       3.173   1.429  -4.050  0.00  0.00    -0.338 N 
ATOM     10  H   UNL     1       3.430   1.803  -3.193  0.00  0.00    +0.167 HD
ENDROOT
BRANCH   1  13
ATOM     11  C   UNL     1       0.606  -0.608  -1.056  0.00  0.00    +0.162 A 
ATOM     12  C   UNL     1       1.171   0.159  -2.059  0.00  0.00    +0.059 A 
ATOM     13  C   UNL     1       1.791  -0.463  -3.144  0.00  0.00    +0.006 A 
ATOM     14  C   UNL     1       1.838  -1.856  -3.212  0.00  0.00    +0.014 A 
ATOM     15  C   UNL     1       1.272  -2.615  -2.208  0.00  0.00    +0.050 A 
ATOM     16  C   UNL     1       0.661  -1.997  -1.128  0.00  0.00    +0.158 A 
BRANCH  11  18
ATOM     17  C   UNL     1      -0.017   1.425   0.010  0.00  0.00    +0.277 C 
ATOM     18  O   UNL     1       0.002  -0.004   0.002  0.00  0.00    -0.491 OA
ENDBRANCH  11  18
BRANCH  16  19
ATOM     19  O   UNL     1       0.110  -2.750  -0.138  0.00  0.00    -0.503 OA
ATOM     20  H   UNL     1      -0.819  -2.975  -0.286  0.00  0.00    +0.292 HD
ENDBRANCH  16  19
ENDBRANCH   1  13
BRANCH   2  21
ATOM     21  N   UNL     1       1.547  -0.843  -6.186  0.00  0.00    -0.235 NA
ATOM     22  C   UNL     1       2.119  -1.985  -6.465  0.00  0.00    +0.125 C 
BRANCH  22  23
ATOM     23  C   UNL     1       1.348  -3.054  -7.114  0.00  0.00    +0.043 A 
ATOM     24  C   UNL     1       1.955  -4.280  -7.409  0.00  0.00    +0.033 A 
ATOM     25  C   UNL     1       1.225  -5.280  -8.018  0.00  0.00    +0.043 A 
ATOM     26  C   UNL     1      -0.108  -5.075  -8.338  0.00  0.00    +0.044 A 
ATOM     27  C   UNL     1      -0.720  -3.869  -8.051  0.00  0.00    +0.090 A 
ATOM     28  C   UNL     1      -0.003  -2.855  -7.435  0.00  0.00    +0.206 A 
ATOM     29  O   UNL     1      -0.605  -1.672  -7.148  0.00  0.00    -0.286 OA
ATOM     30 CL   UNL     1      -2.390  -3.626  -8.459  0.00  0.00    -0.080 Cl
ATOM     31 CL   UNL     1       1.979  -6.800  -8.384  0.00  0.00    -0.083 Cl
ENDBRANCH  22  23
ENDBRANCH   2  21
TORSDOF 5
