REMARK  Name = ZINC11963356
REMARK  11 active torsions:
REMARK  status: ('A' for Active; 'I' for Inactive)
REMARK    1  A    between atoms: C_1  and  C_2
REMARK    2  A    between atoms: C_2  and  O_3
REMARK    3  A    between atoms: O_3  and  C_4
REMARK    4  A    between atoms: C_4  and  C_6
REMARK    5  A    between atoms: N_9  and  C_23
REMARK    6  A    between atoms: C_10  and  C_11
REMARK    7  A    between atoms: C_11  and  N_61
REMARK    8  A    between atoms: C_15  and  C_18
REMARK    9  A    between atoms: C_18  and  O_20
REMARK   10  A    between atoms: O_20  and  C_21
REMARK   11  A    between atoms: C_21  and  C_22
REMARK                            x       y       z     vdW  Elec       q    Type
REMARK                         _______ _______ _______ _____ _____    ______ ____
ROOT
ATOM      1  C   UNL     1       5.190  -2.163   0.301  0.00  0.00    +0.098 A 
ATOM      2  C   UNL     1       5.722  -1.135  -0.510  0.00  0.00    +0.150 A 
ATOM      3  N   UNL     1       4.783  -0.251  -0.709  0.00  0.00    -0.174 NA
ATOM      4  N   UNL     1       3.622  -0.664  -0.046  0.00  0.00    -0.238 N 
ATOM      5  C   UNL     1       3.877  -1.829   0.574  0.00  0.00    +0.042 A 
ENDROOT
BRANCH   4   6
ATOM      6  C   UNL     1       2.401   0.025  -0.027  0.00  0.00    +0.069 A 
ATOM      7  C   UNL     1       1.205  -0.681  -0.016  0.00  0.00    +0.031 A 
ATOM      8  C   UNL     1       0.002  -0.004   0.002  0.00  0.00    +0.051 A 
ATOM      9  C   UNL     1      -0.017   1.383   0.010  0.00  0.00    +0.162 A 
ATOM     10  C   UNL     1       1.178   2.093   0.002  0.00  0.00    +0.164 A 
ATOM     11  C   UNL     1       2.386   1.412  -0.018  0.00  0.00    +0.077 A 
ATOM     12  O   UNL     1       1.180   3.454   0.018  0.00  0.00    -0.485 OA
ATOM     13  C   UNL     1      -0.044   4.104  -0.339  0.00  0.00    +0.270 C 
ATOM     14  C   UNL     1      -1.192   3.412   0.409  0.00  0.00    +0.270 C 
ATOM     15  O   UNL     1      -1.213   2.034   0.019  0.00  0.00    -0.485 OA
ENDBRANCH   4   6
BRANCH   1  16
ATOM     16  C   UNL     1       5.903  -3.363   0.771  0.00  0.00    +0.342 C 
ATOM     17  O   UNL     1       5.329  -4.177   1.468  0.00  0.00    -0.245 OA
BRANCH  16  18
ATOM     18  O   UNL     1       7.192  -3.558   0.430  0.00  0.00    -0.461 OA
BRANCH  18  20
ATOM     19  C   UNL     1       9.281  -4.809   0.442  0.00  0.00    +0.048 C 
ATOM     20  C   UNL     1       7.832  -4.762   0.930  0.00  0.00    +0.229 C 
ENDBRANCH  18  20
ENDBRANCH  16  18
ENDBRANCH   1  16
BRANCH   5  21
ATOM     21  C   UNL     1       2.909  -2.626   1.409  0.00  0.00    -0.021 C 
BRANCH  21  27
ATOM     22  C   UNL     1       3.110  -4.272  -0.354  0.00  0.00    -0.078 C 
ATOM     23  C   UNL     1       2.311  -5.141  -1.329  0.00  0.00    -0.018 C 
ATOM     24  C   UNL     1       1.480  -6.155  -0.537  0.00  0.00    +0.011 C 
ATOM     25  C   UNL     1       0.562  -5.404   0.432  0.00  0.00    +0.081 C 
ATOM     26  C   UNL     1       1.411  -4.528   1.355  0.00  0.00    -0.064 C 
ATOM     27  N   UNL     1       2.168  -3.559   0.534  0.00  0.00    +0.384 N 
ATOM     28  H   UNL     1       1.508  -3.023  -0.041  0.00  0.00    -0.081 HD
BRANCH  25  29
ATOM     29  C   UNL     1      -0.218  -6.395   1.257  0.00  0.00    +0.308 C 
ATOM     30  O   UNL     1      -0.107  -6.401   2.460  0.00  0.00    -0.251 OA
BRANCH  29  31
ATOM     31  O   UNL     1      -1.037  -7.272   0.655  0.00  0.00    -0.465 OA
BRANCH  31  32
ATOM     32  C   UNL     1      -1.757  -8.197   1.512  0.00  0.00    +0.229 C 
ATOM     33  C   UNL     1      -2.633  -9.112   0.653  0.00  0.00    +0.048 C 
ENDBRANCH  31  32
ENDBRANCH  29  31
ENDBRANCH  25  29
ENDBRANCH  21  27
ENDBRANCH   5  21
TORSDOF 9
