REMARK  Name = ZINC04040870
REMARK  4 active torsions:
REMARK  status: ('A' for Active; 'I' for Inactive)
REMARK    1  A    between atoms: C_1  and  C_2
REMARK    2  A    between atoms: C_4  and  C_28
REMARK    3  A    between atoms: C_9  and  C_13
REMARK    4  A    between atoms: C_20  and  C_26
REMARK                            x       y       z     vdW  Elec       q    Type
REMARK                         _______ _______ _______ _____ _____    ______ ____
ROOT
ATOM      1  C   UNL     1       2.067   5.476  -4.263  0.00  0.00    +0.018 C 
ATOM      2  C   UNL     1       2.036   4.253  -3.344  0.00  0.00    +0.080 C 
ATOM      3  C   UNL     1       1.765   4.705  -1.897  0.00  0.00    +0.152 C 
ATOM      4  N   UNL     1       1.408   3.503  -1.142  0.00  0.00    -0.284 N 
ATOM      5  C   UNL     1       0.234   2.657  -1.539  0.00  0.00    +0.123 C 
ATOM      6  C   UNL     1       0.563   2.123  -2.933  0.00  0.00    +0.076 C 
ATOM      7  C   UNL     1       0.941   3.315  -3.792  0.00  0.00    +0.143 C 
ATOM      8  O   UNL     1       0.365   3.514  -4.834  0.00  0.00    -0.297 OA
ATOM      9  C   UNL     1       1.736   1.144  -2.855  0.00  0.00    +0.017 C 
ATOM     10  C   UNL     1       0.146   1.637  -0.462  0.00  0.00    +0.119 C 
ATOM     11  C   UNL     1      -0.595   2.150   0.764  0.00  0.00    +0.008 C 
ATOM     12  C   UNL     1      -0.629   1.142   1.620  0.00  0.00    +0.004 C 
ATOM     13  C   UNL     1       0.155   0.015   0.936  0.00  0.00    +0.157 C 
ATOM     14  O   UNL     1      -0.174   0.262  -0.494  0.00  0.00    -0.359 OA
ATOM     15  C   UNL     1       1.647   0.523   1.027  0.00  0.00    +0.150 C 
ATOM     16  C   UNL     1       1.681   1.522  -0.108  0.00  0.00    +0.129 C 
ATOM     17  C   UNL     1       2.048   2.949  -0.076  0.00  0.00    +0.224 C 
ATOM     18  O   UNL     1       2.765   3.509   0.725  0.00  0.00    -0.275 OA
ENDROOT
BRANCH   3  19
ATOM     19  C   UNL     1       0.624   5.689  -1.869  0.00  0.00    +0.126 A 
ATOM     20  C   UNL     1       0.738   7.022  -1.730  0.00  0.00    +0.046 A 
ATOM     21  C   UNL     1      -0.573   7.551  -1.760  0.00  0.00    +0.041 A 
ATOM     22  C   UNL     1      -1.410   6.509  -1.907  0.00  0.00    +0.195 A 
ATOM     23  O   UNL     1      -0.680   5.384  -1.972  0.00  0.00    -0.466 OA
ENDBRANCH   3  19
BRANCH  15  24
ATOM     24  C   UNL     1       1.904   1.215   2.341  0.00  0.00    +0.363 C 
ATOM     25  O   UNL     1       1.527   2.351   2.509  0.00  0.00    -0.246 OA
ATOM     26  O   UNL     1       2.551   0.570   3.324  0.00  0.00    -0.246 OA
ENDBRANCH  15  24
TORSDOF 2
