REMARK  Name = ZINC66173872
REMARK  6 active torsions:
REMARK  status: ('A' for Active; 'I' for Inactive)
REMARK    1  A    between atoms: C_1  and  N_2
REMARK    2  A    between atoms: N_2  and  C_3
REMARK    3  A    between atoms: N_6  and  C_9
REMARK    4  A    between atoms: N_17  and  C_18
REMARK    5  A    between atoms: C_18  and  C_19
REMARK    6  A    between atoms: C_19  and  C_20
REMARK                            x       y       z     vdW  Elec       q    Type
REMARK                         _______ _______ _______ _____ _____    ______ ____
ROOT
ATOM      1  C   UNL     1      -0.018   1.461   0.010  0.00  0.00    +0.134 C 
ATOM      2  N   UNL     1       0.002  -0.004   0.002  0.00  0.00    -0.286 N 
ATOM      3  C   UNL     1       0.000  -0.672  -1.169  0.00  0.00    +0.302 C 
ATOM      4  O   UNL     1       0.017  -1.887  -1.175  0.00  0.00    -0.253 OA
ATOM      5  N   UNL     1      -0.020   0.009  -2.332  0.00  0.00    -0.299 N 
ATOM      6  H   UNL     1      -0.033   0.978  -2.327  0.00  0.00    +0.150 HD
ENDROOT
BRANCH   2   7
ATOM      7  C   UNL     1       0.024  -0.743   1.267  0.00  0.00    +0.074 C 
ATOM      8  C   UNL     1      -1.218  -0.388   2.089  0.00  0.00    +0.004 C 
ATOM      9  C   UNL     1      -1.149  -1.102   3.441  0.00  0.00    -0.077 C 
ATOM     10  N   UNL     1       0.056  -0.675   4.163  0.00  0.00    +0.382 N 
ATOM     11  C   UNL     1       1.253  -1.076   3.414  0.00  0.00    -0.077 C 
ATOM     12  C   UNL     1       1.276  -0.362   2.061  0.00  0.00    +0.004 C 
ATOM     13  H   UNL     1       0.046   0.328   4.267  0.00  0.00    -0.081 HD
BRANCH  10  14
ATOM     14  C   UNL     1       0.077  -1.303   5.491  0.00  0.00    -0.064 C 
ATOM     15  C   UNL     1      -1.161  -0.870   6.282  0.00  0.00    +0.013 C 
ATOM     16  C   UNL     1      -1.090  -1.465   7.691  0.00  0.00    +0.158 C 
ATOM     17  O   UNL     1       0.117  -1.038   8.327  0.00  0.00    -0.380 OA
ATOM     18  C   UNL     1       1.308  -1.455   7.657  0.00  0.00    +0.158 C 
ATOM     19  C   UNL     1       1.334  -0.860   6.247  0.00  0.00    +0.013 C 
ENDBRANCH  10  14
ENDBRANCH   2   7
BRANCH   5  20
ATOM     20  C   UNL     1      -0.022  -0.717  -3.605  0.00  0.00    +0.110 C 
BRANCH  20  21
ATOM     21  C   UNL     1      -0.047   0.283  -4.762  0.00  0.00    +0.056 C 
BRANCH  21  22
ATOM     22  C   UNL     1      -0.049  -0.463  -6.072  0.00  0.00    -0.021 A 
ATOM     23  C   UNL     1       1.023  -0.767  -6.819  0.00  0.00    +0.087 A 
ATOM     24  N   UNL     1       0.633  -1.450  -7.939  0.00  0.00    -0.360 N 
ATOM     25  H   UNL     1       1.232  -1.776  -8.630  0.00  0.00    +0.165 HD
ATOM     26  C   UNL     1      -0.735  -1.606  -7.939  0.00  0.00    +0.047 A 
ATOM     27  C   UNL     1      -1.222  -1.000  -6.766  0.00  0.00    +0.003 A 
ATOM     28  C   UNL     1      -2.591  -1.009  -6.495  0.00  0.00    +0.010 A 
ATOM     29  C   UNL     1      -3.452  -1.610  -7.369  0.00  0.00    +0.001 A 
ATOM     30  C   UNL     1      -2.976  -2.212  -8.525  0.00  0.00    +0.002 A 
ATOM     31  C   UNL     1      -1.630  -2.207  -8.818  0.00  0.00    +0.026 A 
ENDBRANCH  21  22
ENDBRANCH  20  21
ENDBRANCH   5  20
TORSDOF 5
