REMARK  Name = ZINC20829801
REMARK  7 active torsions:
REMARK  status: ('A' for Active; 'I' for Inactive)
REMARK    1  A    between atoms: C_4  and  O_29
REMARK    2  A    between atoms: C_5  and  C_7
REMARK    3  A    between atoms: C_10  and  S_13
REMARK    4  A    between atoms: N_11  and  N_12
REMARK    5  A    between atoms: S_13  and  C_14
REMARK    6  A    between atoms: C_14  and  C_15
REMARK    7  A    between atoms: C_15  and  C_16
REMARK                            x       y       z     vdW  Elec       q    Type
REMARK                         _______ _______ _______ _____ _____    ______ ____
ROOT
ATOM      1  S   UNL     1       5.211   1.067   0.358  0.00  0.00    -0.084 S 
ENDROOT
BRANCH   1   5
ATOM      2  C   UNL     1       8.090   3.637  -0.251  0.00  0.00    +0.185 A 
ATOM      3  N   UNL     1       7.041   4.411  -0.095  0.00  0.00    -0.127 NA
ATOM      4  N   UNL     1       5.995   3.694   0.113  0.00  0.00    -0.121 NA
ATOM      5  C   UNL     1       6.313   2.419   0.111  0.00  0.00    +0.209 A 
ATOM      6  N   UNL     1       7.656   2.338  -0.123  0.00  0.00    -0.224 N 
BRANCH   2  11
ATOM      7  C   UNL     1      11.523   3.881  -1.754  0.00  0.00    +0.001 A 
ATOM      8  C   UNL     1      12.076   4.906  -1.006  0.00  0.00    +0.004 A 
ATOM      9  C   UNL     1      11.339   5.521  -0.011  0.00  0.00    +0.046 A 
ATOM     10  C   UNL     1      10.037   5.119   0.238  0.00  0.00    +0.128 A 
ATOM     11  C   UNL     1       9.476   4.078  -0.513  0.00  0.00    +0.062 A 
ATOM     12  C   UNL     1      10.230   3.465  -1.514  0.00  0.00    +0.015 A 
BRANCH  10  13
ATOM     13  O   UNL     1       9.310   5.727   1.210  0.00  0.00    -0.506 OA
ATOM     14  H   UNL     1       8.276   5.406   1.407  0.00  0.00    +0.292 HD
ENDBRANCH  10  13
ENDBRANCH   2  11
BRANCH   6  15
ATOM     15  N   UNL     1       8.411   1.203  -0.212  0.00  0.00    -0.295 N 
ATOM     16  H   UNL     1       7.939   0.217  -0.090  0.00  0.00    +0.163 HD
ATOM     17  H   UNL     1       9.492   1.274  -0.406  0.00  0.00    +0.163 HD
ENDBRANCH   6  15
ENDBRANCH   1   5
BRANCH   1  18
ATOM     18  C   UNL     1       3.658   1.966   0.598  0.00  0.00    +0.086 C 
BRANCH  18  19
ATOM     19  C   UNL     1       2.523   0.969   0.837  0.00  0.00    +0.107 C 
BRANCH  19  20
ATOM     20  C   UNL     1       1.230   1.718   1.037  0.00  0.00    +0.219 C 
ATOM     21  O   UNL     1       1.218   2.930   0.992  0.00  0.00    -0.275 OA
ATOM     22  N   UNL     1       0.088   1.041   1.265  0.00  0.00    -0.265 N 
ATOM     23  C   UNL     1      -1.102   1.729   1.443  0.00  0.00    +0.165 A 
ATOM     24  N   UNL     1      -2.303   1.251   1.667  0.00  0.00    -0.225 NA
ATOM     25  C   UNL     1      -3.384   2.047   1.823  0.00  0.00    +0.080 A 
ATOM     26  C   UNL     1      -4.723   1.664   2.069  0.00  0.00    +0.030 A 
ATOM     27  C   UNL     1      -5.708   2.606   2.202  0.00  0.00    +0.017 A 
ATOM     28  C   UNL     1      -5.432   3.963   2.103  0.00  0.00    +0.019 A 
ATOM     29  C   UNL     1      -4.132   4.374   1.864  0.00  0.00    +0.032 A 
ATOM     30  C   UNL     1      -3.139   3.436   1.729  0.00  0.00    +0.042 A 
ATOM     31  S   UNL     1      -1.388   3.493   1.432  0.00  0.00    -0.052 S 
ATOM     32 BR   UNL     1      -6.816   5.237   2.294  0.00  0.00    -0.050 Br
ATOM     33  H   UNL     1       0.099  -0.058   1.310  0.00  0.00    +0.157 HD
ENDBRANCH  19  20
ENDBRANCH  18  19
ENDBRANCH   1  18
TORSDOF 7
