REMARK  Name = ZINC60397823
REMARK  5 active torsions:
REMARK  status: ('A' for Active; 'I' for Inactive)
REMARK    1  A    between atoms: C_1  and  S_2
REMARK    2  A    between atoms: S_2  and  N_5
REMARK    3  A    between atoms: C_9  and  C_11
REMARK    4  A    between atoms: N_17  and  C_20
REMARK    5  A    between atoms: C_20  and  C_21
REMARK                            x       y       z     vdW  Elec       q    Type
REMARK                         _______ _______ _______ _____ _____    ______ ____
ROOT
ATOM      1  C   UNL     1       4.584  -2.333  -1.752  0.00  0.00    +0.220 C 
ATOM      2  O   UNL     1       5.360  -1.429  -1.528  0.00  0.00    -0.275 OA
ATOM      3  N   UNL     1       5.029  -3.485  -2.294  0.00  0.00    -0.303 N 
ATOM      4  C   UNL     1       4.046  -4.519  -2.675  0.00  0.00    +0.106 C 
ATOM      5  C   UNL     1       4.412  -5.158  -4.027  0.00  0.00    +0.000 C 
ATOM      6  C   UNL     1       4.915  -4.088  -4.970  0.00  0.00    -0.077 C 
ATOM      7  N   UNL     1       6.372  -4.015  -4.884  0.00  0.00    +0.381 N 
ATOM      8  C   UNL     1       6.866  -3.150  -3.882  0.00  0.00    -0.060 C 
ATOM      9  C   UNL     1       6.454  -3.660  -2.487  0.00  0.00    +0.089 C 
ATOM     10  H   UNL     1       6.727  -4.943  -4.707  0.00  0.00    -0.082 HD
ENDROOT
BRANCH   1  15
ATOM     11  N   UNL     1       1.505  -0.770  -0.251  0.00  0.00    -0.181 NA
ATOM     12  C   UNL     1       0.643  -0.582  -1.426  0.00  0.00    +0.109 C 
ATOM     13  C   UNL     1       0.849  -1.761  -2.382  0.00  0.00    +0.018 C 
ATOM     14  C   UNL     1       2.338  -1.893  -2.709  0.00  0.00    +0.015 C 
ATOM     15  C   UNL     1       3.122  -2.171  -1.425  0.00  0.00    +0.091 C 
ATOM     16  C   UNL     1       2.943  -0.991  -0.457  0.00  0.00    +0.121 C 
BRANCH  11  18
ATOM     17  C   UNL     1       0.966   1.016   1.774  0.00  0.00    +0.215 C 
ATOM     18  S   UNL     1       0.869  -0.727   1.278  0.00  0.00    +0.029 S 
ATOM     19  O   UNL     1       1.759  -1.509   2.063  0.00  0.00    -0.158 OA
ATOM     20  O   UNL     1      -0.488  -1.115   1.117  0.00  0.00    -0.158 OA
ENDBRANCH  11  18
ENDBRANCH   1  15
BRANCH   7  21
ATOM     21  C   UNL     1       6.891  -3.566  -6.182  0.00  0.00    -0.075 C 
BRANCH  21  22
ATOM     22  C   UNL     1       6.626  -4.641  -7.237  0.00  0.00    -0.028 C 
ATOM     23  C   UNL     1       7.397  -5.912  -6.875  0.00  0.00    +0.002 C 
ATOM     24  C   UNL     1       7.132  -6.988  -7.930  0.00  0.00    +0.000 C 
ATOM     25  C   UNL     1       7.594  -6.485  -9.299  0.00  0.00    +0.000 C 
ATOM     26  C   UNL     1       6.824  -5.213  -9.662  0.00  0.00    +0.000 C 
ATOM     27  C   UNL     1       7.089  -4.138  -8.606  0.00  0.00    +0.002 C 
ENDBRANCH  21  22
ENDBRANCH   7  21
TORSDOF 4
