REMARK  Name = ZINC30760616
REMARK  9 active torsions:
REMARK  status: ('A' for Active; 'I' for Inactive)
REMARK    1  A    between atoms: C_1  and  C_2
REMARK    2  A    between atoms: C_6  and  C_23
REMARK    3  A    between atoms: C_7  and  O_8
REMARK    4  A    between atoms: O_8  and  C_9
REMARK    5  A    between atoms: C_9  and  C_10
REMARK    6  A    between atoms: N_12  and  N_13
REMARK    7  A    between atoms: C_14  and  C_15
REMARK    8  A    between atoms: C_18  and  O_22
REMARK    9  A    between atoms: C_19  and  O_21
REMARK                            x       y       z     vdW  Elec       q    Type
REMARK                         _______ _______ _______ _____ _____    ______ ____
ROOT
ATOM      1  C   UNL     1       1.315  -2.277   0.281  0.00  0.00    +0.270 C 
ATOM      2  O   UNL     1       2.370  -2.852   0.451  0.00  0.00    -0.270 OA
ATOM      3  N   UNL     1       1.298  -0.944   0.085  0.00  0.00    -0.204 N 
ATOM      4  H   UNL     1       0.341  -0.423  -0.069  0.00  0.00    +0.177 HD
ENDROOT
BRANCH   3   5
ATOM      5  N   UNL     1       2.498  -0.221   0.077  0.00  0.00    -0.188 NA
ATOM      6  C   UNL     1       2.475   1.075   0.015  0.00  0.00    +0.138 C 
BRANCH   6   7
ATOM      7  C   UNL     1       1.300   1.815   0.510  0.00  0.00    -0.002 A 
ATOM      8  C   UNL     1       1.126   3.160   0.173  0.00  0.00    +0.013 A 
ATOM      9  C   UNL     1       0.029   3.852   0.641  0.00  0.00    +0.050 A 
ATOM     10  C   UNL     1      -0.910   3.213   1.437  0.00  0.00    +0.158 A 
ATOM     11  C   UNL     1      -0.744   1.873   1.778  0.00  0.00    +0.159 A 
ATOM     12  C   UNL     1       0.356   1.174   1.317  0.00  0.00    +0.058 A 
BRANCH  11  13
ATOM     13  O   UNL     1      -1.664   1.251   2.563  0.00  0.00    -0.503 OA
ATOM     14  H   UNL     1      -1.533   0.193   2.831  0.00  0.00    +0.292 HD
ENDBRANCH  11  13
BRANCH  10  15
ATOM     15  O   UNL     1      -1.993   3.899   1.891  0.00  0.00    -0.503 OA
ATOM     16  H   UNL     1      -2.738   3.394   2.523  0.00  0.00    +0.292 HD
ENDBRANCH  10  15
ENDBRANCH   6   7
ENDBRANCH   3   5
BRANCH   1  17
ATOM     17  C   UNL     1       0.024  -3.055   0.289  0.00  0.00    +0.326 C 
BRANCH  17  18
ATOM     18  O   UNL     1       0.303  -4.438   0.514  0.00  0.00    -0.482 OA
BRANCH  18  25
ATOM     19  C   UNL     1      -0.910  -4.896   3.024  0.00  0.00    +0.047 C 
ATOM     20  C   UNL     1      -1.397  -5.547   1.755  0.00  0.00    -0.007 A 
ATOM     21  C   UNL     1      -2.481  -6.402   1.790  0.00  0.00    +0.022 A 
ATOM     22  C   UNL     1      -2.925  -7.005   0.626  0.00  0.00    +0.019 A 
ATOM     23  C   UNL     1      -2.289  -6.748  -0.575  0.00  0.00    +0.022 A 
ATOM     24  C   UNL     1      -1.208  -5.889  -0.615  0.00  0.00    -0.007 A 
ATOM     25  C   UNL     1      -0.761  -5.284   0.551  0.00  0.00    +0.127 A 
ATOM     26  C   UNL     1      -0.514  -5.609  -1.923  0.00  0.00    +0.047 C 
ATOM     27 BR   UNL     1      -4.405  -8.181   0.677  0.00  0.00    -0.050 Br
ENDBRANCH  18  25
ENDBRANCH  17  18
ENDBRANCH   1  17
TORSDOF 7
