REMARK  Name = ZINC09308321
REMARK  10 active torsions:
REMARK  status: ('A' for Active; 'I' for Inactive)
REMARK    1  A    between atoms: C_1  and  N_2
REMARK    2  A    between atoms: N_2  and  C_3
REMARK    3  A    between atoms: N_2  and  C_30
REMARK    4  A    between atoms: C_3  and  C_4
REMARK    5  A    between atoms: C_5  and  C_15
REMARK    6  A    between atoms: N_17  and  N_18
REMARK    7  A    between atoms: C_19  and  C_20
REMARK    8  A    between atoms: C_23  and  C_26
REMARK    9  A    between atoms: C_26  and  O_28
REMARK   10  A    between atoms: O_28  and  C_29
REMARK                            x       y       z     vdW  Elec       q    Type
REMARK                         _______ _______ _______ _____ _____    ______ ____
ROOT
ATOM      1  C   UNL     1      -7.701   9.407   0.088  0.00  0.00    +0.063 A 
ATOM      2  C   UNL     1      -7.545   8.050   0.080  0.00  0.00    +0.170 A 
ATOM      3  N   UNL     1      -8.764   7.481   0.076  0.00  0.00    -0.124 NA
ATOM      4  N   UNL     1      -9.668   8.398   0.091  0.00  0.00    -0.058 NA
ATOM      5  N   UNL     1      -9.031   9.647   0.095  0.00  0.00    -0.194 N 
ATOM      6  C   UNL     1      -9.653  10.901   0.105  0.00  0.00    +0.240 A 
ATOM      7  C   UNL     1     -11.099  11.141   0.113  0.00  0.00    +0.206 A 
ATOM      8  N   UNL     1     -11.300  12.430   0.120  0.00  0.00    -0.032 NA
ATOM      9  O   UNL     1     -10.035  13.067   0.118  0.00  0.00    -0.239 OA
ATOM     10  N   UNL     1      -9.045  12.053   0.114  0.00  0.00    -0.027 NA
ATOM     11  N   UNL     1     -12.087  10.163   0.112  0.00  0.00    -0.337 N 
ATOM     12  H   UNL     1     -13.148  10.453   0.118  0.00  0.00    +0.144 HD
ATOM     13  H   UNL     1     -11.807   9.099   0.104  0.00  0.00    +0.144 HD
ENDROOT
BRANCH   2  14
ATOM     14  C   UNL     1      -6.258   7.330   0.071  0.00  0.00    +0.285 C 
ATOM     15  O   UNL     1      -5.214   7.952   0.069  0.00  0.00    -0.267 OA
ATOM     16  N   UNL     1      -6.240   5.982   0.063  0.00  0.00    -0.202 N 
ATOM     17  H   UNL     1      -7.185   5.419   0.064  0.00  0.00    +0.178 HD
BRANCH  16  18
ATOM     18  N   UNL     1      -5.018   5.298   0.054  0.00  0.00    -0.187 NA
ATOM     19  C   UNL     1      -5.000   4.000   0.047  0.00  0.00    +0.138 C 
BRANCH  19  20
ATOM     20  C   UNL     1      -3.714   3.280   0.037  0.00  0.00    -0.005 A 
ATOM     21  C   UNL     1      -3.695   1.882   0.030  0.00  0.00    +0.010 A 
ATOM     22  C   UNL     1      -2.503   1.215   0.021  0.00  0.00    +0.015 A 
ATOM     23  C   UNL     1      -1.302   1.931   0.019  0.00  0.00    +0.059 A 
ATOM     24  C   UNL     1      -1.321   3.329   0.032  0.00  0.00    +0.015 A 
ATOM     25  C   UNL     1      -2.513   3.996   0.036  0.00  0.00    +0.010 A 
BRANCH  23  26
ATOM     26  C   UNL     1      -0.014   1.211   0.009  0.00  0.00    +0.339 C 
ATOM     27  O   UNL     1       0.002  -0.004   0.002  0.00  0.00    -0.245 OA
BRANCH  26  28
ATOM     28  O   UNL     1       1.143   1.900   0.001  0.00  0.00    -0.464 OA
ATOM     29  C   UNL     1       2.372   1.126  -0.015  0.00  0.00    +0.280 C 
ENDBRANCH  26  28
ENDBRANCH  23  26
ENDBRANCH  19  20
ENDBRANCH  16  18
ENDBRANCH   2  14
BRANCH   1  30
ATOM     30  C   UNL     1      -6.602  10.438   0.089  0.00  0.00    -0.020 C 
BRANCH  30  32
ATOM     31  C   UNL     1      -5.633   9.607   2.147  0.00  0.00    -0.095 C 
ATOM     32  N   UNL     1      -6.239  10.764   1.475  0.00  0.00    +0.383 N 
ATOM     33  H   UNL     1      -7.162  11.024   2.014  0.00  0.00    -0.081 HD
BRANCH  32  34
ATOM     34  C   UNL     1      -5.344  11.929   1.524  0.00  0.00    -0.068 C 
ATOM     35  C   UNL     1      -4.016  11.581   0.848  0.00  0.00    -0.015 C 
ATOM     36  C   UNL     1      -3.085  12.794   0.899  0.00  0.00    -0.002 C 
ATOM     37  C   UNL     1      -2.829  13.179   2.358  0.00  0.00    -0.000 C 
ATOM     38  C   UNL     1      -4.157  13.527   3.033  0.00  0.00    -0.002 C 
ATOM     39  C   UNL     1      -5.089  12.315   2.982  0.00  0.00    -0.015 C 
ENDBRANCH  32  34
ENDBRANCH  30  32
ENDBRANCH   1  30
TORSDOF 8
