REMARK  Name = ZINC44813938
REMARK  11 active torsions:
REMARK  status: ('A' for Active; 'I' for Inactive)
REMARK    1  A    between atoms: C_1  and  C_2
REMARK    2  A    between atoms: C_2  and  C_3
REMARK    3  A    between atoms: C_2  and  C_4
REMARK    4  A    between atoms: C_4  and  C_5
REMARK    5  A    between atoms: C_4  and  N_8
REMARK    6  A    between atoms: C_5  and  C_6
REMARK    7  A    between atoms: C_5  and  C_7
REMARK    8  A    between atoms: C_9  and  C_11
REMARK    9  A    between atoms: N_16  and  C_18
REMARK   10  A    between atoms: C_18  and  C_19
REMARK   11  A    between atoms: C_21  and  C_24
REMARK                            x       y       z     vdW  Elec       q    Type
REMARK                         _______ _______ _______ _____ _____    ______ ____
ROOT
ATOM      1  C   UNL     1      -2.569  -3.982   1.251  0.00  0.00    +0.058 C 
ATOM      2  C   UNL     1      -2.586  -4.696  -0.103  0.00  0.00    +0.009 C 
ATOM      3  C   UNL     1      -2.718  -6.205   0.128  0.00  0.00    -0.018 C 
ATOM      4  C   UNL     1      -3.981  -6.481   0.945  0.00  0.00    -0.078 C 
ATOM      5  N   UNL     1      -3.892  -5.793   2.239  0.00  0.00    +0.386 N 
ATOM      6  C   UNL     1      -3.837  -4.341   2.028  0.00  0.00    -0.065 C 
ATOM      7  H   UNL     1      -3.059  -6.093   2.721  0.00  0.00    -0.081 HD
ENDROOT
BRANCH   1   9
ATOM      8  N   UNL     1      -1.483  -1.944   0.366  0.00  0.00    -0.312 N 
ATOM      9  C   UNL     1      -2.517  -2.492   1.034  0.00  0.00    +0.215 C 
ATOM     10  O   UNL     1      -3.406  -1.786   1.459  0.00  0.00    -0.276 OA
ATOM     11  H   UNL     1      -0.771  -2.509   0.025  0.00  0.00    +0.149 HD
BRANCH   8  12
ATOM     12  C   UNL     1      -1.432  -0.495   0.154  0.00  0.00    +0.078 C 
BRANCH  12  14
ATOM     13  C   UNL     1       0.083   1.466  -0.161  0.00  0.00    +0.009 C 
ATOM     14  C   UNL     1       0.022  -0.058  -0.034  0.00  0.00    +0.003 C 
ATOM     15  C   UNL     1       0.849  -0.502   1.174  0.00  0.00    +0.009 C 
ENDBRANCH  12  14
BRANCH  12  16
ATOM     16  C   UNL     1      -2.239  -0.134  -1.094  0.00  0.00    +0.003 C 
ATOM     17  C   UNL     1      -1.735  -0.955  -2.283  0.00  0.00    +0.009 C 
ATOM     18  C   UNL     1      -3.718  -0.441  -0.852  0.00  0.00    +0.009 C 
ENDBRANCH  12  16
ENDBRANCH   8  12
ENDBRANCH   1   9
BRANCH   5  19
ATOM     19  C   UNL     1      -5.071  -6.124   3.050  0.00  0.00    +0.022 C 
BRANCH  19  20
ATOM     20  C   UNL     1      -5.057  -7.595   3.379  0.00  0.00    +0.211 A 
ATOM     21  N   UNL     1      -4.505  -8.135   4.428  0.00  0.00    -0.193 NA
ATOM     22  C   UNL     1      -4.682  -9.468   4.406  0.00  0.00    +0.202 A 
ATOM     23  N   UNL     1      -5.356  -9.784   3.328  0.00  0.00    -0.056 NA
ATOM     24  O   UNL     1      -5.615  -8.566   2.645  0.00  0.00    -0.340 OA
BRANCH  22  25
ATOM     25  C   UNL     1      -4.194 -10.423   5.432  0.00  0.00    +0.023 A 
ATOM     26  C   UNL     1      -3.489  -9.958   6.541  0.00  0.00    +0.012 A 
ATOM     27  C   UNL     1      -3.038 -10.850   7.492  0.00  0.00    +0.002 A 
ATOM     28  C   UNL     1      -3.283 -12.204   7.347  0.00  0.00    +0.015 A 
ATOM     29  C   UNL     1      -3.981 -12.671   6.248  0.00  0.00    +0.019 A 
ATOM     30  C   UNL     1      -4.443 -11.787   5.293  0.00  0.00    +0.027 A 
ATOM     31 BR   UNL     1      -4.311 -14.524   6.057  0.00  0.00    -0.050 Br
ENDBRANCH  22  25
ENDBRANCH  19  20
ENDBRANCH   5  19
TORSDOF 7
