REMARK  Name = ZINC37182186
REMARK  6 active torsions:
REMARK  status: ('A' for Active; 'I' for Inactive)
REMARK    1  A    between atoms: C_1  and  C_2
REMARK    2  A    between atoms: C_7  and  N_8
REMARK    3  A    between atoms: C_9  and  C_11
REMARK    4  A    between atoms: C_11  and  S_12
REMARK    5  A    between atoms: S_12  and  C_13
REMARK    6  A    between atoms: C_16  and  N_19
REMARK                            x       y       z     vdW  Elec       q    Type
REMARK                         _______ _______ _______ _____ _____    ______ ____
ROOT
ATOM      1  N   UNL     1       0.025  -0.014   2.417  0.00  0.00    -0.285 N 
ATOM      2  C   UNL     1      -0.057  -0.694   3.578  0.00  0.00    +0.227 C 
ATOM      3  O   UNL     1      -0.040  -1.907   3.573  0.00  0.00    -0.275 OA
ATOM      4  H   UNL     1       0.077   0.954   2.425  0.00  0.00    +0.155 HD
ENDROOT
BRANCH   1  11
ATOM      5  C   UNL     1      -1.265   1.183   0.181  0.00  0.00    +0.046 C 
ATOM      6  C   UNL     1      -0.584  -0.158   0.084  0.00  0.00    -0.028 A 
ATOM      7  C   UNL     1      -0.569  -0.841  -1.116  0.00  0.00    +0.019 A 
ATOM      8  C   UNL     1       0.056  -2.071  -1.206  0.00  0.00    +0.014 A 
ATOM      9  C   UNL     1       0.668  -2.622  -0.094  0.00  0.00    +0.016 A 
ATOM     10  C   UNL     1       0.656  -1.944   1.109  0.00  0.00    +0.024 A 
ATOM     11  C   UNL     1       0.034  -0.706   1.201  0.00  0.00    +0.036 A 
ATOM     12  I   UNL     1       0.076  -3.103  -3.029  0.00  0.00    -0.044 I 
ENDBRANCH   1  11
BRANCH   2  13
ATOM     13  C   UNL     1      -0.169   0.053   4.882  0.00  0.00    +0.170 C 
BRANCH  13  14
ATOM     14  S   UNL     1      -0.260  -1.132   6.252  0.00  0.00    -0.116 S 
BRANCH  14  15
ATOM     15  C   UNL     1      -0.385  -0.117   7.687  0.00  0.00    +0.008 A 
ATOM     16  C   UNL     1      -0.400   1.266   7.560  0.00  0.00    +0.016 A 
ATOM     17  C   UNL     1      -0.498   2.062   8.684  0.00  0.00    +0.024 A 
ATOM     18  C   UNL     1      -0.583   1.479   9.942  0.00  0.00    +0.025 A 
ATOM     19  C   UNL     1      -0.568   0.096  10.069  0.00  0.00    +0.024 A 
ATOM     20  C   UNL     1      -0.476  -0.700   8.945  0.00  0.00    +0.016 A 
BRANCH  18  21
ATOM     21  N   UNL     1      -0.681   2.285  11.082  0.00  0.00    -0.358 N 
ATOM     22  H   UNL     1      -0.691   3.251  10.993  0.00  0.00    +0.142 HD
ATOM     23  H   UNL     1      -0.740   1.879  11.960  0.00  0.00    +0.142 HD
ENDBRANCH  18  21
ENDBRANCH  14  15
ENDBRANCH  13  14
ENDBRANCH   2  13
TORSDOF 5
