REMARK  Name = ZINC09501942
REMARK  6 active torsions:
REMARK  status: ('A' for Active; 'I' for Inactive)
REMARK    1  A    between atoms: C_3  and  C_6
REMARK    2  A    between atoms: C_6  and  C_8
REMARK    3  A    between atoms: C_6  and  N_15
REMARK    4  A    between atoms: C_16  and  C_18
REMARK    5  A    between atoms: C_18  and  N_64
REMARK    6  A    between atoms: C_21  and  C_24
REMARK                            x       y       z     vdW  Elec       q    Type
REMARK                         _______ _______ _______ _____ _____    ______ ____
ROOT
ATOM      1  N   UNL     1       0.864  -5.904   1.776  0.00  0.00    -0.306 N 
ATOM      2  C   UNL     1       1.295  -5.432   2.962  0.00  0.00    +0.197 C 
ATOM      3  O   UNL     1       1.674  -6.201   3.820  0.00  0.00    -0.278 OA
ATOM      4  H   UNL     1       0.560  -5.289   1.090  0.00  0.00    +0.150 HD
ENDROOT
BRANCH   1   5
ATOM      5  C   UNL     1       0.853  -7.347   1.522  0.00  0.00    +0.140 C 
BRANCH   5   6
ATOM      6  C   UNL     1      -0.179  -7.665   0.472  0.00  0.00    -0.022 A 
ATOM      7  C   UNL     1      -0.342  -6.825  -0.614  0.00  0.00    +0.008 A 
ATOM      8  C   UNL     1      -1.285  -7.118  -1.580  0.00  0.00    +0.038 A 
ATOM      9  C   UNL     1      -2.076  -8.248  -1.455  0.00  0.00    +0.123 A 
ATOM     10  C   UNL     1      -1.916  -9.086  -0.364  0.00  0.00    +0.038 A 
ATOM     11  C   UNL     1      -0.968  -8.793   0.598  0.00  0.00    +0.008 A 
ATOM     12  F   UNL     1      -3.002  -8.533  -2.397  0.00  0.00    -0.205 F 
ENDBRANCH   5   6
BRANCH   5  15
ATOM     13  C   UNL     1       4.155  -9.095   0.776  0.00  0.00    +0.008 A 
ATOM     14  C   UNL     1       2.911  -8.902   1.346  0.00  0.00    +0.013 A 
ATOM     15  C   UNL     1       2.213  -7.782   1.038  0.00  0.00    +0.014 A 
ATOM     16  S   UNL     1       3.322  -6.955  -0.090  0.00  0.00    -0.099 S 
ATOM     17  C   UNL     1       4.640  -8.158  -0.075  0.00  0.00    +0.045 A 
ENDBRANCH   5  15
ENDBRANCH   1   5
BRANCH   2  18
ATOM     18  C   UNL     1       1.306  -3.947   3.223  0.00  0.00    +0.019 C 
BRANCH  18  24
ATOM     19  C   UNL     1       1.946  -2.270   4.847  0.00  0.00    -0.077 C 
ATOM     20  C   UNL     1       2.485  -2.067   6.265  0.00  0.00    -0.006 C 
ATOM     21  C   UNL     1       1.462  -2.592   7.275  0.00  0.00    +0.072 C 
ATOM     22  C   UNL     1       1.180  -4.069   6.985  0.00  0.00    -0.006 C 
ATOM     23  C   UNL     1       0.679  -4.214   5.546  0.00  0.00    -0.077 C 
ATOM     24  N   UNL     1       1.719  -3.713   4.622  0.00  0.00    +0.385 N 
ATOM     25  H   UNL     1       2.594  -4.220   4.801  0.00  0.00    -0.081 HD
BRANCH  21  26
ATOM     26  C   UNL     1       2.013  -2.449   8.671  0.00  0.00    +0.219 C 
ATOM     27  O   UNL     1       2.548  -3.394   9.211  0.00  0.00    -0.275 OA
ATOM     28  N   UNL     1       1.911  -1.272   9.318  0.00  0.00    -0.301 N 
ATOM     29  C   UNL     1       2.333  -1.202  10.700  0.00  0.00    +0.108 C 
ATOM     30  C   UNL     1       1.150  -1.548  11.628  0.00  0.00    +0.019 C 
ATOM     31  C   UNL     1       0.160  -0.460  11.621  0.00  0.00    +0.002 C 
ATOM     32  C   UNL     1      -0.486  -0.208  10.262  0.00  0.00    +0.002 C 
ATOM     33  C   UNL     1       0.394   0.714   9.453  0.00  0.00    +0.019 C 
ATOM     34  C   UNL     1       1.369  -0.108   8.590  0.00  0.00    +0.108 C 
ENDBRANCH  21  26
ENDBRANCH  18  24
ENDBRANCH   2  18
TORSDOF 6
