REMARK  Name = ZINC66206128
REMARK  6 active torsions:
REMARK  status: ('A' for Active; 'I' for Inactive)
REMARK    1  A    between atoms: C_1  and  C_2
REMARK    2  A    between atoms: C_4  and  C_7
REMARK    3  A    between atoms: C_7  and  N_8
REMARK    4  A    between atoms: N_11  and  N_12
REMARK    5  A    between atoms: C_13  and  C_15
REMARK    6  A    between atoms: C_22  and  C_25
REMARK                            x       y       z     vdW  Elec       q    Type
REMARK                         _______ _______ _______ _____ _____    ______ ____
ROOT
ATOM      1  N   UNL     1       4.011  -4.204  -2.566  0.00  0.00    -0.229 N 
ATOM      2  C   UNL     1       5.285  -4.536  -2.854  0.00  0.00    +0.267 C 
ATOM      3  O   UNL     1       5.516  -5.463  -3.607  0.00  0.00    -0.268 OA
ATOM      4  H   UNL     1       3.826  -3.465  -1.965  0.00  0.00    +0.173 HD
ENDROOT
BRANCH   2   5
ATOM      5  C   UNL     1       6.392  -3.780  -2.260  0.00  0.00    +0.076 A 
ATOM      6  C   UNL     1       7.753  -3.952  -2.427  0.00  0.00    +0.024 A 
ATOM      7  C   UNL     1       8.584  -3.082  -1.736  0.00  0.00    -0.036 A 
ATOM      8  C   UNL     1       7.974  -2.142  -0.958  0.00  0.00    -0.006 A 
ATOM      9  S   UNL     1       6.333  -2.394  -1.139  0.00  0.00    -0.088 S 
ATOM     10  C   UNL     1       8.649  -1.095  -0.120  0.00  0.00    +0.043 C 
ATOM     11  C   UNL     1      10.116  -0.995  -0.559  0.00  0.00    +0.009 C 
ATOM     12  C   UNL     1      10.706  -2.406  -0.635  0.00  0.00    -0.009 C 
ATOM     13  C   UNL     1      10.106  -3.155  -1.825  0.00  0.00    +0.039 C 
ATOM     14  C   UNL     1      12.223  -2.314  -0.806  0.00  0.00    +0.008 C 
ENDBRANCH   2   5
BRANCH   1  18
ATOM     15  N   UNL     1       1.423  -3.567  -2.011  0.00  0.00    -0.289 N 
ATOM     16  C   UNL     1       1.679  -4.594  -2.845  0.00  0.00    +0.316 C 
ATOM     17  O   UNL     1       0.761  -5.221  -3.338  0.00  0.00    -0.251 OA
ATOM     18  N   UNL     1       2.953  -4.926  -3.133  0.00  0.00    -0.218 N 
ATOM     19  H   UNL     1       2.155  -3.067  -1.618  0.00  0.00    +0.151 HD
ATOM     20  H   UNL     1       3.138  -5.665  -3.734  0.00  0.00    +0.174 HD
BRANCH  15  21
ATOM     21  C   UNL     1       0.038  -3.206  -1.697  0.00  0.00    +0.204 C 
BRANCH  21  25
ATOM     22  C   UNL     1      -0.018   1.503   0.010  0.00  0.00    +0.091 C 
ATOM     23  C   UNL     1       0.002  -0.004   0.002  0.00  0.00    +0.169 A 
ATOM     24  N   UNL     1       0.008  -0.776  -1.091  0.00  0.00    -0.195 NA
ATOM     25  C   UNL     1       0.026  -2.034  -0.750  0.00  0.00    +0.245 A 
ATOM     26  O   UNL     1       0.033  -2.107   0.587  0.00  0.00    -0.336 OA
ATOM     27  N   UNL     1       0.023  -0.767   1.057  0.00  0.00    -0.062 NA
ENDBRANCH  21  25
ENDBRANCH  15  21
ENDBRANCH   1  18
TORSDOF 4
