REMARK  Name = ZINC05424974
REMARK  7 active torsions:
REMARK  status: ('A' for Active; 'I' for Inactive)
REMARK    1  A    between atoms: C_1  and  S_2
REMARK    2  A    between atoms: S_2  and  C_3
REMARK    3  A    between atoms: C_6  and  C_10
REMARK    4  A    between atoms: C_12  and  O_22
REMARK    5  A    between atoms: C_14  and  O_21
REMARK    6  A    between atoms: C_16  and  C_19
REMARK    7  A    between atoms: C_19  and  O_20
REMARK                            x       y       z     vdW  Elec       q    Type
REMARK                         _______ _______ _______ _____ _____    ______ ____
ROOT
ATOM      1  C   UNL     1      -3.672  -1.544  -3.065  0.00  0.00    +0.128 A 
ATOM      2  C   UNL     1      -2.300  -1.231  -2.668  0.00  0.00    +0.143 A 
ATOM      3  C   UNL     1      -2.102  -0.731  -1.294  0.00  0.00    +0.118 A 
ATOM      4  C   UNL     1      -0.745  -0.520  -1.201  0.00  0.00    +0.093 A 
ATOM      5  N   UNL     1      -0.212  -0.868  -2.386  0.00  0.00    -0.276 N 
ATOM      6  H   UNL     1       0.764  -0.818  -2.598  0.00  0.00    +0.189 HD
ATOM      7  N   UNL     1      -1.109  -1.272  -3.216  0.00  0.00    -0.169 NA
ATOM      8  N   UNL     1      -3.188  -0.587  -0.507  0.00  0.00    -0.232 NA
ATOM      9  C   UNL     1      -4.380  -0.893  -0.951  0.00  0.00    +0.223 A 
ATOM     10  N   UNL     1      -4.630  -1.351  -2.168  0.00  0.00    -0.227 NA
ENDROOT
BRANCH   4  11
ATOM     11  C   UNL     1       0.002  -0.004   0.002  0.00  0.00    +0.200 C 
ATOM     12  C   UNL     1      -0.019   1.537   0.011  0.00  0.00    +0.180 C 
ATOM     13  C   UNL     1       1.477   1.937  -0.002  0.00  0.00    +0.177 C 
ATOM     14  C   UNL     1       2.161   0.650   0.525  0.00  0.00    +0.175 C 
ATOM     15  O   UNL     1       1.379  -0.412  -0.062  0.00  0.00    -0.360 OA
BRANCH  13  16
ATOM     16  O   UNL     1       1.913   2.240  -1.328  0.00  0.00    -0.386 OA
ATOM     17  H   UNL     1       2.843   2.496  -1.388  0.00  0.00    +0.210 HD
ENDBRANCH  13  16
BRANCH  12  18
ATOM     18  O   UNL     1      -0.657   2.022   1.194  0.00  0.00    -0.386 OA
ATOM     19  H   UNL     1      -0.698   2.986   1.251  0.00  0.00    +0.210 HD
ENDBRANCH  12  18
BRANCH  14  20
ATOM     20  C   UNL     1       3.613   0.577   0.047  0.00  0.00    +0.190 C 
BRANCH  20  21
ATOM     21  O   UNL     1       4.223  -0.611   0.556  0.00  0.00    -0.392 OA
ATOM     22  H   UNL     1       5.147  -0.722   0.292  0.00  0.00    +0.210 HD
ENDBRANCH  20  21
ENDBRANCH  14  20
ENDBRANCH   4  11
BRANCH   1  24
ATOM     23  C   UNL     1      -5.836  -2.336  -4.542  0.00  0.00    +0.091 C 
ATOM     24  S   UNL     1      -4.040  -2.156  -4.676  0.00  0.00    -0.107 S 
ENDBRANCH   1  24
TORSDOF 6
