REMARK  Name = ZINC32776078
REMARK  12 active torsions:
REMARK  status: ('A' for Active; 'I' for Inactive)
REMARK    1  A    between atoms: C_1  and  C_2
REMARK    2  A    between atoms: C_2  and  C_3
REMARK    3  A    between atoms: C_3  and  C_4
REMARK    4  A    between atoms: C_4  and  C_5
REMARK    5  A    between atoms: C_5  and  N_6
REMARK    6  A    between atoms: C_15  and  C_17
REMARK    7  A    between atoms: C_17  and  O_19
REMARK    8  A    between atoms: O_19  and  C_20
REMARK    9  A    between atoms: C_20  and  C_22
REMARK   10  A    between atoms: C_20  and  C_23
REMARK   11  A    between atoms: N_25  and  C_26
REMARK   12  A    between atoms: N_25  and  C_27
REMARK                            x       y       z     vdW  Elec       q    Type
REMARK                         _______ _______ _______ _____ _____    ______ ____
ROOT
ATOM      1  N   UNL     1      -8.297   1.903   1.538  0.00  0.00    -0.228 N 
ATOM      2  C   UNL     1      -9.339   1.228   1.012  0.00  0.00    +0.275 A 
ATOM      3  O   UNL     1     -10.473   1.420   1.413  0.00  0.00    -0.266 OA
ATOM      4  C   UNL     1      -9.076   0.256  -0.058  0.00  0.00    +0.050 A 
ATOM      5  C   UNL     1     -10.081  -0.489  -0.667  0.00  0.00    +0.014 A 
ATOM      6  C   UNL     1      -9.750  -1.381  -1.665  0.00  0.00    +0.001 A 
ATOM      7  C   UNL     1      -8.430  -1.541  -2.066  0.00  0.00    +0.001 A 
ATOM      8  C   UNL     1      -7.420  -0.811  -1.475  0.00  0.00    +0.011 A 
ATOM      9  C   UNL     1      -7.732   0.098  -0.470  0.00  0.00    +0.021 A 
ATOM     10  C   UNL     1      -6.714   0.911   0.214  0.00  0.00    +0.176 A 
ATOM     11  N   UNL     1      -7.087   1.743   1.157  0.00  0.00    -0.161 NA
ENDROOT
BRANCH  10  12
ATOM     12  C   UNL     1      -5.291   0.795  -0.159  0.00  0.00    +0.361 C 
ATOM     13  O   UNL     1      -4.954   0.021  -1.033  0.00  0.00    -0.243 OA
BRANCH  12  14
ATOM     14  O   UNL     1      -4.366   1.547   0.469  0.00  0.00    -0.448 OA
BRANCH  14  15
ATOM     15  C   UNL     1      -2.986   1.380   0.050  0.00  0.00    +0.259 C 
ATOM     16  C   UNL     1      -2.675   2.360  -1.083  0.00  0.00    +0.062 C 
BRANCH  15  17
ATOM     17  C   UNL     1      -2.071   1.654   1.216  0.00  0.00    +0.256 C 
ATOM     18  O   UNL     1      -2.503   2.191   2.213  0.00  0.00    -0.272 OA
ATOM     19  N   UNL     1      -0.771   1.302   1.149  0.00  0.00    -0.297 N 
ATOM     20  C   UNL     1       0.094   1.470   2.319  0.00  0.00    +0.132 C 
BRANCH  19  21
ATOM     21  C   UNL     1      -0.224   0.753  -0.094  0.00  0.00    +0.098 C 
ATOM     22  C   UNL     1       1.001   1.575  -0.530  0.00  0.00    +0.046 C 
ATOM     23  C   UNL     1       1.770   0.825  -1.644  0.00  0.00    +0.168 C 
ATOM     24  S   UNL     1       1.384  -0.937  -1.285  0.00  0.00    -0.029 S 
ATOM     25  O   UNL     1       0.663  -1.485  -2.380  0.00  0.00    -0.174 OA
ATOM     26  O   UNL     1       2.564  -1.586  -0.831  0.00  0.00    -0.174 OA
ATOM     27  C   UNL     1       0.235  -0.715   0.138  0.00  0.00    +0.188 C 
ENDBRANCH  19  21
ENDBRANCH  15  17
ENDBRANCH  14  15
ENDBRANCH  12  14
ENDBRANCH  10  12
BRANCH   1  28
ATOM     28  C   UNL     1      -8.566   2.871   2.605  0.00  0.00    +0.147 C 
BRANCH  28  29
ATOM     29  C   UNL     1      -8.485   2.170   3.962  0.00  0.00    +0.023 C 
BRANCH  29  30
ATOM     30  C   UNL     1      -8.765   3.180   5.076  0.00  0.00    +0.002 C 
BRANCH  30  32
ATOM     31  C   UNL     1      -8.965   3.490   7.547  0.00  0.00    +0.004 C 
ATOM     32  C   UNL     1      -8.684   2.479   6.434  0.00  0.00    -0.003 C 
ENDBRANCH  30  32
ENDBRANCH  29  30
ENDBRANCH  28  29
ENDBRANCH   1  28
TORSDOF 9
