REMARK  Name = ZINC15481855
REMARK  12 active torsions:
REMARK  status: ('A' for Active; 'I' for Inactive)
REMARK    1  A    between atoms: C_1  and  C_2
REMARK    2  A    between atoms: C_2  and  C_3
REMARK    3  A    between atoms: C_3  and  C_4
REMARK    4  A    between atoms: C_4  and  N_5
REMARK    5  A    between atoms: C_6  and  N_34
REMARK    6  A    between atoms: C_7  and  N_14
REMARK    7  A    between atoms: N_14  and  C_15
REMARK    8  A    between atoms: C_20  and  C_22
REMARK    9  A    between atoms: C_22  and  N_23
REMARK   10  A    between atoms: N_23  and  C_24
REMARK   11  A    between atoms: C_24  and  C_26
REMARK   12  A    between atoms: C_24  and  C_27
REMARK                            x       y       z     vdW  Elec       q    Type
REMARK                         _______ _______ _______ _____ _____    ______ ____
ROOT
ATOM      1  N   UNL     1      -5.354  -3.610   2.337  0.00  0.00    -0.260 N 
ATOM      2  C   UNL     1      -4.957  -3.257   3.578  0.00  0.00    +0.234 C 
ATOM      3  O   UNL     1      -3.854  -2.782   3.749  0.00  0.00    -0.274 OA
ENDROOT
BRANCH   1   6
ATOM      4  N   UNL     1      -3.480  -1.798  -0.252  0.00  0.00    -0.280 N 
ATOM      5  C   UNL     1      -4.291  -2.034   0.834  0.00  0.00    +0.127 A 
ATOM      6  C   UNL     1      -4.528  -3.335   1.227  0.00  0.00    +0.140 A 
ATOM      7  C   UNL     1      -3.931  -4.384   0.502  0.00  0.00    +0.277 A 
ATOM      8  O   UNL     1      -4.125  -5.543   0.828  0.00  0.00    -0.266 OA
ATOM      9  N   UNL     1      -3.145  -4.098  -0.554  0.00  0.00    -0.273 N 
ATOM     10  H   UNL     1      -2.734  -4.820  -1.055  0.00  0.00    +0.173 HD
ATOM     11  C   UNL     1      -2.929  -2.824  -0.926  0.00  0.00    +0.331 A 
ATOM     12  O   UNL     1      -2.220  -2.595  -1.887  0.00  0.00    -0.246 OA
BRANCH   5  13
ATOM     13  N   UNL     1      -4.857  -0.986   1.519  0.00  0.00    -0.343 N 
ATOM     14  H   UNL     1      -4.625  -0.073   1.288  0.00  0.00    +0.144 HD
ATOM     15  H   UNL     1      -5.489  -1.159   2.234  0.00  0.00    +0.144 HD
ENDBRANCH   5  13
BRANCH   4  16
ATOM     16  C   UNL     1      -3.219  -0.422  -0.681  0.00  0.00    +0.128 C 
BRANCH  16  17
ATOM     17  C   UNL     1      -4.282   0.007  -1.695  0.00  0.00    +0.021 C 
BRANCH  17  19
ATOM     18  C   UNL     1      -5.073   1.873  -3.156  0.00  0.00    +0.004 C 
ATOM     19  C   UNL     1      -4.010   1.444  -2.142  0.00  0.00    -0.002 C 
ENDBRANCH  17  19
ENDBRANCH  16  17
ENDBRANCH   4  16
ENDBRANCH   1   6
BRANCH   1  20
ATOM     20  C   UNL     1      -6.644  -4.278   2.143  0.00  0.00    +0.082 C 
ATOM     21  C   UNL     1      -6.821  -4.664   0.660  0.00  0.00    +0.023 C 
ATOM     22  C   UNL     1      -8.327  -4.430   0.384  0.00  0.00    +0.002 C 
ATOM     23  C   UNL     1      -8.629  -3.149   1.200  0.00  0.00    +0.002 C 
ATOM     24  C   UNL     1      -7.793  -3.314   2.486  0.00  0.00    +0.023 C 
ENDBRANCH   1  20
BRANCH   2  25
ATOM     25  C   UNL     1      -5.884  -3.454   4.750  0.00  0.00    +0.178 C 
BRANCH  25  26
ATOM     26  N   UNL     1      -5.259  -2.913   5.964  0.00  0.00    -0.302 NA
ATOM     27  H   UNL     1      -4.356  -3.334   6.124  0.00  0.00    +0.123 HD
BRANCH  26  28
ATOM     28  C   UNL     1      -6.135  -3.087   7.130  0.00  0.00    +0.083 C 
ATOM     29  C   UNL     1      -7.127  -1.924   7.201  0.00  0.00    +0.029 C 
BRANCH  28  30
ATOM     30  C   UNL     1      -5.302  -3.115   8.385  0.00  0.00    -0.012 A 
ATOM     31  C   UNL     1      -4.069  -2.491   8.410  0.00  0.00    +0.006 A 
ATOM     32  C   UNL     1      -3.305  -2.516   9.562  0.00  0.00    +0.000 A 
ATOM     33  C   UNL     1      -3.773  -3.166  10.689  0.00  0.00    +0.001 A 
ATOM     34  C   UNL     1      -5.006  -3.790  10.665  0.00  0.00    +0.020 A 
ATOM     35  C   UNL     1      -5.774  -3.760   9.514  0.00  0.00    +0.046 A 
ATOM     36 CL   UNL     1      -7.325  -4.538   9.486  0.00  0.00    -0.083 Cl
ENDBRANCH  28  30
ENDBRANCH  26  28
ENDBRANCH  25  26
ENDBRANCH   2  25
TORSDOF 10
