REMARK  Name = ZINC04785173
REMARK  6 active torsions:
REMARK  status: ('A' for Active; 'I' for Inactive)
REMARK    1  A    between atoms: C_2  and  C_3
REMARK    2  A    between atoms: C_3  and  N_4
REMARK    3  A    between atoms: C_7  and  C_12
REMARK    4  A    between atoms: C_12  and  C_13
REMARK    5  A    between atoms: N_15  and  C_16
REMARK    6  A    between atoms: C_19  and  N_22
REMARK                            x       y       z     vdW  Elec       q    Type
REMARK                         _______ _______ _______ _____ _____    ______ ____
ROOT
ATOM      1  C   UNL     1       2.336   5.233  -0.093  0.00  0.00    +0.219 C 
ATOM      2  O   UNL     1       1.278   5.827  -0.081  0.00  0.00    -0.275 OA
ATOM      3  N   UNL     1       2.356   3.889   0.001  0.00  0.00    -0.285 N 
ATOM      4  H   UNL     1       3.202   3.419   0.068  0.00  0.00    +0.155 HD
ENDROOT
BRANCH   3   5
ATOM      5  C   UNL     1       1.155   3.170   0.002  0.00  0.00    +0.034 A 
ATOM      6  C   UNL     1       0.070   3.626  -0.735  0.00  0.00    +0.025 A 
ATOM      7  C   UNL     1      -1.113   2.914  -0.732  0.00  0.00    +0.034 A 
ATOM      8  C   UNL     1      -1.221   1.752   0.009  0.00  0.00    +0.126 A 
ATOM      9  C   UNL     1      -0.141   1.292   0.740  0.00  0.00    +0.034 A 
ATOM     10  C   UNL     1       1.046   1.999   0.741  0.00  0.00    +0.025 A 
BRANCH   8  11
ATOM     11  N   UNL     1      -2.493   0.995   0.015  0.00  0.00    +0.056 N 
ATOM     12  O   UNL     1      -3.443   1.396  -0.632  0.00  0.00    -0.126 OA
ATOM     13  O   UNL     1      -2.588  -0.030   0.667  0.00  0.00    -0.126 OA
ENDBRANCH   8  11
ENDBRANCH   3   5
BRANCH   1  14
ATOM     14  C   UNL     1       3.628   5.999  -0.215  0.00  0.00    +0.120 C 
BRANCH  14  18
ATOM     15  N   UNL     1       4.667   8.989  -1.635  0.00  0.00    -0.228 N 
ATOM     16  C   UNL     1       4.601   8.305  -0.505  0.00  0.00    +0.237 C 
ATOM     17  O   UNL     1       5.493   8.323   0.316  0.00  0.00    -0.274 OA
ATOM     18  C   UNL     1       3.328   7.496  -0.305  0.00  0.00    +0.151 C 
ATOM     19  S   UNL     1       2.446   7.907  -1.864  0.00  0.00    -0.054 S 
ATOM     20  C   UNL     1       3.689   8.985  -2.560  0.00  0.00    +0.282 C 
ATOM     21  O   UNL     1       3.659   9.577  -3.622  0.00  0.00    -0.262 OA
BRANCH  15  22
ATOM     22  C   UNL     1       5.865   9.791  -1.893  0.00  0.00    +0.144 C 
BRANCH  22  24
ATOM     23  C   UNL     1       6.533  11.679  -0.497  0.00  0.00    +0.005 C 
ATOM     24  C   UNL     1       5.667  11.181  -1.344  0.00  0.00    -0.015 C 
ENDBRANCH  22  24
ENDBRANCH  15  22
ENDBRANCH  14  18
ENDBRANCH   1  14
TORSDOF 6
