REMARK  Name = ZINC60399237
REMARK  4 active torsions:
REMARK  status: ('A' for Active; 'I' for Inactive)
REMARK    1  A    between atoms: C_6  and  N_7
REMARK    2  A    between atoms: C_10  and  C_12
REMARK    3  A    between atoms: C_12  and  N_13
REMARK    4  A    between atoms: C_14  and  C_16
REMARK                            x       y       z     vdW  Elec       q    Type
REMARK                         _______ _______ _______ _____ _____    ______ ____
ROOT
ATOM      1  N   UNL     1      -1.198  -0.720   0.010  0.00  0.00    -0.330 N 
ATOM      2  C   UNL     1      -2.546  -0.134   0.020  0.00  0.00    +0.105 C 
ATOM      3  C   UNL     1      -3.554  -1.302  -0.002  0.00  0.00    +0.025 C 
ATOM      4  C   UNL     1      -2.720  -2.469  -0.594  0.00  0.00    +0.025 C 
ATOM      5  C   UNL     1      -1.321  -2.189   0.003  0.00  0.00    +0.110 C 
ENDROOT
BRANCH   1  11
ATOM      6  C   UNL     1      -0.017   1.385   0.010  0.00  0.00    +0.024 A 
ATOM      7  C   UNL     1       1.171   2.090   0.002  0.00  0.00    +0.017 A 
ATOM      8  C   UNL     1       2.378   1.415  -0.013  0.00  0.00    +0.018 A 
ATOM      9  C   UNL     1       2.400   0.031  -0.021  0.00  0.00    +0.017 A 
ATOM     10  C   UNL     1       1.216  -0.679  -0.014  0.00  0.00    +0.024 A 
ATOM     11  C   UNL     1       0.002  -0.004   0.002  0.00  0.00    +0.030 A 
ATOM     12 BR   UNL     1       4.002   2.384  -0.025  0.00  0.00    -0.050 Br
ENDBRANCH   1  11
BRANCH   4  13
ATOM     13  C   UNL     1      -3.259  -3.822  -0.124  0.00  0.00    +0.109 C 
BRANCH  13  14
ATOM     14  N   UNL     1      -4.595  -4.038  -0.687  0.00  0.00    -0.313 N 
ATOM     15  C   UNL     1      -5.269  -5.171  -0.407  0.00  0.00    +0.233 C 
ATOM     16  O   UNL     1      -4.770  -6.011   0.311  0.00  0.00    -0.274 OA
ATOM     17  H   UNL     1      -4.993  -3.365  -1.261  0.00  0.00    +0.149 HD
BRANCH  15  18
ATOM     18  C   UNL     1      -6.642  -5.393  -0.986  0.00  0.00    +0.159 C 
ATOM     19  C   UNL     1      -6.533  -5.937  -2.428  0.00  0.00    +0.041 C 
ATOM     20  C   UNL     1      -7.737  -6.905  -2.491  0.00  0.00    +0.098 C 
ATOM     21  C   UNL     1      -7.980  -7.290  -1.048  0.00  0.00    +0.214 C 
ATOM     22  O   UNL     1      -8.644  -8.238  -0.684  0.00  0.00    -0.276 OA
ATOM     23  N   UNL     1      -7.351  -6.431  -0.228  0.00  0.00    -0.304 N 
ATOM     24  H   UNL     1      -7.364  -6.489   0.740  0.00  0.00    +0.149 HD
ENDBRANCH  15  18
ENDBRANCH  13  14
ENDBRANCH   4  13
TORSDOF 4
