REMARK  Name = ZINC41004854
REMARK  9 active torsions:
REMARK  status: ('A' for Active; 'I' for Inactive)
REMARK    1  A    between atoms: C_1  and  C_2
REMARK    2  A    between atoms: C_2  and  S_3
REMARK    3  A    between atoms: S_3  and  C_4
REMARK    4  A    between atoms: C_9  and  C_18
REMARK    5  A    between atoms: C_11  and  C_15
REMARK    6  A    between atoms: C_12  and  C_14
REMARK    7  A    between atoms: C_22  and  O_24
REMARK    8  A    between atoms: O_24  and  C_25
REMARK    9  A    between atoms: C_25  and  C_26
REMARK                            x       y       z     vdW  Elec       q    Type
REMARK                         _______ _______ _______ _____ _____    ______ ____
ROOT
ATOM      1  C   UNL     1      -1.497  -2.418   0.460  0.00  0.00    +0.210 A 
ATOM      2  N   UNL     1      -0.329  -3.075   0.398  0.00  0.00    -0.187 NA
ATOM      3  C   UNL     1      -0.554  -4.345   0.196  0.00  0.00    +0.219 A 
ATOM      4  N   UNL     1      -1.895  -4.528   0.117  0.00  0.00    -0.220 N 
ATOM      5  N   UNL     1      -2.481  -3.276   0.298  0.00  0.00    -0.141 NA
ATOM      6  C   UNL     1      -2.521  -5.827  -0.115  0.00  0.00    +0.177 C 
ATOM      7  C   UNL     1      -1.493  -6.915   0.050  0.00  0.00    +0.060 C 
ATOM      8  C   UNL     1      -0.176  -6.673   0.127  0.00  0.00    +0.018 C 
ATOM      9  N   UNL     1       0.338  -5.401   0.070  0.00  0.00    -0.287 N 
ATOM     10  C   UNL     1       0.770  -7.835   0.279  0.00  0.00    +0.061 C 
ATOM     11  H   UNL     1       1.288  -5.246  -0.052  0.00  0.00    +0.155 HD
ENDROOT
BRANCH   6  12
ATOM     12  C   UNL     1      -3.080  -5.873  -1.514  0.00  0.00    -0.015 A 
ATOM     13  C   UNL     1      -2.239  -5.713  -2.600  0.00  0.00    +0.006 A 
ATOM     14  C   UNL     1      -2.749  -5.754  -3.884  0.00  0.00    +0.004 A 
ATOM     15  C   UNL     1      -4.101  -5.955  -4.086  0.00  0.00    +0.045 A 
ATOM     16  C   UNL     1      -4.947  -6.115  -2.998  0.00  0.00    +0.121 A 
ATOM     17  C   UNL     1      -4.431  -6.080  -1.710  0.00  0.00    +0.051 A 
BRANCH  16  18
ATOM     18  O   UNL     1      -6.277  -6.313  -3.194  0.00  0.00    -0.487 OA
BRANCH  18  19
ATOM     19  C   UNL     1      -6.736  -6.344  -4.547  0.00  0.00    +0.264 C 
BRANCH  19  20
ATOM     20  C   UNL     1      -8.226  -6.571  -4.566  0.00  0.00    -0.010 A 
ATOM     21  C   UNL     1      -8.728  -7.858  -4.604  0.00  0.00    +0.008 A 
ATOM     22  C   UNL     1     -10.094  -8.066  -4.622  0.00  0.00    +0.020 A 
ATOM     23  C   UNL     1     -10.959  -6.987  -4.603  0.00  0.00    +0.041 A 
ATOM     24  C   UNL     1     -10.456  -5.699  -4.565  0.00  0.00    +0.020 A 
ATOM     25  C   UNL     1      -9.089  -5.491  -4.541  0.00  0.00    +0.008 A 
ATOM     26 CL   UNL     1     -12.675  -7.248  -4.626  0.00  0.00    -0.084 Cl
ENDBRANCH  19  20
ENDBRANCH  18  19
ENDBRANCH  16  18
ENDBRANCH   6  12
BRANCH   7  27
ATOM     27  C   UNL     1      -1.938  -8.256   0.129  0.00  0.00    +0.241 C 
ATOM     28  O   UNL     1      -2.474  -8.661   1.144  0.00  0.00    -0.271 OA
ATOM     29  N   UNL     1      -1.768  -9.085  -0.920  0.00  0.00    -0.325 N 
ATOM     30  H   UNL     1      -1.340  -8.763  -1.729  0.00  0.00    +0.145 HD
ATOM     31  H   UNL     1      -2.072 -10.005  -0.866  0.00  0.00    +0.145 HD
ENDBRANCH   7  27
BRANCH   1  32
ATOM     32  S   UNL     1      -1.683  -0.685   0.722  0.00  0.00    -0.085 S 
BRANCH  32  34
ATOM     33  C   UNL     1       0.004   1.435   1.099  0.00  0.00    +0.016 C 
ATOM     34  C   UNL     1       0.020  -0.077   0.866  0.00  0.00    +0.074 C 
ENDBRANCH  32  34
ENDBRANCH   1  32
TORSDOF 7
