REMARK  Name = ZINC09439689
REMARK  9 active torsions:
REMARK  status: ('A' for Active; 'I' for Inactive)
REMARK    1  A    between atoms: C_1  and  C_2
REMARK    2  A    between atoms: C_2  and  C_30
REMARK    3  A    between atoms: N_5  and  C_9
REMARK    4  A    between atoms: C_9  and  C_10
REMARK    5  A    between atoms: N_12  and  C_13
REMARK    6  A    between atoms: C_18  and  S_19
REMARK    7  A    between atoms: S_19  and  N_22
REMARK    8  A    between atoms: N_22  and  C_23
REMARK    9  A    between atoms: N_22  and  C_24
REMARK                            x       y       z     vdW  Elec       q    Type
REMARK                         _______ _______ _______ _____ _____    ______ ____
ROOT
ATOM      1  C   UNL     1      -0.711   1.594   0.902  0.00  0.00    +0.235 C 
ATOM      2  O   UNL     1      -0.597   2.627   1.527  0.00  0.00    -0.274 OA
ATOM      3  N   UNL     1       0.348   1.083   0.244  0.00  0.00    -0.283 N 
ATOM      4  H   UNL     1       0.241   0.294  -0.310  0.00  0.00    +0.155 HD
ENDROOT
BRANCH   3   5
ATOM      5  C   UNL     1       1.602   1.694   0.355  0.00  0.00    +0.060 A 
ATOM      6  C   UNL     1       1.697   3.078   0.436  0.00  0.00    +0.025 A 
ATOM      7  C   UNL     1       2.936   3.678   0.546  0.00  0.00    +0.002 A 
ATOM      8  C   UNL     1       4.081   2.903   0.575  0.00  0.00    +0.002 A 
ATOM      9  C   UNL     1       3.990   1.526   0.495  0.00  0.00    +0.030 A 
ATOM     10  C   UNL     1       2.753   0.919   0.391  0.00  0.00    +0.127 A 
BRANCH  10  11
ATOM     11  S   UNL     1       2.638  -0.836   0.297  0.00  0.00    +0.063 S 
ATOM     12  O   UNL     1       1.771  -1.128  -0.790  0.00  0.00    -0.153 OA
ATOM     13  O   UNL     1       3.967  -1.335   0.367  0.00  0.00    -0.153 OA
BRANCH  11  14
ATOM     14  N   UNL     1       1.866  -1.351   1.669  0.00  0.00    -0.177 NA
ATOM     15  C   UNL     1       0.427  -1.623   1.641  0.00  0.00    +0.132 C 
BRANCH  14  16
ATOM     16  C   UNL     1       2.622  -1.534   2.910  0.00  0.00    +0.080 C 
ATOM     17  C   UNL     1       2.513  -2.991   3.364  0.00  0.00    +0.020 C 
ATOM     18  C   UNL     1       3.303  -3.182   4.660  0.00  0.00    +0.002 C 
ATOM     19  C   UNL     1       2.733  -2.265   5.745  0.00  0.00    +0.000 C 
ATOM     20  C   UNL     1       2.842  -0.808   5.291  0.00  0.00    +0.002 C 
ATOM     21  C   UNL     1       2.052  -0.617   3.995  0.00  0.00    +0.020 C 
ENDBRANCH  14  16
ENDBRANCH  11  14
ENDBRANCH  10  11
ENDBRANCH   3   5
BRANCH   1  22
ATOM     22  C   UNL     1      -2.038   0.881   0.862  0.00  0.00    +0.214 C 
BRANCH  22  27
ATOM     23  C   UNL     1      -4.388   4.566   2.586  0.00  0.00    +0.047 C 
ATOM     24  C   UNL     1      -4.653   3.084   2.311  0.00  0.00    +0.135 C 
ATOM     25  C   UNL     1      -3.812   2.599   1.147  0.00  0.00    +0.251 C 
ATOM     26  O   UNL     1      -3.844   3.000   0.004  0.00  0.00    -0.272 OA
ATOM     27  N   UNL     1      -3.020   1.631   1.649  0.00  0.00    -0.215 N 
ATOM     28  C   UNL     1      -3.245   1.435   2.953  0.00  0.00    +0.310 C 
ATOM     29  O   UNL     1      -2.656   0.611   3.624  0.00  0.00    -0.252 OA
ATOM     30  N   UNL     1      -4.194   2.255   3.439  0.00  0.00    -0.281 N 
ATOM     31  H   UNL     1      -4.516   2.291   4.354  0.00  0.00    +0.152 HD
BRANCH  24  32
ATOM     32  C   UNL     1      -6.117   2.850   2.041  0.00  0.00    -0.016 A 
ATOM     33  C   UNL     1      -6.593   2.874   0.744  0.00  0.00    +0.006 A 
ATOM     34  C   UNL     1      -7.935   2.654   0.496  0.00  0.00    +0.000 A 
ATOM     35  C   UNL     1      -8.803   2.420   1.546  0.00  0.00    +0.000 A 
ATOM     36  C   UNL     1      -8.328   2.402   2.844  0.00  0.00    +0.000 A 
ATOM     37  C   UNL     1      -6.984   2.617   3.092  0.00  0.00    +0.006 A 
ENDBRANCH  24  32
ENDBRANCH  22  27
ENDBRANCH   1  22
TORSDOF 7
