REMARK  Name = ZINC01380974
REMARK  11 active torsions:
REMARK  status: ('A' for Active; 'I' for Inactive)
REMARK    1  A    between atoms: C_1  and  C_2
REMARK    2  A    between atoms: C_2  and  C_3
REMARK    3  A    between atoms: C_3  and  C_4
REMARK    4  A    between atoms: C_3  and  C_5
REMARK    5  A    between atoms: C_3  and  N_6
REMARK    6  A    between atoms: C_7  and  C_32
REMARK    7  A    between atoms: C_12  and  C_31
REMARK    8  A    between atoms: C_14  and  C_20
REMARK    9  A    between atoms: N_22  and  C_23
REMARK   10  A    between atoms: C_23  and  C_24
REMARK   11  A    between atoms: N_34  and  C_35
REMARK                            x       y       z     vdW  Elec       q    Type
REMARK                         _______ _______ _______ _____ _____    ______ ____
ROOT
ATOM      1  N   UNL     1       1.369   1.625  -0.002  0.00  0.00    -0.281 N 
ATOM      2  C   UNL     1      -0.013   1.086   0.008  0.00  0.00    +0.199 C 
ATOM      3  C   UNL     1      -0.615   1.609  -1.258  0.00  0.00    +0.128 C 
ATOM      4  C   UNL     1      -2.067   1.851  -1.467  0.00  0.00    +0.009 C 
ATOM      5  C   UNL     1      -2.167   2.065  -2.785  0.00  0.00    +0.007 C 
ATOM      6  C   UNL     1      -0.762   1.910  -3.380  0.00  0.00    +0.098 C 
ATOM      7  O   UNL     1      -0.195   0.908  -2.459  0.00  0.00    -0.355 OA
ATOM      8  C   UNL     1       0.056   3.168  -2.945  0.00  0.00    +0.125 C 
ATOM      9  C   UNL     1       0.115   2.994  -1.417  0.00  0.00    +0.128 C 
ATOM     10  C   UNL     1       1.475   2.663  -0.870  0.00  0.00    +0.224 C 
ATOM     11  O   UNL     1       2.506   3.234  -1.158  0.00  0.00    -0.275 OA
ATOM     12  C   UNL     1      -0.713   1.557  -4.868  0.00  0.00    +0.047 C 
ENDROOT
BRANCH   8  13
ATOM     13  C   UNL     1      -0.668   4.437  -3.315  0.00  0.00    +0.220 C 
ATOM     14  O   UNL     1      -1.110   5.158  -2.446  0.00  0.00    -0.275 OA
ATOM     15  N   UNL     1      -0.825   4.769  -4.612  0.00  0.00    -0.311 N 
ATOM     16  H   UNL     1      -0.472   4.192  -5.307  0.00  0.00    +0.149 HD
BRANCH  15  17
ATOM     17  C   UNL     1      -1.529   6.003  -4.971  0.00  0.00    +0.139 C 
BRANCH  17  18
ATOM     18  C   UNL     1      -1.567   6.140  -6.472  0.00  0.00    -0.030 A 
ATOM     19  C   UNL     1      -0.552   6.808  -7.130  0.00  0.00    +0.008 A 
ATOM     20  C   UNL     1      -0.583   6.929  -8.506  0.00  0.00    +0.038 A 
ATOM     21  C   UNL     1      -1.637   6.391  -9.225  0.00  0.00    +0.123 A 
ATOM     22  C   UNL     1      -2.657   5.728  -8.564  0.00  0.00    +0.038 A 
ATOM     23  C   UNL     1      -2.621   5.603  -7.188  0.00  0.00    +0.008 A 
ATOM     24  F   UNL     1      -1.671   6.515 -10.570  0.00  0.00    -0.205 F 
ENDBRANCH  17  18
ENDBRANCH  15  17
ENDBRANCH   8  13
BRANCH   2  25
ATOM     25  C   UNL     1      -0.770   1.596   1.207  0.00  0.00    +0.237 C 
ATOM     26  O   UNL     1      -0.356   2.556   1.822  0.00  0.00    -0.274 OA
ATOM     27  N   UNL     1      -1.906   0.985   1.597  0.00  0.00    -0.311 N 
ATOM     28  H   UNL     1      -2.237   0.217   1.105  0.00  0.00    +0.149 HD
BRANCH  27  29
ATOM     29  C   UNL     1      -2.642   1.481   2.762  0.00  0.00    +0.073 C 
ATOM     30  C   UNL     1      -2.103   0.820   4.048  0.00  0.00    +0.022 C 
ATOM     31  C   UNL     1      -3.364   0.604   4.921  0.00  0.00    +0.002 C 
ATOM     32  C   UNL     1      -4.437   0.202   3.879  0.00  0.00    +0.002 C 
ATOM     33  C   UNL     1      -4.126   1.088   2.655  0.00  0.00    +0.022 C 
ENDBRANCH  27  29
ENDBRANCH   2  25
BRANCH   1  34
ATOM     34  C   UNL     1       2.470   1.106   0.814  0.00  0.00    +0.032 C 
ATOM     35  C   UNL     1       2.107   1.227   2.295  0.00  0.00    +0.031 C 
ATOM     36  C   UNL     1       2.713  -0.364   0.467  0.00  0.00    +0.031 C 
BRANCH  34  38
ATOM     37  C   UNL     1       4.887   1.373   1.384  0.00  0.00    +0.006 C 
ATOM     38  C   UNL     1       3.738   1.914   0.532  0.00  0.00    +0.022 C 
ENDBRANCH  34  38
ENDBRANCH   1  34
TORSDOF 7
