REMARK  Name = ZINC07989651
REMARK  6 active torsions:
REMARK  status: ('A' for Active; 'I' for Inactive)
REMARK    1  A    between atoms: C_1  and  C_2
REMARK    2  A    between atoms: C_2  and  C_25
REMARK    3  A    between atoms: C_7  and  C_11
REMARK    4  A    between atoms: N_12  and  N_13
REMARK    5  A    between atoms: C_14  and  C_16
REMARK    6  A    between atoms: C_18  and  N_23
REMARK                            x       y       z     vdW  Elec       q    Type
REMARK                         _______ _______ _______ _____ _____    ______ ____
ROOT
ATOM      1  N   UNL     1       3.617   2.431  -0.019  0.00  0.00    -0.202 N 
ATOM      2  C   UNL     1       2.462   1.737  -0.012  0.00  0.00    +0.281 C 
ATOM      3  O   UNL     1       2.483   0.522  -0.018  0.00  0.00    -0.267 OA
ATOM      4  H   UNL     1       3.601   3.401  -0.014  0.00  0.00    +0.178 HD
ENDROOT
BRANCH   2   5
ATOM      5  C   UNL     1       1.168   2.455   0.004  0.00  0.00    +0.125 A 
ATOM      6  C   UNL     1      -0.021   1.732   0.012  0.00  0.00    +0.091 A 
ATOM      7  C   UNL     1      -1.233   2.424   0.021  0.00  0.00    +0.067 A 
ATOM      8  C   UNL     1      -1.199   3.817   0.033  0.00  0.00    +0.098 A 
ATOM      9  C   UNL     1       0.026   4.465   0.024  0.00  0.00    +0.128 A 
ATOM     10 CL   UNL     1       0.075   6.200   0.032  0.00  0.00    -0.062 Cl
ATOM     11 CL   UNL     1      -2.675   4.731   0.050  0.00  0.00    -0.079 Cl
ATOM     12 CL   UNL     1       0.002  -0.004   0.002  0.00  0.00    -0.079 Cl
ATOM     13  N   UNL     1       1.222   3.824   0.010  0.00  0.00    -0.339 N 
ATOM     14  H   UNL     1       2.114   4.334   0.004  0.00  0.00    +0.167 HD
BRANCH   7  15
ATOM     15  N   UNL     1      -2.446   1.739   0.023  0.00  0.00    -0.356 N 
ATOM     16  H   UNL     1      -2.456   0.769   0.018  0.00  0.00    +0.142 HD
ATOM     17  H   UNL     1      -3.282   2.232   0.030  0.00  0.00    +0.142 HD
ENDBRANCH   7  15
ENDBRANCH   2   5
BRANCH   1  19
ATOM     18  C   UNL     1       5.957   2.421  -0.041  0.00  0.00    +0.134 C 
ATOM     19  N   UNL     1       4.842   1.751  -0.034  0.00  0.00    -0.188 NA
BRANCH  18  25
ATOM     20  C   UNL     1      10.706   2.701   1.349  0.00  0.00    +0.012 C 
ATOM     21  C   UNL     1       9.483   1.843   1.017  0.00  0.00    -0.025 C 
ATOM     22  C   UNL     1       9.758   0.741  -0.019  0.00  0.00    -0.000 C 
ATOM     23  C   UNL     1       8.642  -0.309  -0.088  0.00  0.00    +0.031 C 
ATOM     24  C   UNL     1       7.296   0.374  -0.058  0.00  0.00    -0.021 C 
ATOM     25  C   UNL     1       7.240   1.709  -0.056  0.00  0.00    -0.028 C 
ATOM     26  C   UNL     1       8.561   2.458  -0.065  0.00  0.00    +0.026 C 
ATOM     27  C   UNL     1       9.544   1.842  -1.078  0.00  0.00    +0.013 C 
ATOM     28  C   UNL     1       8.738   1.353   2.260  0.00  0.00    +0.012 C 
ENDBRANCH  18  25
ENDBRANCH   1  19
TORSDOF 4
