REMARK  Name = ZINC05343186
REMARK  8 active torsions:
REMARK  status: ('A' for Active; 'I' for Inactive)
REMARK    1  A    between atoms: C_1  and  C_2
REMARK    2  A    between atoms: C_5  and  C_8
REMARK    3  A    between atoms: C_11  and  C_22
REMARK    4  A    between atoms: N_18  and  C_19
REMARK    5  A    between atoms: C_19  and  C_20
REMARK    6  A    between atoms: C_20  and  O_21
REMARK    7  A    between atoms: C_25  and  C_29
REMARK    8  A    between atoms: C_27  and  O_28
REMARK                            x       y       z     vdW  Elec       q    Type
REMARK                         _______ _______ _______ _____ _____    ______ ____
ROOT
ATOM      1  C   UNL     1       0.221  -4.252  -0.105  0.00  0.00    +0.141 C 
ATOM      2  C   UNL     1      -1.202  -4.690   0.112  0.00  0.00    +0.035 A 
ATOM      3  C   UNL     1      -2.518  -4.700  -0.361  0.00  0.00    +0.102 A 
ATOM      4  N   UNL     1      -3.246  -5.369   0.510  0.00  0.00    -0.173 NA
ATOM      5  N   UNL     1      -2.520  -5.783   1.487  0.00  0.00    -0.272 N 
ATOM      6  H   UNL     1      -2.845  -6.297   2.244  0.00  0.00    +0.189 HD
ATOM      7  C   UNL     1      -1.225  -5.392   1.302  0.00  0.00    +0.126 A 
ATOM      8  C   UNL     1       0.134  -5.419   1.854  0.00  0.00    +0.266 C 
ATOM      9  O   UNL     1       0.450  -5.961   2.897  0.00  0.00    -0.268 OA
ATOM     10  N   UNL     1       0.984  -4.759   1.044  0.00  0.00    -0.283 N 
ENDROOT
BRANCH   3  11
ATOM     11  C   UNL     1      -3.005  -4.071  -1.614  0.00  0.00    +0.045 A 
ATOM     12  C   UNL     1      -2.102  -3.503  -2.509  0.00  0.00    +0.034 A 
ATOM     13  C   UNL     1      -2.560  -2.919  -3.674  0.00  0.00    +0.045 A 
ATOM     14  C   UNL     1      -3.916  -2.897  -3.955  0.00  0.00    -0.029 A 
ATOM     15  C   UNL     1      -4.820  -3.457  -3.073  0.00  0.00    +0.050 A 
ATOM     16  C   UNL     1      -4.372  -4.052  -1.904  0.00  0.00    +0.126 A 
ATOM     17  C   UNL     1      -4.408  -2.258  -5.228  0.00  0.00    +0.045 C 
ATOM     18 CL   UNL     1      -1.433  -2.211  -4.788  0.00  0.00    -0.083 Cl
BRANCH  16  19
ATOM     19  O   UNL     1      -5.260  -4.608  -1.039  0.00  0.00    -0.506 OA
ATOM     20  H   UNL     1      -5.595  -3.995  -0.370  0.00  0.00    +0.292 HD
ENDBRANCH  16  19
ENDBRANCH   3  11
BRANCH   1  25
ATOM     21  C   UNL     1       0.523   1.515  -0.299  0.00  0.00    +0.044 C 
ATOM     22  C   UNL     1       0.444   0.011  -0.248  0.00  0.00    -0.050 A 
ATOM     23  C   UNL     1       0.111  -0.624   0.933  0.00  0.00    +0.004 A 
ATOM     24  C   UNL     1       0.039  -2.004   0.980  0.00  0.00    +0.006 A 
ATOM     25  C   UNL     1       0.299  -2.748  -0.156  0.00  0.00    -0.022 A 
ATOM     26  C   UNL     1       0.630  -2.113  -1.338  0.00  0.00    +0.006 A 
ATOM     27  C   UNL     1       0.698  -0.733  -1.385  0.00  0.00    +0.004 A 
ENDBRANCH   1  25
BRANCH  10  28
ATOM     28  C   UNL     1       2.420  -4.579   1.267  0.00  0.00    +0.137 C 
BRANCH  28  29
ATOM     29  C   UNL     1       2.646  -3.369   2.177  0.00  0.00    +0.175 C 
BRANCH  29  30
ATOM     30  O   UNL     1       2.101  -3.638   3.470  0.00  0.00    -0.393 OA
ATOM     31  H   UNL     1       2.209  -2.913   4.101  0.00  0.00    +0.209 HD
ENDBRANCH  29  30
ENDBRANCH  28  29
ENDBRANCH  10  28
TORSDOF 6
