REMARK  Name = ZINC35023471
REMARK  7 active torsions:
REMARK  status: ('A' for Active; 'I' for Inactive)
REMARK    1  A    between atoms: C_1  and  C_2
REMARK    2  A    between atoms: C_5  and  O_38
REMARK    3  A    between atoms: C_7  and  C_11
REMARK    4  A    between atoms: C_11  and  C_13
REMARK    5  A    between atoms: C_11  and  C_14
REMARK    6  A    between atoms: C_15  and  C_37
REMARK    7  A    between atoms: C_30  and  O_36
REMARK                            x       y       z     vdW  Elec       q    Type
REMARK                         _______ _______ _______ _____ _____    ______ ____
ROOT
ATOM      1  C   UNL     1       2.305  -4.411   1.376  0.00  0.00    -0.068 C 
ATOM      2  C   UNL     1       1.617  -5.107   2.268  0.00  0.00    -0.062 C 
ATOM      3  C   UNL     1       2.426  -5.526   3.463  0.00  0.00    +0.093 C 
ATOM      4  C   UNL     1       3.706  -6.151   2.826  0.00  0.00    +0.030 C 
ATOM      5  C   UNL     1       4.582  -5.011   2.381  0.00  0.00    +0.013 C 
ATOM      6  C   UNL     1       3.742  -4.034   1.545  0.00  0.00    +0.031 C 
ATOM      7  C   UNL     1       4.188  -7.087   3.872  0.00  0.00    -0.055 C 
ATOM      8  C   UNL     1       3.150  -7.405   4.677  0.00  0.00    +0.003 C 
ATOM      9  C   UNL     1       1.914  -6.703   4.247  0.00  0.00    +0.167 C 
ATOM     10  O   UNL     1       0.760  -7.006   4.469  0.00  0.00    -0.292 OA
ATOM     11  C   UNL     1       3.264  -8.350   5.830  0.00  0.00    +0.048 C 
ATOM     12  C   UNL     1       3.142  -7.662   7.186  0.00  0.00    +0.015 C 
ATOM     13  C   UNL     1       3.239  -8.731   8.282  0.00  0.00    +0.032 C 
ATOM     14  C   UNL     1       4.583  -9.454   8.222  0.00  0.00    +0.119 C 
ATOM     15  C   UNL     1       4.748 -10.162   6.868  0.00  0.00    +0.062 C 
ATOM     16  C   UNL     1       4.581  -9.083   5.806  0.00  0.00    -0.063 C 
ATOM     17  C   UNL     1       5.558  -8.796   5.010  0.00  0.00    -0.023 C 
ATOM     18  C   UNL     1       5.582  -7.620   4.079  0.00  0.00    +0.058 C 
ATOM     19  C   UNL     1       0.158  -5.446   2.101  0.00  0.00    +0.040 C 
ENDROOT
BRANCH   1  20
ATOM     20  C   UNL     1       1.602  -3.980   0.114  0.00  0.00    +0.000 C 
ATOM     21  C   UNL     1       2.400  -4.454  -1.102  0.00  0.00    +0.010 C 
BRANCH  20  26
ATOM     22  C   UNL     1      -0.112   1.506   0.074  0.00  0.00    +0.005 C 
ATOM     23  C   UNL     1      -0.066  -0.023   0.047  0.00  0.00    -0.029 C 
ATOM     24  C   UNL     1       0.667  -0.490  -1.214  0.00  0.00    +0.031 C 
ATOM     25  C   UNL     1       0.776  -2.017  -1.192  0.00  0.00    +0.101 C 
ATOM     26  C   UNL     1       1.491  -2.454   0.088  0.00  0.00    -0.036 C 
ATOM     27  N   UNL     1       0.728  -2.000   1.257  0.00  0.00    +0.383 N 
ATOM     28  C   UNL     1       0.679  -0.534   1.283  0.00  0.00    -0.079 C 
ATOM     29  H   UNL     1      -0.211  -2.366   1.207  0.00  0.00    -0.085 HD
ATOM     30  H   UNL     1       1.173  -2.336   2.099  0.00  0.00    -0.085 HD
BRANCH  25  31
ATOM     31  O   UNL     1      -0.532  -2.590  -1.229  0.00  0.00    -0.393 OA
ATOM     32  H   UNL     1      -1.044  -2.352  -2.014  0.00  0.00    +0.210 HD
ENDBRANCH  25  31
ENDBRANCH  20  26
ENDBRANCH   1  20
BRANCH  14  33
ATOM     33  O   UNL     1       5.638  -8.504   8.387  0.00  0.00    -0.391 OA
ATOM     34  H   UNL     1       6.524  -8.892   8.360  0.00  0.00    +0.210 HD
ENDBRANCH  14  33
TORSDOF 4
