REMARK  Name = ZINC38596924
REMARK  7 active torsions:
REMARK  status: ('A' for Active; 'I' for Inactive)
REMARK    1  A    between atoms: C_1  and  O_2
REMARK    2  A    between atoms: O_2  and  C_3
REMARK    3  A    between atoms: C_3  and  C_5
REMARK    4  A    between atoms: C_7  and  N_16
REMARK    5  A    between atoms: C_17  and  C_19
REMARK    6  A    between atoms: C_19  and  N_20
REMARK    7  A    between atoms: C_23  and  C_26
REMARK                            x       y       z     vdW  Elec       q    Type
REMARK                         _______ _______ _______ _____ _____    ______ ____
ROOT
ATOM      1  N   UNL     1       2.132  -2.432  -1.197  0.00  0.00    -0.288 N 
ATOM      2  C   UNL     1       3.175  -3.057  -1.778  0.00  0.00    +0.200 C 
ATOM      3  O   UNL     1       3.845  -3.840  -1.139  0.00  0.00    -0.278 OA
ATOM      4  H   UNL     1       1.546  -1.871  -1.728  0.00  0.00    +0.155 HD
ENDROOT
BRANCH   1   6
ATOM      5  C   UNL     1       2.618  -3.525   1.083  0.00  0.00    +0.234 C 
ATOM      6  C   UNL     1       1.901  -2.588   0.137  0.00  0.00    +0.053 C 
ATOM      7  C   UNL     1       0.964  -1.921   0.906  0.00  0.00    +0.019 A 
ATOM      8  C   UNL     1       0.002  -0.930   0.593  0.00  0.00    +0.026 A 
ATOM      9  C   UNL     1      -0.804  -0.444   1.570  0.00  0.00    +0.019 A 
ATOM     10  C   UNL     1      -0.713  -0.898   2.889  0.00  0.00    +0.017 A 
ATOM     11  C   UNL     1       0.183  -1.845   3.260  0.00  0.00    +0.027 A 
ATOM     12  C   UNL     1       1.062  -2.401   2.295  0.00  0.00    +0.045 A 
ATOM     13  N   UNL     1       2.006  -3.317   2.400  0.00  0.00    -0.367 N 
ATOM     14 BR   UNL     1      -2.083   0.879   1.137  0.00  0.00    -0.050 Br
ATOM     15  H   UNL     1       2.256  -3.779   3.216  0.00  0.00    +0.161 HD
BRANCH   5  16
ATOM     16  C   UNL     1       2.426  -4.954   0.643  0.00  0.00    +0.335 C 
ATOM     17  O   UNL     1       1.368  -5.507   0.828  0.00  0.00    -0.248 OA
BRANCH  16  19
ATOM     18  C   UNL     1       3.181  -6.963  -0.346  0.00  0.00    +0.280 C 
ATOM     19  O   UNL     1       3.432  -5.612   0.045  0.00  0.00    -0.466 OA
ENDBRANCH  16  19
ENDBRANCH   5  16
ENDBRANCH   1   6
BRANCH   2  20
ATOM     20  C   UNL     1       3.508  -2.784  -3.222  0.00  0.00    +0.019 C 
BRANCH  20  21
ATOM     21  N   UNL     1       4.677  -3.582  -3.615  0.00  0.00    +0.385 N 
ATOM     22  C   UNL     1       5.848  -3.141  -2.847  0.00  0.00    -0.077 C 
ATOM     23  C   UNL     1       7.051  -4.022  -3.193  0.00  0.00    -0.006 C 
ATOM     24  C   UNL     1       7.347  -3.907  -4.691  0.00  0.00    +0.071 C 
ATOM     25  C   UNL     1       6.095  -4.298  -5.481  0.00  0.00    -0.006 C 
ATOM     26  C   UNL     1       4.928  -3.406  -5.051  0.00  0.00    -0.077 C 
ATOM     27  H   UNL     1       4.498  -4.556  -3.422  0.00  0.00    -0.081 HD
BRANCH  24  28
ATOM     28  C   UNL     1       8.480  -4.832  -5.053  0.00  0.00    +0.213 C 
ATOM     29  O   UNL     1       9.001  -5.517  -4.199  0.00  0.00    -0.276 OA
ATOM     30  N   UNL     1       8.915  -4.898  -6.327  0.00  0.00    -0.329 N 
ATOM     31  H   UNL     1       8.499  -4.350  -7.011  0.00  0.00    +0.145 HD
ATOM     32  H   UNL     1       9.645  -5.494  -6.561  0.00  0.00    +0.145 HD
ENDBRANCH  24  28
ENDBRANCH  20  21
ENDBRANCH   2  20
TORSDOF 6
