REMARK  Name = ZINC38776805
REMARK  8 active torsions:
REMARK  status: ('A' for Active; 'I' for Inactive)
REMARK    1  A    between atoms: C_1  and  C_2
REMARK    2  A    between atoms: C_7  and  C_8
REMARK    3  A    between atoms: C_8  and  O_9
REMARK    4  A    between atoms: O_9  and  C_10
REMARK    5  A    between atoms: C_13  and  C_17
REMARK    6  A    between atoms: C_14  and  O_16
REMARK    7  A    between atoms: C_19  and  C_24
REMARK    8  A    between atoms: C_20  and  C_23
REMARK                            x       y       z     vdW  Elec       q    Type
REMARK                         _______ _______ _______ _____ _____    ______ ____
ROOT
ATOM      1  C   UNL     1       0.053  -0.377   4.844  0.00  0.00    +0.124 A 
ATOM      2  C   UNL     1       0.031   0.998   5.034  0.00  0.00    +0.046 A 
ATOM      3  C   UNL     1       0.036   1.520   6.313  0.00  0.00    +0.013 A 
ATOM      4  C   UNL     1       0.064   0.675   7.406  0.00  0.00    +0.022 A 
ATOM      5  C   UNL     1       0.086  -0.700   7.222  0.00  0.00    +0.126 A 
ATOM      6  C   UNL     1       0.075  -1.226   5.939  0.00  0.00    +0.091 A 
ENDROOT
BRANCH   4   7
ATOM      7  C   UNL     1       0.070   1.247   8.800  0.00  0.00    +0.164 C 
ATOM      8  C   UNL     1      -1.332   1.255   9.385  0.00  0.00    +0.011 C 
ATOM      9  C   UNL     1      -1.580   2.568   9.601  0.00  0.00    +0.064 C 
ATOM     10  N   UNL     1      -0.532   3.313   9.227  0.00  0.00    -0.182 NA
ATOM     11  N   UNL     1       0.427   2.676   8.776  0.00  0.00    -0.297 N 
ATOM     12  C   UNL     1      -2.859   3.115  10.180  0.00  0.00    +0.068 C 
ATOM     13  H   UNL     1       1.266   3.049   8.461  0.00  0.00    +0.183 HD
BRANCH   8  14
ATOM     14  C   UNL     1      -2.212   0.106   9.654  0.00  0.00    -0.018 A 
ATOM     15  C   UNL     1      -1.854  -0.843  10.618  0.00  0.00    +0.009 A 
ATOM     16  C   UNL     1      -2.684  -1.916  10.864  0.00  0.00    +0.016 A 
ATOM     17  C   UNL     1      -3.868  -2.056  10.159  0.00  0.00    +0.018 A 
ATOM     18  C   UNL     1      -4.228  -1.121   9.203  0.00  0.00    +0.016 A 
ATOM     19  C   UNL     1      -3.412  -0.039   8.951  0.00  0.00    +0.009 A 
ATOM     20 BR   UNL     1      -4.999  -3.532  10.505  0.00  0.00    -0.050 Br
ENDBRANCH   8  14
ENDBRANCH   4   7
BRANCH   5  21
ATOM     21  O   UNL     1       0.114  -1.531   8.297  0.00  0.00    -0.506 OA
ATOM     22  H   UNL     1      -0.761  -1.787   8.619  0.00  0.00    +0.292 HD
ENDBRANCH   5  21
BRANCH   1  23
ATOM     23  O   UNL     1       0.048  -0.889   3.585  0.00  0.00    -0.487 OA
BRANCH  23  24
ATOM     24  C   UNL     1       0.025   0.045   2.504  0.00  0.00    +0.264 C 
BRANCH  24  31
ATOM     25  C   UNL     1      -0.018   1.503   0.010  0.00  0.00    +0.044 C 
ATOM     26  C   UNL     1       0.002  -0.004   0.002  0.00  0.00    -0.044 A 
ATOM     27  C   UNL     1       0.006  -0.689  -1.199  0.00  0.00    +0.004 A 
ATOM     28  C   UNL     1       0.025  -2.071  -1.207  0.00  0.00    +0.000 A 
ATOM     29  C   UNL     1       0.040  -2.768  -0.013  0.00  0.00    +0.000 A 
ATOM     30  C   UNL     1       0.037  -2.084   1.188  0.00  0.00    +0.007 A 
ATOM     31  C   UNL     1       0.023  -0.702   1.195  0.00  0.00    -0.007 A 
ENDBRANCH  24  31
ENDBRANCH  23  24
ENDBRANCH   1  23
TORSDOF 6
