REMARK  Name = ZINC63974417
REMARK  8 active torsions:
REMARK  status: ('A' for Active; 'I' for Inactive)
REMARK    1  A    between atoms: C_1  and  C_2
REMARK    2  A    between atoms: C_2  and  O_3
REMARK    3  A    between atoms: O_3  and  C_4
REMARK    4  A    between atoms: C_5  and  O_26
REMARK    5  A    between atoms: C_7  and  C_11
REMARK    6  A    between atoms: C_12  and  C_13
REMARK    7  A    between atoms: C_12  and  C_15
REMARK    8  A    between atoms: O_26  and  C_27
REMARK                            x       y       z     vdW  Elec       q    Type
REMARK                         _______ _______ _______ _____ _____    ______ ____
ROOT
ATOM      1  C   UNL     1      -1.998  -6.064  -0.007  0.00  0.00    +0.026 C 
ATOM      2  C   UNL     1      -1.407  -6.816   0.945  0.00  0.00    +0.072 C 
ENDROOT
BRANCH   2   3
ATOM      3  C   UNL     1      -1.490  -8.319   0.878  0.00  0.00    +0.217 C 
ATOM      4  N   UNL     1      -0.142  -8.896   0.809  0.00  0.00    -0.358 N 
ATOM      5  C   UNL     1       0.010  -9.655   1.853  0.00  0.00    +0.081 A 
ATOM      6  C   UNL     1       1.128 -10.488   2.332  0.00  0.00    +0.045 A 
ATOM      7  C   UNL     1       0.953 -11.171   3.489  0.00  0.00    +0.038 A 
ATOM      8  C   UNL     1      -0.257 -11.083   4.204  0.00  0.00    +0.128 A 
ATOM      9  N   UNL     1      -1.268 -10.361   3.817  0.00  0.00    -0.235 NA
ATOM     10  C   UNL     1      -1.229  -9.626   2.676  0.00  0.00    +0.152 A 
ATOM     11  N   UNL     1      -2.104  -8.845   2.103  0.00  0.00    -0.344 N 
ATOM     12 BR   UNL     1       2.352 -12.255   4.153  0.00  0.00    -0.049 Br
ATOM     13  H   UNL     1      -2.997  -8.647   2.428  0.00  0.00    +0.163 HD
ATOM     14  H   UNL     1       0.515  -8.740   0.112  0.00  0.00    +0.162 HD
ENDBRANCH   2   3
BRANCH   1  18
ATOM     15  C   UNL     1      -2.165  -1.844   0.423  0.00  0.00    +0.176 A 
ATOM     16  C   UNL     1      -1.960  -2.405  -0.836  0.00  0.00    +0.163 A 
ATOM     17  C   UNL     1      -1.905  -3.777  -0.981  0.00  0.00    +0.057 A 
ATOM     18  C   UNL     1      -2.055  -4.602   0.140  0.00  0.00    -0.019 A 
ATOM     19  C   UNL     1      -2.260  -4.032   1.401  0.00  0.00    +0.027 A 
ATOM     20  C   UNL     1      -2.308  -2.661   1.537  0.00  0.00    +0.064 A 
ATOM     21 BR   UNL     1      -2.577  -1.891   3.243  0.00  0.00    -0.046 Br
BRANCH  16  22
ATOM     22  O   UNL     1      -1.816  -1.601  -1.923  0.00  0.00    -0.491 OA
ATOM     23  C   UNL     1      -1.609  -2.244  -3.183  0.00  0.00    +0.277 C 
ENDBRANCH  16  22
BRANCH  15  24
ATOM     24  O   UNL     1      -2.219  -0.493   0.563  0.00  0.00    -0.487 OA
BRANCH  24  26
ATOM     25  C   UNL     1      -1.243   1.685   0.940  0.00  0.00    +0.048 C 
ATOM     26  C   UNL     1      -0.985   0.183   0.814  0.00  0.00    +0.226 C 
ENDBRANCH  24  26
ENDBRANCH  15  24
ENDBRANCH   1  18
BRANCH   2  27
ATOM     27  C   UNL     1      -0.700  -6.185   2.019  0.00  0.00    +0.099 C 
ATOM     28  N   UNL     1      -0.139  -5.685   2.871  0.00  0.00    -0.191 NA
ENDBRANCH   2  27
TORSDOF 6
