REMARK  Name = ZINC14743872
REMARK  8 active torsions:
REMARK  status: ('A' for Active; 'I' for Inactive)
REMARK    1  A    between atoms: C_1  and  C_2
REMARK    2  A    between atoms: C_2  and  C_3
REMARK    3  A    between atoms: C_3  and  N_4
REMARK    4  A    between atoms: C_7  and  C_9
REMARK    5  A    between atoms: C_18  and  N_66
REMARK    6  A    between atoms: C_22  and  C_23
REMARK    7  A    between atoms: C_22  and  N_66
REMARK    8  A    between atoms: C_23  and  O_29
REMARK                            x       y       z     vdW  Elec       q    Type
REMARK                         _______ _______ _______ _____ _____    ______ ____
ROOT
ATOM      1  N   UNL     1      -0.248  -0.027   0.022  0.00  0.00    -0.267 N 
ATOM      2  C   UNL     1       0.056  -0.776   1.095  0.00  0.00    +0.043 A 
ATOM      3  C   UNL     1       0.210  -2.052   0.662  0.00  0.00    +0.004 A 
ATOM      4  C   UNL     1      -0.021  -2.020  -0.723  0.00  0.00    +0.151 A 
ATOM      5  N   UNL     1      -0.295  -0.765  -1.033  0.00  0.00    -0.166 NA
ATOM      6  C   UNL     1       0.560  -3.217   1.546  0.00  0.00    +0.023 C 
ATOM      7  C   UNL     1       1.099  -2.669   2.874  0.00  0.00    -0.067 C 
ATOM      8  C   UNL     1       0.141  -1.605   3.416  0.00  0.00    -0.009 C 
ATOM      9  C   UNL     1       0.210  -0.352   2.533  0.00  0.00    +0.054 C 
ENDROOT
BRANCH   4  10
ATOM     10  C   UNL     1       0.029  -3.168  -1.652  0.00  0.00    +0.267 C 
ATOM     11  O   UNL     1       0.176  -4.294  -1.220  0.00  0.00    -0.268 OA
ATOM     12  N   UNL     1      -0.090  -2.966  -2.979  0.00  0.00    -0.296 N 
ATOM     13  C   UNL     1      -0.123  -1.604  -3.529  0.00  0.00    +0.108 C 
ATOM     14  C   UNL     1       0.957  -1.490  -4.616  0.00  0.00    +0.019 C 
ATOM     15  C   UNL     1       0.745  -2.592  -5.656  0.00  0.00    +0.003 C 
ATOM     16  C   UNL     1       0.880  -3.961  -4.985  0.00  0.00    +0.019 C 
ATOM     17  C   UNL     1      -0.196  -4.103  -3.903  0.00  0.00    +0.108 C 
ENDBRANCH   4  10
BRANCH   7  18
ATOM     18  N   UNL     1       1.207  -3.774   3.846  0.00  0.00    +0.383 N 
ATOM     19  H   UNL     1       1.475  -4.634   3.352  0.00  0.00    -0.085 HD
ATOM     20  H   UNL     1       0.299  -3.912   4.304  0.00  0.00    -0.085 HD
BRANCH  18  21
ATOM     21  C   UNL     1       2.225  -3.461   4.866  0.00  0.00    -0.047 C 
BRANCH  21  22
ATOM     22  C   UNL     1       2.315  -4.623   5.858  0.00  0.00    +0.051 C 
ATOM     23  C   UNL     1       0.928  -4.905   6.439  0.00  0.00    +0.033 C 
ATOM     24  C   UNL     1       1.018  -6.067   7.431  0.00  0.00    +0.003 C 
ATOM     25  C   UNL     1       1.980  -5.699   8.562  0.00  0.00    +0.000 C 
ATOM     26  C   UNL     1       3.367  -5.417   7.981  0.00  0.00    +0.003 C 
ATOM     27  C   UNL     1       3.277  -4.255   6.989  0.00  0.00    +0.033 C 
BRANCH  22  28
ATOM     28  O   UNL     1       2.795  -5.788   5.184  0.00  0.00    -0.390 OA
ATOM     29  H   UNL     1       2.233  -6.080   4.453  0.00  0.00    +0.210 HD
ENDBRANCH  22  28
ENDBRANCH  21  22
ENDBRANCH  18  21
ENDBRANCH   7  18
BRANCH   1  30
ATOM     30  C   UNL     1      -0.496   1.417   0.049  0.00  0.00    +0.143 C 
BRANCH  30  32
ATOM     31  C   UNL     1       0.563   3.672  -0.140  0.00  0.00    +0.005 C 
ATOM     32  C   UNL     1       0.822   2.164  -0.168  0.00  0.00    +0.020 C 
ENDBRANCH  30  32
ENDBRANCH   1  30
TORSDOF 7
