REMARK  Name = ZINC08717610
REMARK  10 active torsions:
REMARK  status: ('A' for Active; 'I' for Inactive)
REMARK    1  A    between atoms: C_1  and  C_2
REMARK    2  A    between atoms: C_2  and  C_3
REMARK    3  A    between atoms: C_3  and  O_4
REMARK    4  A    between atoms: O_4  and  C_5
REMARK    5  A    between atoms: C_10  and  C_11
REMARK    6  A    between atoms: C_13  and  C_22
REMARK    7  A    between atoms: C_14  and  C_21
REMARK    8  A    between atoms: N_24  and  C_25
REMARK    9  A    between atoms: C_28  and  C_32
REMARK   10  A    between atoms: C_30  and  C_31
REMARK                            x       y       z     vdW  Elec       q    Type
REMARK                         _______ _______ _______ _____ _____    ______ ____
ROOT
ATOM      1  C   UNL     1      -1.281  -4.157  -0.090  0.00  0.00    +0.182 C 
ATOM      2  C   UNL     1      -1.153  -5.255  -1.112  0.00  0.00    +0.060 C 
ATOM      3  C   UNL     1      -1.306  -6.554  -0.815  0.00  0.00    +0.018 C 
ATOM      4  N   UNL     1      -1.581  -6.988   0.459  0.00  0.00    -0.286 N 
ATOM      5  C   UNL     1      -1.445  -6.068   1.488  0.00  0.00    +0.240 A 
ATOM      6  N   UNL     1      -1.299  -4.739   1.247  0.00  0.00    -0.201 N 
ATOM      7  N   UNL     1      -1.185  -4.141   2.500  0.00  0.00    -0.042 NA
ATOM      8  N   UNL     1      -1.270  -5.094   3.371  0.00  0.00    -0.021 NA
ATOM      9  N   UNL     1      -1.425  -6.230   2.781  0.00  0.00    -0.092 NA
ATOM     10  C   UNL     1      -1.171  -7.573  -1.917  0.00  0.00    +0.061 C 
ATOM     11  H   UNL     1      -1.860  -7.901   0.631  0.00  0.00    +0.155 HD
ENDROOT
BRANCH   1  17
ATOM     12  C   UNL     1      -2.526  -2.031  -0.557  0.00  0.00    +0.126 A 
ATOM     13  C   UNL     1      -3.705  -1.335  -0.779  0.00  0.00    +0.047 A 
ATOM     14  C   UNL     1      -4.914  -2.005  -0.763  0.00  0.00    +0.019 A 
ATOM     15  C   UNL     1      -4.948  -3.367  -0.526  0.00  0.00    +0.018 A 
ATOM     16  C   UNL     1      -3.773  -4.062  -0.304  0.00  0.00    +0.025 A 
ATOM     17  C   UNL     1      -2.562  -3.398  -0.325  0.00  0.00    +0.024 A 
ATOM     18 BR   UNL     1      -6.603  -4.281  -0.505  0.00  0.00    -0.050 Br
BRANCH  12  19
ATOM     19  O   UNL     1      -1.335  -1.374  -0.572  0.00  0.00    -0.492 OA
BRANCH  19  20
ATOM     20  C   UNL     1      -1.381   0.048  -0.706  0.00  0.00    +0.229 C 
BRANCH  20  22
ATOM     21  C   UNL     1      -0.001   2.107  -1.016  0.00  0.00    +0.007 C 
ATOM     22  C   UNL     1       0.045   0.601  -0.753  0.00  0.00    +0.038 C 
ENDBRANCH  20  22
ENDBRANCH  19  20
ENDBRANCH  12  19
ENDBRANCH   1  17
BRANCH   2  23
ATOM     23  C   UNL     1      -0.859  -4.900  -2.450  0.00  0.00    +0.248 C 
ATOM     24  O   UNL     1       0.276  -4.586  -2.761  0.00  0.00    -0.270 OA
ATOM     25  N   UNL     1      -1.834  -4.909  -3.380  0.00  0.00    -0.281 N 
ATOM     26  H   UNL     1      -2.751  -5.091  -3.120  0.00  0.00    +0.155 HD
BRANCH  25  27
ATOM     27  C   UNL     1      -1.525  -4.657  -4.720  0.00  0.00    +0.037 A 
ATOM     28  C   UNL     1      -0.216  -4.785  -5.168  0.00  0.00    +0.024 A 
ATOM     29  C   UNL     1       0.086  -4.536  -6.493  0.00  0.00    +0.005 A 
ATOM     30  C   UNL     1      -0.913  -4.159  -7.372  0.00  0.00    -0.050 A 
ATOM     31  C   UNL     1      -2.216  -4.030  -6.929  0.00  0.00    +0.008 A 
ATOM     32  C   UNL     1      -2.526  -4.284  -5.607  0.00  0.00    -0.029 A 
ATOM     33  C   UNL     1      -3.948  -4.149  -5.126  0.00  0.00    +0.045 C 
ATOM     34  C   UNL     1      -0.580  -3.887  -8.817  0.00  0.00    +0.044 C 
ENDBRANCH  25  27
ENDBRANCH   2  23
TORSDOF 6
