REMARK  Name = ZINC20704727
REMARK  8 active torsions:
REMARK  status: ('A' for Active; 'I' for Inactive)
REMARK    1  A    between atoms: C_1  and  C_2
REMARK    2  A    between atoms: C_2  and  C_3
REMARK    3  A    between atoms: C_3  and  C_5
REMARK    4  A    between atoms: C_3  and  N_6
REMARK    5  A    between atoms: N_6  and  S_7
REMARK    6  A    between atoms: S_7  and  C_10
REMARK    7  A    between atoms: C_23  and  C_26
REMARK    8  A    between atoms: C_30  and  N_32
REMARK                            x       y       z     vdW  Elec       q    Type
REMARK                         _______ _______ _______ _____ _____    ______ ____
ROOT
ATOM      1  C   UNL     1      -0.954   1.915  -1.397  0.00  0.00    +0.106 A 
ATOM      2  C   UNL     1      -1.879   1.049  -1.950  0.00  0.00    +0.030 A 
ATOM      3  C   UNL     1      -2.614   1.445  -3.050  0.00  0.00    +0.025 A 
ATOM      4  C   UNL     1      -2.416   2.704  -3.603  0.00  0.00    +0.031 A 
ATOM      5  C   UNL     1      -1.486   3.574  -3.054  0.00  0.00    -0.018 A 
ATOM      6  C   UNL     1      -0.757   3.166  -1.945  0.00  0.00    +0.034 A 
ATOM      7  C   UNL     1      -1.241   4.940  -3.612  0.00  0.00    +0.049 C 
ATOM      8  C   UNL     1       0.058   4.997  -4.379  0.00  0.00    -0.023 C 
ATOM      9  C   UNL     1      -0.063   5.787  -5.419  0.00  0.00    -0.030 C 
ATOM     10  C   UNL     1      -1.462   6.369  -5.482  0.00  0.00    +0.033 C 
ATOM     11  C   UNL     1      -2.307   5.370  -4.638  0.00  0.00    +0.029 C 
ATOM     12  C   UNL     1      -2.662   4.191  -5.548  0.00  0.00    +0.105 C 
ATOM     13  N   UNL     1      -3.163   3.087  -4.721  0.00  0.00    -0.336 N 
ATOM     14  H   UNL     1      -4.104   2.583  -4.988  0.00  0.00    +0.147 HD
ENDROOT
BRANCH  12  15
ATOM     15  C   UNL     1      -1.434   3.744  -6.297  0.00  0.00    -0.025 A 
ATOM     16  C   UNL     1      -0.500   2.936  -5.674  0.00  0.00    +0.007 A 
ATOM     17  C   UNL     1       0.627   2.525  -6.361  0.00  0.00    +0.022 A 
ATOM     18  C   UNL     1       0.821   2.923  -7.672  0.00  0.00    +0.071 A 
ATOM     19  C   UNL     1      -0.113   3.731  -8.294  0.00  0.00    +0.145 A 
ATOM     20  C   UNL     1      -1.243   4.136  -7.609  0.00  0.00    +0.039 A 
ATOM     21 CL   UNL     1       2.237   2.408  -8.534  0.00  0.00    -0.081 Cl
BRANCH  19  22
ATOM     22  N   UNL     1       0.093   4.156  -9.697  0.00  0.00    +0.058 N 
ATOM     23  O   UNL     1      -0.729   4.868 -10.245  0.00  0.00    -0.126 OA
ATOM     24  O   UNL     1       1.086   3.794 -10.303  0.00  0.00    -0.126 OA
ENDBRANCH  19  22
ENDBRANCH  12  15
BRANCH   1  25
ATOM     25  S   UNL     1      -0.017   1.417   0.010  0.00  0.00    +0.059 S 
ATOM     26  O   UNL     1       0.002  -0.004   0.002  0.00  0.00    -0.153 OA
ATOM     27  O   UNL     1       1.172   2.195   0.003  0.00  0.00    -0.153 OA
BRANCH  25  28
ATOM     28  N   UNL     1      -0.872   1.871   1.353  0.00  0.00    -0.187 NA
ATOM     29  H   UNL     1      -0.535   2.742   1.936  0.00  0.00    +0.148 HD
BRANCH  28  30
ATOM     30  C   UNL     1      -2.174   1.261   1.634  0.00  0.00    +0.073 C 
ATOM     31  C   UNL     1      -3.285   2.152   1.074  0.00  0.00    +0.025 C 
BRANCH  30  33
ATOM     32  C   UNL     1      -1.318   0.124   3.687  0.00  0.00    +0.005 C 
ATOM     33  C   UNL     1      -2.353   1.113   3.146  0.00  0.00    +0.017 C 
ENDBRANCH  30  33
ENDBRANCH  28  30
ENDBRANCH  25  28
ENDBRANCH   1  25
TORSDOF 6
