REMARK  Name = ZINC02397702
REMARK  7 active torsions:
REMARK  status: ('A' for Active; 'I' for Inactive)
REMARK    1  A    between atoms: C_1  and  O_2
REMARK    2  A    between atoms: O_2  and  C_3
REMARK    3  A    between atoms: C_6  and  C_9
REMARK    4  A    between atoms: C_12  and  S_15
REMARK    5  A    between atoms: N_13  and  N_14
REMARK    6  A    between atoms: S_15  and  C_16
REMARK    7  A    between atoms: C_16  and  C_17
REMARK                            x       y       z     vdW  Elec       q    Type
REMARK                         _______ _______ _______ _____ _____    ______ ____
ROOT
ATOM      1  C   UNL     1      -0.663   3.846   0.028  0.00  0.00    +0.182 A 
ATOM      2  N   UNL     1       0.648   3.780   0.016  0.00  0.00    -0.127 NA
ATOM      3  N   UNL     1       1.025   2.551   0.006  0.00  0.00    -0.121 NA
ATOM      4  C   UNL     1      -0.022   1.758   0.012  0.00  0.00    +0.209 A 
ATOM      5  N   UNL     1      -1.133   2.553   0.021  0.00  0.00    -0.224 N 
ENDROOT
BRANCH   1   9
ATOM      6  C   UNL     1      -3.012   7.387   0.067  0.00  0.00    +0.120 A 
ATOM      7  C   UNL     1      -1.663   7.454  -0.256  0.00  0.00    +0.046 A 
ATOM      8  C   UNL     1      -0.898   6.308  -0.270  0.00  0.00    +0.015 A 
ATOM      9  C   UNL     1      -1.480   5.078   0.042  0.00  0.00    +0.021 A 
ATOM     10  C   UNL     1      -2.838   5.013   0.361  0.00  0.00    +0.015 A 
ATOM     11  C   UNL     1      -3.595   6.165   0.378  0.00  0.00    +0.046 A 
BRANCH   6  13
ATOM     12  C   UNL     1      -5.144   8.378   0.421  0.00  0.00    +0.277 C 
ATOM     13  O   UNL     1      -3.763   8.519   0.080  0.00  0.00    -0.495 OA
ENDBRANCH   6  13
ENDBRANCH   1   9
BRANCH   5  14
ATOM     14  N   UNL     1      -2.437   2.149   0.024  0.00  0.00    -0.295 N 
ATOM     15  H   UNL     1      -2.779   2.037   0.967  0.00  0.00    +0.163 HD
ATOM     16  H   UNL     1      -3.016   2.791  -0.497  0.00  0.00    +0.163 HD
ENDBRANCH   5  14
BRANCH   4  17
ATOM     17  S   UNL     1       0.002  -0.004   0.002  0.00  0.00    -0.080 S 
BRANCH  17  18
ATOM     18  C   UNL     1       1.789  -0.294  -0.016  0.00  0.00    +0.112 C 
BRANCH  18  19
ATOM     19  C   UNL     1       2.057  -1.777  -0.026  0.00  0.00    -0.036 A 
ATOM     20  C   UNL     1       2.169  -2.451  -1.228  0.00  0.00    +0.004 A 
ATOM     21  C   UNL     1       2.416  -3.811  -1.239  0.00  0.00    +0.001 A 
ATOM     22  C   UNL     1       2.550  -4.498  -0.047  0.00  0.00    +0.015 A 
ATOM     23  C   UNL     1       2.438  -3.825   1.156  0.00  0.00    +0.018 A 
ATOM     24  C   UNL     1       2.196  -2.462   1.166  0.00  0.00    +0.019 A 
ATOM     25 BR   UNL     1       2.621  -4.764   2.787  0.00  0.00    -0.050 Br
ENDBRANCH  18  19
ENDBRANCH  17  18
ENDBRANCH   4  17
TORSDOF 6
