REMARK  Name = ZINC39948455
REMARK  5 active torsions:
REMARK  status: ('A' for Active; 'I' for Inactive)
REMARK    1  A    between atoms: C_8  and  C_10
REMARK    2  A    between atoms: N_12  and  N_13
REMARK    3  A    between atoms: C_14  and  C_15
REMARK    4  A    between atoms: C_17  and  O_24
REMARK    5  A    between atoms: C_20  and  N_21
REMARK                            x       y       z     vdW  Elec       q    Type
REMARK                         _______ _______ _______ _____ _____    ______ ____
ROOT
ATOM      1  C   UNL     1       3.118  -4.018  -0.192  0.00  0.00    +0.271 C 
ATOM      2  O   UNL     1       2.288  -4.908  -0.204  0.00  0.00    -0.268 OA
ATOM      3  N   UNL     1       4.431  -4.321  -0.168  0.00  0.00    -0.202 N 
ATOM      4  H   UNL     1       5.093  -3.611  -0.158  0.00  0.00    +0.178 HD
ENDROOT
BRANCH   1  12
ATOM      5  C   UNL     1      -0.031   1.343  -0.262  0.00  0.00    +0.001 A 
ATOM      6  C   UNL     1       1.141   2.090  -0.243  0.00  0.00    +0.001 A 
ATOM      7  C   UNL     1       2.359   1.442  -0.220  0.00  0.00    +0.016 A 
ATOM      8  C   UNL     1       2.396   0.063  -0.215  0.00  0.00    +0.021 A 
ATOM      9  C   UNL     1       1.219  -0.722  -0.234  0.00  0.00    +0.008 A 
ATOM     10  C   UNL     1      -0.011  -0.015  -0.258  0.00  0.00    +0.010 A 
ATOM     11  C   UNL     1       1.423  -2.115  -0.227  0.00  0.00    +0.068 A 
ATOM     12  C   UNL     1       2.689  -2.614  -0.203  0.00  0.00    +0.095 A 
ATOM     13  S   UNL     1       3.698  -1.143  -0.189  0.00  0.00    -0.082 S 
ATOM     14 CL   UNL     1       0.063  -3.193  -0.248  0.00  0.00    -0.082 Cl
ENDBRANCH   1  12
BRANCH   3  15
ATOM     15  N   UNL     1       4.841  -5.660  -0.157  0.00  0.00    -0.187 NA
ATOM     16  C   UNL     1       6.106  -5.952  -0.133  0.00  0.00    +0.140 C 
BRANCH  16  17
ATOM     17  C   UNL     1       6.537  -7.362  -0.122  0.00  0.00    +0.028 A 
ATOM     18  C   UNL     1       5.591  -8.384  -0.013  0.00  0.00    +0.057 A 
ATOM     19  C   UNL     1       6.004  -9.705  -0.003  0.00  0.00    +0.118 A 
ATOM     20  C   UNL     1       7.355 -10.012  -0.101  0.00  0.00    +0.047 A 
ATOM     21  C   UNL     1       8.293  -9.002  -0.208  0.00  0.00    +0.037 A 
ATOM     22  C   UNL     1       7.893  -7.682  -0.226  0.00  0.00    +0.135 A 
BRANCH  22  23
ATOM     23  N   UNL     1       8.900  -6.604  -0.348  0.00  0.00    +0.057 N 
ATOM     24  O   UNL     1      10.060  -6.881  -0.547  0.00  0.00    -0.126 OA
ATOM     25  O   UNL     1       8.563  -5.447  -0.249  0.00  0.00    -0.126 OA
ENDBRANCH  22  23
BRANCH  19  26
ATOM     26  O   UNL     1       5.087 -10.702   0.103  0.00  0.00    -0.507 OA
ATOM     27  H   UNL     1       4.751 -11.019  -0.747  0.00  0.00    +0.292 HD
ENDBRANCH  19  26
ENDBRANCH  16  17
ENDBRANCH   3  15
TORSDOF 5
