REMARK  Name = ZINC19898130
REMARK  7 active torsions:
REMARK  status: ('A' for Active; 'I' for Inactive)
REMARK    1  A    between atoms: C_1  and  C_2
REMARK    2  A    between atoms: C_4  and  O_14
REMARK    3  A    between atoms: C_5  and  C_9
REMARK    4  A    between atoms: O_14  and  C_15
REMARK    5  A    between atoms: C_15  and  C_16
REMARK    6  A    between atoms: N_18  and  N_19
REMARK    7  A    between atoms: C_20  and  C_21
REMARK                            x       y       z     vdW  Elec       q    Type
REMARK                         _______ _______ _______ _____ _____    ______ ____
ROOT
ATOM      1  C   UNL     1       1.030   3.511   0.011  0.00  0.00    +0.270 C 
ATOM      2  O   UNL     1      -0.097   3.959   0.024  0.00  0.00    -0.270 OA
ATOM      3  N   UNL     1       2.088   4.346   0.005  0.00  0.00    -0.204 N 
ATOM      4  H   UNL     1       3.110   3.940  -0.006  0.00  0.00    +0.177 HD
ENDROOT
BRANCH   3   5
ATOM      5  N   UNL     1       1.885   5.733   0.015  0.00  0.00    -0.187 NA
ATOM      6  C   UNL     1       2.904   6.538   0.009  0.00  0.00    +0.145 C 
BRANCH   6   7
ATOM      7  C   UNL     1       2.691   7.995   0.019  0.00  0.00    +0.077 A 
ATOM      8  C   UNL     1       3.751   8.854   0.019  0.00  0.00    +0.209 A 
ATOM      9  O   UNL     1       3.599  10.179   0.022  0.00  0.00    -0.462 OA
ATOM     10  C   UNL     1       2.397  10.789   0.037  0.00  0.00    +0.138 A 
ATOM     11  C   UNL     1       2.310  12.177   0.045  0.00  0.00    +0.048 A 
ATOM     12  C   UNL     1       1.076  12.790   0.061  0.00  0.00    +0.023 A 
ATOM     13  C   UNL     1      -0.090  12.037   0.068  0.00  0.00    +0.042 A 
ATOM     14  C   UNL     1      -0.027  10.660   0.059  0.00  0.00    +0.035 A 
ATOM     15  C   UNL     1       1.217  10.029   0.044  0.00  0.00    +0.066 A 
ATOM     16  C   UNL     1       1.328   8.557   0.035  0.00  0.00    +0.201 A 
ATOM     17  O   UNL     1       0.342   7.841   0.041  0.00  0.00    -0.286 OA
ATOM     18 CL   UNL     1      -1.634  12.832   0.088  0.00  0.00    -0.084 Cl
ENDBRANCH   6   7
ENDBRANCH   3   5
BRANCH   1  19
ATOM     19  C   UNL     1       1.248   2.020   0.001  0.00  0.00    +0.326 C 
BRANCH  19  20
ATOM     20  O   UNL     1      -0.016   1.354   0.009  0.00  0.00    -0.482 OA
BRANCH  20  24
ATOM     21  C   UNL     1       2.545  -2.797  -0.037  0.00  0.00    +0.045 C 
ATOM     22  C   UNL     1       1.228  -2.065  -0.020  0.00  0.00    -0.029 A 
ATOM     23  C   UNL     1       1.210  -0.683  -0.013  0.00  0.00    +0.051 A 
ATOM     24  C   UNL     1       0.002  -0.004   0.002  0.00  0.00    +0.132 A 
ATOM     25  C   UNL     1      -1.200  -0.724   0.015  0.00  0.00    +0.063 A 
ATOM     26  C   UNL     1      -1.170  -2.119   0.003  0.00  0.00    +0.035 A 
ATOM     27  C   UNL     1       0.042  -2.780  -0.012  0.00  0.00    +0.045 A 
ATOM     28 CL   UNL     1       0.079  -4.516  -0.021  0.00  0.00    -0.083 Cl
BRANCH  25  29
ATOM     29  C   UNL     1      -2.492  -0.009   0.037  0.00  0.00    +0.171 A 
ATOM     30  C   UNL     1      -3.564  -0.223  -0.787  0.00  0.00    +0.072 A 
ATOM     31  C   UNL     1      -4.522   0.713  -0.346  0.00  0.00    +0.157 A 
ATOM     32  N   UNL     1      -3.977   1.366   0.641  0.00  0.00    -0.086 NA
ATOM     33  O   UNL     1      -2.856   0.979   0.875  0.00  0.00    -0.355 OA
ENDBRANCH  25  29
ENDBRANCH  20  24
ENDBRANCH  19  20
ENDBRANCH   1  19
TORSDOF 6
