REMARK  Name = ZINC51350115
REMARK  8 active torsions:
REMARK  status: ('A' for Active; 'I' for Inactive)
REMARK    1  A    between atoms: C_1  and  C_2
REMARK    2  A    between atoms: C_7  and  C_9
REMARK    3  A    between atoms: C_7  and  C_10
REMARK    4  A    between atoms: N_13  and  C_17
REMARK    5  A    between atoms: C_17  and  C_18
REMARK    6  A    between atoms: C_20  and  C_21
REMARK    7  A    between atoms: C_20  and  C_23
REMARK    8  A    between atoms: N_25  and  C_26
REMARK                            x       y       z     vdW  Elec       q    Type
REMARK                         _______ _______ _______ _____ _____    ______ ____
ROOT
ATOM      1  C   UNL     1      -1.066   1.036   0.767  0.00  0.00    +0.007 C 
ATOM      2  C   UNL     1      -0.965  -0.484   0.609  0.00  0.00    -0.011 C 
ATOM      3  C   UNL     1      -0.038  -0.808  -0.566  0.00  0.00    +0.038 C 
ATOM      4  C   UNL     1       0.033  -2.316  -0.763  0.00  0.00    +0.113 C 
ATOM      5  C   UNL     1       0.425  -3.059   0.499  0.00  0.00    +0.041 C 
ATOM      6  C   UNL     1      -0.270  -2.604   1.770  0.00  0.00    -0.032 C 
ATOM      7  C   UNL     1      -0.366  -1.087   1.878  0.00  0.00    +0.009 C 
ATOM      8  C   UNL     1      -1.664  -3.228   1.879  0.00  0.00    +0.011 C 
ATOM      9  C   UNL     1       0.557  -3.108   2.973  0.00  0.00    +0.011 C 
ATOM     10  C   UNL     1      -1.250  -2.842  -1.358  0.00  0.00    +0.247 C 
ATOM     11  O   UNL     1      -2.382  -2.694  -0.951  0.00  0.00    -0.273 OA
ATOM     12  N   UNL     1      -0.890  -3.506  -2.478  0.00  0.00    -0.217 N 
ATOM     13  C   UNL     1       0.414  -3.360  -2.736  0.00  0.00    +0.310 C 
ATOM     14  O   UNL     1       0.973  -3.853  -3.697  0.00  0.00    -0.252 OA
ATOM     15  N   UNL     1       1.036  -2.609  -1.811  0.00  0.00    -0.285 N 
ATOM     16  H   UNL     1       1.957  -2.311  -1.815  0.00  0.00    +0.151 HD
ENDROOT
BRANCH  12  17
ATOM     17  C   UNL     1      -1.813  -4.288  -3.303  0.00  0.00    +0.198 C 
BRANCH  17  18
ATOM     18  C   UNL     1      -2.414  -3.401  -4.363  0.00  0.00    +0.196 C 
ATOM     19  O   UNL     1      -3.204  -2.373  -4.010  0.00  0.00    -0.289 OA
ATOM     20  C   UNL     1      -2.155  -3.641  -5.680  0.00  0.00    +0.157 C 
BRANCH  20  21
ATOM     21  C   UNL     1      -1.392  -4.834  -6.074  0.00  0.00    +0.258 C 
ATOM     22  O   UNL     1      -0.216  -4.734  -6.371  0.00  0.00    -0.269 OA
ATOM     23  N   UNL     1      -1.994  -6.039  -6.104  0.00  0.00    -0.314 N 
ATOM     24  C   UNL     1      -1.234  -7.229  -6.497  0.00  0.00    +0.128 C 
ATOM     25  H   UNL     1      -2.932  -6.119  -5.867  0.00  0.00    +0.149 HD
ENDBRANCH  20  21
BRANCH  20  26
ATOM     26  C   UNL     1      -2.626  -2.730  -6.680  0.00  0.00    +0.108 C 
ATOM     27  N   UNL     1      -3.000  -2.008  -7.473  0.00  0.00    -0.191 NA
ENDBRANCH  20  26
ENDBRANCH  17  18
ENDBRANCH  12  17
TORSDOF 4
