REMARK  Name = ZINC43284570
REMARK  6 active torsions:
REMARK  status: ('A' for Active; 'I' for Inactive)
REMARK    1  A    between atoms: C_1  and  C_2
REMARK    2  A    between atoms: C_2  and  C_4
REMARK    3  A    between atoms: C_2  and  N_22
REMARK    4  A    between atoms: C_4  and  C_6
REMARK    5  A    between atoms: C_4  and  N_12
REMARK    6  A    between atoms: C_16  and  C_19
REMARK                            x       y       z     vdW  Elec       q    Type
REMARK                         _______ _______ _______ _____ _____    ______ ____
ROOT
ATOM      1  C   UNL     1       0.851  -0.388   1.238  0.00  0.00    +0.079 C 
ENDROOT
BRANCH   1   2
ATOM      2  C   UNL     1       0.368  -0.348  -0.189  0.00  0.00    +0.006 A 
ATOM      3  C   UNL     1      -0.264  -1.312  -0.903  0.00  0.00    +0.028 A 
ATOM      4  C   UNL     1      -0.618  -1.050  -2.214  0.00  0.00    +0.025 A 
ATOM      5  C   UNL     1      -0.324   0.162  -2.745  0.00  0.00    +0.060 A 
ATOM      6  S   UNL     1       0.472   0.983  -1.374  0.00  0.00    -0.099 S 
ATOM      7 BR   UNL     1      -1.500  -2.364  -3.250  0.00  0.00    -0.050 Br
ENDBRANCH   1   2
BRANCH   1   8
ATOM      8  N   UNL     1       2.249   0.059   1.295  0.00  0.00    -0.296 NA
ATOM      9  C   UNL     1       2.958  -0.272   0.052  0.00  0.00    +0.085 C 
ATOM     10  C   UNL     1       4.362   0.335   0.088  0.00  0.00    +0.016 C 
ATOM     11  C   UNL     1       5.123  -0.221   1.296  0.00  0.00    +0.015 C 
ATOM     12  C   UNL     1       4.338   0.096   2.572  0.00  0.00    +0.089 C 
ATOM     13  C   UNL     1       2.935  -0.504   2.465  0.00  0.00    +0.097 C 
BRANCH  12  14
ATOM     14  C   UNL     1       5.051  -0.498   3.760  0.00  0.00    +0.215 C 
ATOM     15  O   UNL     1       4.490  -1.318   4.456  0.00  0.00    -0.276 OA
ATOM     16  N   UNL     1       6.311  -0.118   4.050  0.00  0.00    -0.329 N 
ATOM     17  H   UNL     1       6.759   0.538   3.494  0.00  0.00    +0.145 HD
ATOM     18  H   UNL     1       6.769  -0.500   4.814  0.00  0.00    +0.145 HD
ENDBRANCH  12  14
ENDBRANCH   1   8
BRANCH   1  20
ATOM     19  C   UNL     1       0.538   0.578   3.521  0.00  0.00    -0.012 C 
ATOM     20  C   UNL     1      -0.016   0.536   2.096  0.00  0.00    -0.056 C 
BRANCH  20  21
ATOM     21  N   UNL     1      -0.001   1.890   1.525  0.00  0.00    +0.381 N 
ATOM     22  H   UNL     1       0.954   2.190   1.397  0.00  0.00    -0.090 HD
ATOM     23  H   UNL     1      -0.475   1.885   0.635  0.00  0.00    -0.090 HD
ATOM     24  H   UNL     1      -0.472   2.525   2.153  0.00  0.00    -0.090 HD
ENDBRANCH  20  21
ENDBRANCH   1  20
TORSDOF 5
