REMARK  Name = ZINC11278088
REMARK  6 active torsions:
REMARK  status: ('A' for Active; 'I' for Inactive)
REMARK    1  A    between atoms: C_1  and  C_2
REMARK    2  A    between atoms: C_2  and  C_4
REMARK    3  A    between atoms: C_2  and  O_16
REMARK    4  A    between atoms: O_16  and  C_17
REMARK    5  A    between atoms: C_17  and  C_19
REMARK    6  A    between atoms: C_19  and  N_20
REMARK                            x       y       z     vdW  Elec       q    Type
REMARK                         _______ _______ _______ _____ _____    ______ ____
ROOT
ATOM      1  C   UNL     1       4.554   3.871  -1.410  0.00  0.00    +0.328 C 
ATOM      2  O   UNL     1       4.959   4.392  -0.398  0.00  0.00    -0.249 OA
ENDROOT
BRANCH   1   3
ATOM      3  O   UNL     1       3.861   2.724  -1.343  0.00  0.00    -0.453 OA
BRANCH   3   5
ATOM      4  C   UNL     1       4.785   1.222   0.336  0.00  0.00    +0.060 C 
ATOM      5  C   UNL     1       3.636   2.166  -0.021  0.00  0.00    +0.239 C 
BRANCH   5   6
ATOM      6  C   UNL     1       2.337   1.401  -0.013  0.00  0.00    +0.151 A 
ATOM      7  N   UNL     1       1.175   2.106   0.002  0.00  0.00    -0.307 N 
ATOM      8  H   UNL     1       1.201   3.075   0.007  0.00  0.00    +0.170 HD
ATOM      9  C   UNL     1      -0.018   1.466   0.010  0.00  0.00    +0.259 A 
ATOM     10  O   UNL     1      -1.067   2.084   0.018  0.00  0.00    -0.267 OA
ATOM     11  C   UNL     1       0.002  -0.004   0.002  0.00  0.00    +0.065 A 
ATOM     12  C   UNL     1      -1.170  -0.757   0.009  0.00  0.00    +0.015 A 
ATOM     13  C   UNL     1      -1.093  -2.133   0.000  0.00  0.00    +0.001 A 
ATOM     14  C   UNL     1       0.140  -2.771  -0.015  0.00  0.00    +0.002 A 
ATOM     15  C   UNL     1       1.310  -2.045  -0.021  0.00  0.00    +0.028 A 
ATOM     16  C   UNL     1       1.258  -0.650  -0.013  0.00  0.00    +0.078 A 
ATOM     17  N   UNL     1       2.386   0.104  -0.020  0.00  0.00    -0.230 NA
ENDBRANCH   5   6
ENDBRANCH   3   5
ENDBRANCH   1   3
BRANCH   1  18
ATOM     18  C   UNL     1       4.826   4.510  -2.747  0.00  0.00    +0.242 C 
BRANCH  18  19
ATOM     19  N   UNL     1       5.594   5.742  -2.553  0.00  0.00    -0.329 N 
ATOM     20  C   UNL     1       4.912   6.927  -2.381  0.00  0.00    +0.054 A 
ATOM     21  C   UNL     1       3.518   6.939  -2.394  0.00  0.00    +0.026 A 
ATOM     22  C   UNL     1       2.838   8.125  -2.222  0.00  0.00    +0.002 A 
ATOM     23  C   UNL     1       3.526   9.315  -2.035  0.00  0.00    +0.001 A 
ATOM     24  C   UNL     1       4.897   9.326  -2.008  0.00  0.00    +0.014 A 
ATOM     25  C   UNL     1       5.603   8.135  -2.186  0.00  0.00    +0.046 A 
ATOM     26  C   UNL     1       7.077   8.125  -2.178  0.00  0.00    +0.197 A 
ATOM     27  O   UNL     1       7.715   9.149  -2.017  0.00  0.00    -0.287 OA
ATOM     28  C   UNL     1       7.750   6.827  -2.373  0.00  0.00    +0.046 A 
ATOM     29  C   UNL     1       6.970   5.673  -2.554  0.00  0.00    +0.054 A 
ATOM     30  C   UNL     1       7.607   4.447  -2.738  0.00  0.00    +0.026 A 
ATOM     31  C   UNL     1       8.983   4.380  -2.740  0.00  0.00    +0.002 A 
ATOM     32  C   UNL     1       9.749   5.523  -2.561  0.00  0.00    +0.001 A 
ATOM     33  C   UNL     1       9.144   6.740  -2.378  0.00  0.00    +0.014 A 
ENDBRANCH  18  19
ENDBRANCH   1  18
TORSDOF 5
