REMARK  Name = ZINC09833638
REMARK  9 active torsions:
REMARK  status: ('A' for Active; 'I' for Inactive)
REMARK    1  A    between atoms: C_1  and  C_2
REMARK    2  A    between atoms: C_2  and  C_4
REMARK    3  A    between atoms: C_2  and  O_16
REMARK    4  A    between atoms: C_4  and  C_6
REMARK    5  A    between atoms: C_9  and  N_12
REMARK    6  A    between atoms: C_13  and  C_15
REMARK    7  A    between atoms: O_16  and  C_17
REMARK    8  A    between atoms: C_17  and  C_19
REMARK    9  A    between atoms: C_23  and  N_25
REMARK                            x       y       z     vdW  Elec       q    Type
REMARK                         _______ _______ _______ _____ _____    ______ ____
ROOT
ATOM      1  C   UNL     1      -2.842  -3.333   1.584  0.00  0.00    +0.061 C 
ATOM      2  C   UNL     1      -2.529  -2.890   0.153  0.00  0.00    +0.244 C 
ENDROOT
BRANCH   2   3
ATOM      3  C   UNL     1      -2.395  -4.104  -0.731  0.00  0.00    +0.203 C 
ATOM      4  O   UNL     1      -1.296  -4.525  -1.020  0.00  0.00    -0.288 OA
BRANCH   3   5
ATOM      5  C   UNL     1      -3.597  -4.776  -1.241  0.00  0.00    +0.021 A 
ATOM      6  C   UNL     1      -4.868  -4.295  -0.903  0.00  0.00    +0.013 A 
ATOM      7  C   UNL     1      -5.987  -4.922  -1.386  0.00  0.00    +0.024 A 
ATOM      8  C   UNL     1      -5.862  -6.043  -2.203  0.00  0.00    +0.033 A 
ATOM      9  C   UNL     1      -4.600  -6.528  -2.537  0.00  0.00    +0.024 A 
ATOM     10  C   UNL     1      -3.476  -5.904  -2.063  0.00  0.00    +0.013 A 
BRANCH   8  11
ATOM     11  N   UNL     1      -7.002  -6.680  -2.687  0.00  0.00    -0.286 N 
ATOM     12  C   UNL     1      -7.003  -8.016  -2.864  0.00  0.00    +0.214 C 
ATOM     13  O   UNL     1      -6.048  -8.675  -2.512  0.00  0.00    -0.276 OA
ATOM     14  C   UNL     1      -8.191  -8.691  -3.499  0.00  0.00    +0.109 C 
ATOM     15  H   UNL     1      -7.794  -6.162  -2.898  0.00  0.00    +0.155 HD
ENDBRANCH   8  11
ENDBRANCH   3   5
ENDBRANCH   2   3
BRANCH   2  16
ATOM     16  O   UNL     1      -1.284  -2.143   0.140  0.00  0.00    -0.450 OA
BRANCH  16  17
ATOM     17  C   UNL     1      -1.369  -0.810   0.316  0.00  0.00    +0.340 C 
ATOM     18  O   UNL     1      -2.454  -0.286   0.476  0.00  0.00    -0.245 OA
BRANCH  17  19
ATOM     19  C   UNL     1      -0.145   0.015   0.314  0.00  0.00    +0.061 A 
ATOM     20  C   UNL     1       1.104  -0.584   0.129  0.00  0.00    +0.016 A 
ATOM     21  C   UNL     1       2.246   0.188   0.128  0.00  0.00    +0.022 A 
ATOM     22  C   UNL     1       2.162   1.558   0.308  0.00  0.00    +0.062 A 
ATOM     23  C   UNL     1       0.923   2.164   0.493  0.00  0.00    +0.044 A 
ATOM     24  C   UNL     1      -0.230   1.396   0.496  0.00  0.00    +0.039 A 
ATOM     25 CL   UNL     1       3.605   2.522   0.304  0.00  0.00    -0.082 Cl
BRANCH  23  26
ATOM     26  N   UNL     1       0.843   3.548   0.674  0.00  0.00    -0.357 N 
ATOM     27  H   UNL     1      -0.021   3.970   0.803  0.00  0.00    +0.142 HD
ATOM     28  H   UNL     1       1.650   4.085   0.672  0.00  0.00    +0.142 HD
ENDBRANCH  23  26
ENDBRANCH  17  19
ENDBRANCH  16  17
ENDBRANCH   2  16
TORSDOF 7
