REMARK  Name = ZINC00199581
REMARK  2 active torsions:
REMARK  status: ('A' for Active; 'I' for Inactive)
REMARK    1  A    between atoms: C_3  and  C_6
REMARK    2  A    between atoms: C_14  and  C_16
REMARK                            x       y       z     vdW  Elec       q    Type
REMARK                         _______ _______ _______ _____ _____    ______ ____
ROOT
ATOM      1  C   UNL     1      -1.041  -0.885   0.007  0.00  0.00    +0.066 C 
ATOM      2  C   UNL     1      -0.002  -0.001  -0.041  0.00  0.00    +0.085 A 
ATOM      3  C   UNL     1       1.364  -0.230  -0.364  0.00  0.00    +0.288 A 
ATOM      4  O   UNL     1       1.751  -1.349  -0.651  0.00  0.00    -0.265 OA
ATOM      5  N   UNL     1       2.218   0.800  -0.347  0.00  0.00    -0.169 N 
ATOM      6  C   UNL     1       1.738   2.039  -0.019  0.00  0.00    +0.200 A 
ATOM      7  S   UNL     1       0.009   1.756   0.283  0.00  0.00    -0.044 S 
ATOM      8  N   UNL     1       2.705   2.910  -0.055  0.00  0.00    -0.200 NA
ATOM      9  C   UNL     1       3.845   2.292  -0.404  0.00  0.00    +0.189 A 
ATOM     10  N   UNL     1       3.602   1.016  -0.591  0.00  0.00    -0.141 NA
ENDROOT
BRANCH   1  13
ATOM     11  C   UNL     1      -1.059  -4.478  -0.313  0.00  0.00    +0.042 A 
ATOM     12  C   UNL     1      -1.752  -3.262  -0.216  0.00  0.00    +0.049 A 
ATOM     13  C   UNL     1      -0.795  -2.271  -0.110  0.00  0.00    +0.129 A 
ATOM     14  O   UNL     1       0.417  -2.865  -0.132  0.00  0.00    -0.463 OA
ATOM     15  C   UNL     1       0.261  -4.191  -0.254  0.00  0.00    +0.195 A 
ENDBRANCH   1  13
BRANCH   9  16
ATOM     16  C   UNL     1       5.162   2.945  -0.553  0.00  0.00    +0.058 A 
ATOM     17  C   UNL     1       5.498   4.261  -0.378  0.00  0.00    +0.019 A 
ATOM     18  C   UNL     1       6.807   4.642  -0.575  0.00  0.00    +0.008 A 
ATOM     19  C   UNL     1       7.722   3.706  -0.936  0.00  0.00    +0.046 A 
ATOM     20  S   UNL     1       6.732   2.221  -1.000  0.00  0.00    -0.093 S 
ENDBRANCH   9  16
TORSDOF 2
