REMARK  Name = ZINC58581361
REMARK  7 active torsions:
REMARK  status: ('A' for Active; 'I' for Inactive)
REMARK    1  A    between atoms: C_1  and  C_2
REMARK    2  A    between atoms: C_5  and  N_19
REMARK    3  A    between atoms: C_7  and  S_8
REMARK    4  A    between atoms: S_8  and  N_11
REMARK    5  A    between atoms: N_11  and  C_12
REMARK    6  A    between atoms: C_20  and  C_22
REMARK    7  A    between atoms: C_24  and  C_25
REMARK                            x       y       z     vdW  Elec       q    Type
REMARK                         _______ _______ _______ _____ _____    ______ ____
ROOT
ATOM      1  C   UNL     1      -0.037   1.475   0.007  0.00  0.00    +0.046 C 
ATOM      2  C   UNL     1       0.188  -0.015   0.008  0.00  0.00    -0.024 A 
ATOM      3  C   UNL     1       0.253  -0.704  -1.190  0.00  0.00    +0.007 A 
ATOM      4  C   UNL     1       0.460  -2.069  -1.193  0.00  0.00    +0.023 A 
ATOM      5  C   UNL     1       0.603  -2.751   0.009  0.00  0.00    +0.035 A 
ATOM      6  C   UNL     1       0.538  -2.057   1.210  0.00  0.00    +0.052 A 
ATOM      7  C   UNL     1       0.336  -0.690   1.206  0.00  0.00    +0.113 A 
ENDROOT
BRANCH   5   8
ATOM      8  N   UNL     1       0.812  -4.135   0.009  0.00  0.00    -0.285 N 
ATOM      9  C   UNL     1       1.512  -4.711  -0.988  0.00  0.00    +0.221 C 
ATOM     10  O   UNL     1       2.036  -4.022  -1.838  0.00  0.00    -0.275 OA
ATOM     11  H   UNL     1       0.454  -4.679   0.728  0.00  0.00    +0.155 HD
BRANCH   9  12
ATOM     12  C   UNL     1       1.643  -6.211  -1.047  0.00  0.00    +0.078 C 
ATOM     13  C   UNL     1       3.027  -6.809  -0.787  0.00  0.00    +0.017 C 
ATOM     14  C   UNL     1       2.450  -6.804  -2.204  0.00  0.00    -0.002 C 
ATOM     15  C   UNL     1       3.062  -5.829  -3.212  0.00  0.00    +0.008 C 
ENDBRANCH   9  12
ENDBRANCH   5   8
BRANCH   7  16
ATOM     16  S   UNL     1       0.259   0.193   2.729  0.00  0.00    +0.073 S 
ATOM     17  O   UNL     1       0.394  -0.771   3.764  0.00  0.00    -0.150 OA
ATOM     18  O   UNL     1       1.140   1.301   2.600  0.00  0.00    -0.150 OA
BRANCH  16  19
ATOM     19  N   UNL     1      -1.270   0.816   2.857  0.00  0.00    -0.216 N 
ATOM     20  H   UNL     1      -1.407   1.775   2.824  0.00  0.00    +0.174 HD
BRANCH  19  21
ATOM     21  C   UNL     1      -2.363  -0.042   3.014  0.00  0.00    +0.048 A 
ATOM     22  C   UNL     1      -2.472  -1.181   2.227  0.00  0.00    +0.027 A 
ATOM     23  C   UNL     1      -3.553  -2.027   2.384  0.00  0.00    +0.040 A 
ATOM     24  C   UNL     1      -4.527  -1.740   3.326  0.00  0.00    +0.124 A 
ATOM     25  C   UNL     1      -4.420  -0.604   4.111  0.00  0.00    +0.040 A 
ATOM     26  C   UNL     1      -3.338   0.241   3.961  0.00  0.00    +0.027 A 
ATOM     27  F   UNL     1      -5.583  -2.568   3.477  0.00  0.00    -0.205 F 
ENDBRANCH  19  21
ENDBRANCH  16  19
ENDBRANCH   7  16
TORSDOF 5
