REMARK  Name = ZINC09271731
REMARK  5 active torsions:
REMARK  status: ('A' for Active; 'I' for Inactive)
REMARK    1  A    between atoms: C_5  and  C_7
REMARK    2  A    between atoms: N_8  and  N_9
REMARK    3  A    between atoms: C_10  and  C_12
REMARK    4  A    between atoms: C_12  and  N_68
REMARK    5  A    between atoms: C_19  and  C_29
REMARK                            x       y       z     vdW  Elec       q    Type
REMARK                         _______ _______ _______ _____ _____    ______ ____
ROOT
ATOM      1  C   UNL     1      -4.136   2.726   8.975  0.00  0.00    -0.055 C 
ATOM      2  C   UNL     1      -2.734   2.113   8.882  0.00  0.00    +0.103 C 
ATOM      3  N   UNL     1      -2.168   2.463   7.569  0.00  0.00    -0.347 N 
ATOM      4  C   UNL     1      -1.099   1.940   6.906  0.00  0.00    +0.049 A 
ATOM      5  C   UNL     1      -0.222   0.905   7.222  0.00  0.00    +0.027 A 
ATOM      6  C   UNL     1       0.776   0.620   6.308  0.00  0.00    +0.006 A 
ATOM      7  C   UNL     1       0.920   1.331   5.128  0.00  0.00    -0.044 A 
ATOM      8  C   UNL     1       0.074   2.355   4.786  0.00  0.00    +0.014 A 
ATOM      9  C   UNL     1      -0.951   2.665   5.686  0.00  0.00    +0.003 A 
ATOM     10  C   UNL     1      -2.004   3.645   5.675  0.00  0.00    -0.020 A 
ATOM     11  C   UNL     1      -2.712   3.458   6.806  0.00  0.00    +0.009 A 
ATOM     12  C   UNL     1      -3.920   4.302   7.143  0.00  0.00    -0.020 C 
ATOM     13  C   UNL     1      -3.599   5.748   6.799  0.00  0.00    -0.009 C 
ATOM     14  C   UNL     1      -2.804   5.974   5.537  0.00  0.00    +0.003 C 
ATOM     15  C   UNL     1      -2.415   4.742   4.733  0.00  0.00    +0.037 C 
ATOM     16  N   UNL     1      -4.101   4.159   8.611  0.00  0.00    +0.392 N 
ATOM     17  H   UNL     1      -3.311   4.606   9.091  0.00  0.00    -0.080 HD
ENDROOT
BRANCH   7  18
ATOM     18  C   UNL     1       2.038   0.963   4.186  0.00  0.00    +0.019 C 
ATOM     19  C   UNL     1       3.382   1.135   4.898  0.00  0.00    +0.008 C 
ATOM     20  C   UNL     1       4.517   0.762   3.943  0.00  0.00    +0.001 C 
ATOM     21  C   UNL     1       4.355  -0.695   3.503  0.00  0.00    +0.000 C 
ATOM     22  C   UNL     1       3.012  -0.866   2.791  0.00  0.00    +0.001 C 
ATOM     23  C   UNL     1       1.877  -0.493   3.746  0.00  0.00    +0.008 C 
ENDBRANCH   7  18
BRANCH  16  24
ATOM     24  C   UNL     1      -5.355   4.818   9.033  0.00  0.00    +0.021 C 
BRANCH  24  26
ATOM     25  N   UNL     1      -7.779   4.665   8.562  0.00  0.00    -0.209 N 
ATOM     26  C   UNL     1      -6.543   4.159   8.380  0.00  0.00    +0.216 C 
ATOM     27  O   UNL     1      -6.387   3.173   7.691  0.00  0.00    -0.276 OA
ATOM     28  H   UNL     1      -7.904   5.454   9.113  0.00  0.00    +0.177 HD
BRANCH  25  30
ATOM     29  C   UNL     1     -10.056   4.604   8.034  0.00  0.00    +0.141 C 
ATOM     30  N   UNL     1      -8.883   4.053   7.955  0.00  0.00    -0.188 NA
BRANCH  29  35
ATOM     31  C   UNL     1      -9.270   8.157   8.952  0.00  0.00    +0.001 A 
ATOM     32  C   UNL     1     -10.450   8.545   9.562  0.00  0.00    +0.003 A 
ATOM     33  C   UNL     1     -11.503   7.656   9.677  0.00  0.00    +0.039 A 
ATOM     34  C   UNL     1     -11.384   6.372   9.179  0.00  0.00    +0.132 A 
ATOM     35  C   UNL     1     -10.193   5.972   8.565  0.00  0.00    +0.030 A 
ATOM     36  C   UNL     1      -9.135   6.878   8.453  0.00  0.00    +0.012 A 
ATOM     37  F   UNL     1     -12.415   5.505   9.287  0.00  0.00    -0.205 F 
ENDBRANCH  29  35
ENDBRANCH  25  30
ENDBRANCH  24  26
ENDBRANCH  16  24
TORSDOF 5
