REMARK  Name = ZINC12819481
REMARK  10 active torsions:
REMARK  status: ('A' for Active; 'I' for Inactive)
REMARK    1  A    between atoms: C_1  and  C_2
REMARK    2  A    between atoms: C_2  and  N_3
REMARK    3  A    between atoms: N_3  and  C_4
REMARK    4  A    between atoms: C_4  and  C_5
REMARK    5  A    between atoms: N_7  and  C_8
REMARK    6  A    between atoms: C_8  and  C_9
REMARK    7  A    between atoms: C_16  and  C_18
REMARK    8  A    between atoms: C_18  and  N_19
REMARK    9  A    between atoms: C_22  and  C_26
REMARK   10  A    between atoms: C_22  and  C_27
REMARK                            x       y       z     vdW  Elec       q    Type
REMARK                         _______ _______ _______ _____ _____    ______ ____
ROOT
ATOM      1  N   UNL     1      -1.372  -0.511   0.012  0.00  0.00    -0.292 N 
ATOM      2  C   UNL     1      -1.993  -0.751   1.184  0.00  0.00    +0.234 C 
ATOM      3  O   UNL     1      -3.131  -1.171   1.193  0.00  0.00    -0.274 OA
ENDROOT
BRANCH   1   5
ATOM      4  C   UNL     1      -0.019   1.526   0.010  0.00  0.00    +0.024 C 
ATOM      5  C   UNL     1       0.002  -0.004   0.002  0.00  0.00    +0.105 C 
ENDBRANCH   1   5
BRANCH   1   6
ATOM      6  C   UNL     1      -2.072  -0.758  -1.251  0.00  0.00    +0.203 C 
BRANCH   6   7
ATOM      7  C   UNL     1      -1.820  -2.175  -1.696  0.00  0.00    +0.231 C 
ATOM      8  O   UNL     1      -1.125  -2.908  -1.024  0.00  0.00    -0.274 OA
ATOM      9  N   UNL     1      -2.367  -2.630  -2.841  0.00  0.00    -0.310 N 
ATOM     10  H   UNL     1      -2.923  -2.044  -3.378  0.00  0.00    +0.149 HD
BRANCH   9  11
ATOM     11  C   UNL     1      -2.122  -4.008  -3.274  0.00  0.00    +0.139 C 
BRANCH  11  12
ATOM     12  C   UNL     1      -2.841  -4.261  -4.573  0.00  0.00    -0.030 A 
ATOM     13  C   UNL     1      -4.140  -4.735  -4.563  0.00  0.00    +0.006 A 
ATOM     14  C   UNL     1      -4.801  -4.968  -5.755  0.00  0.00    +0.020 A 
ATOM     15  C   UNL     1      -4.161  -4.727  -6.958  0.00  0.00    +0.041 A 
ATOM     16  C   UNL     1      -2.861  -4.254  -6.968  0.00  0.00    +0.020 A 
ATOM     17  C   UNL     1      -2.204  -4.016  -5.775  0.00  0.00    +0.006 A 
ATOM     18 CL   UNL     1      -4.990  -5.020  -8.455  0.00  0.00    -0.084 Cl
ENDBRANCH  11  12
ENDBRANCH   9  11
ENDBRANCH   6   7
ENDBRANCH   1   6
BRANCH   2  19
ATOM     19  C   UNL     1      -1.274  -0.497   2.484  0.00  0.00    +0.213 C 
BRANCH  19  20
ATOM     20  N   UNL     1      -2.156  -0.832   3.604  0.00  0.00    -0.215 N 
ATOM     21  C   UNL     1      -3.002   0.039   4.189  0.00  0.00    +0.251 C 
ATOM     22  O   UNL     1      -3.170   1.204   3.898  0.00  0.00    -0.272 OA
ATOM     23  C   UNL     1      -3.701  -0.741   5.285  0.00  0.00    +0.135 C 
ATOM     24  N   UNL     1      -3.112  -2.087   5.181  0.00  0.00    -0.281 N 
ATOM     25  C   UNL     1      -2.227  -2.043   4.169  0.00  0.00    +0.310 C 
ATOM     26  O   UNL     1      -1.562  -2.995   3.811  0.00  0.00    -0.252 OA
ATOM     27  C   UNL     1      -5.209  -0.792   5.032  0.00  0.00    +0.047 C 
ATOM     28  H   UNL     1      -3.325  -2.857   5.732  0.00  0.00    +0.152 HD
BRANCH  23  29
ATOM     29  C   UNL     1      -3.408  -0.137   6.634  0.00  0.00    -0.016 A 
ATOM     30  C   UNL     1      -3.173   1.220   6.748  0.00  0.00    +0.006 A 
ATOM     31  C   UNL     1      -2.904   1.774   7.986  0.00  0.00    +0.000 A 
ATOM     32  C   UNL     1      -2.871   0.970   9.110  0.00  0.00    +0.000 A 
ATOM     33  C   UNL     1      -3.107  -0.387   8.997  0.00  0.00    +0.000 A 
ATOM     34  C   UNL     1      -3.380  -0.940   7.759  0.00  0.00    +0.006 A 
ENDBRANCH  23  29
ENDBRANCH  19  20
ENDBRANCH   2  19
TORSDOF 8
