REMARK  Name = ZINC21246965
REMARK  10 active torsions:
REMARK  status: ('A' for Active; 'I' for Inactive)
REMARK    1  A    between atoms: C_1  and  C_2
REMARK    2  A    between atoms: C_2  and  O_3
REMARK    3  A    between atoms: O_3  and  C_4
REMARK    4  A    between atoms: C_6  and  C_12
REMARK    5  A    between atoms: C_9  and  O_10
REMARK    6  A    between atoms: C_17  and  C_22
REMARK    7  A    between atoms: C_25  and  O_28
REMARK    8  A    between atoms: O_28  and  C_29
REMARK    9  A    between atoms: C_29  and  C_30
REMARK   10  A    between atoms: C_29  and  C_31
REMARK                            x       y       z     vdW  Elec       q    Type
REMARK                         _______ _______ _______ _____ _____    ______ ____
ROOT
ATOM      1  C   UNL     1      -1.278   0.134   0.207  0.00  0.00    +0.136 C 
ATOM      2  C   UNL     1      -1.067   1.628   0.146  0.00  0.00    +0.036 C 
ATOM      3  C   UNL     1       0.074   2.250  -0.195  0.00  0.00    +0.017 C 
ATOM      4  C   UNL     1       0.158   3.767  -0.176  0.00  0.00    +0.059 C 
ATOM      5  C   UNL     1      -1.195   4.367  -0.556  0.00  0.00    +0.032 C 
ATOM      6  C   UNL     1      -2.226   3.881   0.470  0.00  0.00    +0.088 C 
ATOM      7  C   UNL     1      -2.216   2.382   0.483  0.00  0.00    +0.163 C 
ATOM      8  O   UNL     1      -3.231   1.792   0.797  0.00  0.00    -0.292 OA
ATOM      9  N   UNL     1       1.222   1.623  -0.558  0.00  0.00    -0.316 N 
ATOM     10  C   UNL     1       1.789   0.551   0.121  0.00  0.00    +0.052 A 
ATOM     11  C   UNL     1       3.044   0.623   0.699  0.00  0.00    +0.025 A 
ATOM     12  C   UNL     1       3.596  -0.513   1.267  0.00  0.00    +0.002 A 
ATOM     13  C   UNL     1       2.899  -1.707   1.256  0.00  0.00    +0.002 A 
ATOM     14  C   UNL     1       1.635  -1.776   0.698  0.00  0.00    +0.025 A 
ATOM     15  C   UNL     1       1.072  -0.637   0.144  0.00  0.00    +0.049 A 
ATOM     16  N   UNL     1      -0.215  -0.646  -0.390  0.00  0.00    -0.331 N 
ATOM     17  H   UNL     1       1.773   1.959  -1.449  0.00  0.00    +0.152 HD
ATOM     18  H   UNL     1      -0.417  -1.260  -1.280  0.00  0.00    +0.147 HD
ENDROOT
BRANCH   1  21
ATOM     19  C   UNL     1      -2.734  -1.169   3.442  0.00  0.00    +0.163 A 
ATOM     20  C   UNL     1      -2.609  -0.791   2.114  0.00  0.00    +0.055 A 
ATOM     21  C   UNL     1      -1.414  -0.270   1.653  0.00  0.00    -0.018 A 
ATOM     22  C   UNL     1      -0.345  -0.114   2.516  0.00  0.00    +0.029 A 
ATOM     23  C   UNL     1      -0.465  -0.484   3.843  0.00  0.00    +0.086 A 
ATOM     24  C   UNL     1      -1.659  -1.012   4.310  0.00  0.00    +0.177 A 
ATOM     25 CL   UNL     1       0.879  -0.287   4.924  0.00  0.00    -0.080 Cl
BRANCH  24  26
ATOM     26  O   UNL     1      -1.779  -1.377   5.615  0.00  0.00    -0.502 OA
ATOM     27  H   UNL     1      -0.928  -1.254   6.301  0.00  0.00    +0.292 HD
ENDBRANCH  24  26
BRANCH  19  28
ATOM     28  O   UNL     1      -3.907  -1.686   3.895  0.00  0.00    -0.489 OA
BRANCH  28  30
ATOM     29  C   UNL     1      -6.197  -2.412   3.636  0.00  0.00    +0.048 C 
ATOM     30  C   UNL     1      -4.968  -1.817   2.946  0.00  0.00    +0.226 C 
ENDBRANCH  28  30
ENDBRANCH  19  28
ENDBRANCH   1  21
BRANCH   5  31
ATOM     31  C   UNL     1      -1.113   5.871  -0.526  0.00  0.00    -0.043 A 
ATOM     32  C   UNL     1      -0.788   6.522   0.650  0.00  0.00    +0.007 A 
ATOM     33  C   UNL     1      -0.707   7.901   0.678  0.00  0.00    +0.046 A 
ATOM     34  C   UNL     1      -0.964   8.633  -0.472  0.00  0.00    +0.121 A 
ATOM     35  C   UNL     1      -1.295   7.979  -1.649  0.00  0.00    +0.046 A 
ATOM     36  C   UNL     1      -1.369   6.599  -1.674  0.00  0.00    +0.007 A 
BRANCH  34  37
ATOM     37  O   UNL     1      -0.889   9.990  -0.445  0.00  0.00    -0.489 OA
BRANCH  37  38
ATOM     38  C   UNL     1      -1.047  10.673  -1.690  0.00  0.00    +0.167 C 
ATOM     39  C   UNL     1      -2.537  10.874  -1.976  0.00  0.00    +0.051 C 
ATOM     40  C   UNL     1      -0.353  12.034  -1.617  0.00  0.00    +0.051 C 
ENDBRANCH  37  38
ENDBRANCH  34  37
ENDBRANCH   5  31
TORSDOF 7
