REMARK  Name = ZINC63908656
REMARK  5 active torsions:
REMARK  status: ('A' for Active; 'I' for Inactive)
REMARK    1  A    between atoms: C_7  and  C_10
REMARK    2  A    between atoms: C_10  and  C_11
REMARK    3  A    between atoms: N_13  and  N_14
REMARK    4  A    between atoms: C_15  and  C_17
REMARK    5  A    between atoms: N_20  and  C_22
REMARK                            x       y       z     vdW  Elec       q    Type
REMARK                         _______ _______ _______ _____ _____    ______ ____
ROOT
ATOM      1  N   UNL     1      -0.567  -5.122  -3.001  0.00  0.00    -0.229 N 
ATOM      2  C   UNL     1      -1.380  -6.168  -3.245  0.00  0.00    +0.281 C 
ATOM      3  O   UNL     1      -1.928  -6.741  -2.323  0.00  0.00    -0.267 OA
ATOM      4  H   UNL     1      -0.131  -4.665  -3.737  0.00  0.00    +0.173 HD
ENDROOT
BRANCH   2   5
ATOM      5  C   UNL     1      -1.606  -6.620  -4.633  0.00  0.00    +0.152 A 
ATOM      6  C   UNL     1      -2.428  -7.689  -5.045  0.00  0.00    +0.006 A 
ATOM      7  C   UNL     1      -2.323  -7.739  -6.392  0.00  0.00    +0.049 A 
ATOM      8  N   UNL     1      -1.489  -6.738  -6.764  0.00  0.00    -0.236 N 
ATOM      9  N   UNL     1      -1.081  -6.096  -5.726  0.00  0.00    -0.161 NA
ATOM     10  C   UNL     1      -3.004  -8.743  -7.285  0.00  0.00    +0.056 C 
ATOM     11  C   UNL     1      -4.479  -8.851  -6.886  0.00  0.00    +0.006 C 
ATOM     12  C   UNL     1      -4.645  -9.912  -5.801  0.00  0.00    +0.001 C 
ATOM     13  C   UNL     1      -3.424  -9.946  -4.886  0.00  0.00    +0.005 C 
ATOM     14  C   UNL     1      -3.267  -8.593  -4.184  0.00  0.00    +0.039 C 
BRANCH   8  15
ATOM     15  C   UNL     1      -1.127  -6.442  -8.086  0.00  0.00    +0.066 A 
ATOM     16  C   UNL     1      -0.978  -7.466  -9.012  0.00  0.00    +0.030 A 
ATOM     17  C   UNL     1      -0.622  -7.172 -10.313  0.00  0.00    +0.040 A 
ATOM     18  C   UNL     1      -0.413  -5.857 -10.695  0.00  0.00    +0.124 A 
ATOM     19  C   UNL     1      -0.562  -4.835  -9.773  0.00  0.00    +0.040 A 
ATOM     20  C   UNL     1      -0.924  -5.124  -8.473  0.00  0.00    +0.030 A 
ATOM     21  F   UNL     1      -0.065  -5.572 -11.969  0.00  0.00    -0.205 F 
ENDBRANCH   8  15
ENDBRANCH   2   5
BRANCH   1  24
ATOM     22  C   UNL     1       0.460  -3.646  -1.440  0.00  0.00    +0.233 C 
ATOM     23  O   UNL     1       1.006  -3.075  -2.360  0.00  0.00    -0.274 OA
ATOM     24  N   UNL     1      -0.353  -4.693  -1.684  0.00  0.00    -0.234 N 
ATOM     25  H   UNL     1      -0.790  -5.150  -0.948  0.00  0.00    +0.173 HD
BRANCH  22  26
ATOM     26  C   UNL     1       0.691  -3.186  -0.024  0.00  0.00    +0.130 C 
BRANCH  26  33
ATOM     27  C   UNL     1      -0.016   1.348   0.009  0.00  0.00    +0.001 A 
ATOM     28  C   UNL     1       1.166   2.101   0.002  0.00  0.00    +0.002 A 
ATOM     29  C   UNL     1       2.391   1.535  -0.013  0.00  0.00    +0.026 A 
ATOM     30  C   UNL     1       2.529   0.120  -0.022  0.00  0.00    +0.043 A 
ATOM     31  N   UNL     1       3.587  -0.654  -0.037  0.00  0.00    -0.380 N 
ATOM     32  C   UNL     1       3.143  -2.053  -0.041  0.00  0.00    +0.145 C 
ATOM     33  C   UNL     1       1.631  -2.008  -0.025  0.00  0.00    -0.033 C 
ATOM     34  C   UNL     1       1.295  -0.698  -0.014  0.00  0.00    -0.001 A 
ATOM     35  C   UNL     1       0.002  -0.004   0.002  0.00  0.00    +0.010 A 
ATOM     36  H   UNL     1       4.509  -0.353  -0.045  0.00  0.00    +0.160 HD
ENDBRANCH  26  33
ENDBRANCH  22  26
ENDBRANCH   1  24
TORSDOF 5
