REMARK  Name = ZINC21644204
REMARK  9 active torsions:
REMARK  status: ('A' for Active; 'I' for Inactive)
REMARK    1  A    between atoms: C_1  and  C_2
REMARK    2  A    between atoms: C_2  and  C_4
REMARK    3  A    between atoms: C_2  and  S_15
REMARK    4  A    between atoms: N_6  and  C_7
REMARK    5  A    between atoms: C_7  and  C_8
REMARK    6  A    between atoms: S_15  and  C_16
REMARK    7  A    between atoms: C_26  and  C_31
REMARK    8  A    between atoms: C_31  and  C_32
REMARK    9  A    between atoms: C_31  and  C_33
REMARK                            x       y       z     vdW  Elec       q    Type
REMARK                         _______ _______ _______ _____ _____    ______ ____
ROOT
ATOM      1  C   UNL     1      -0.189  -0.057  -2.809  0.00  0.00    +0.170 C 
ATOM      2  N   UNL     1      -1.277   0.604  -2.515  0.00  0.00    -0.225 NA
ATOM      3  C   UNL     1      -2.131   1.049  -3.470  0.00  0.00    +0.077 A 
ATOM      4  C   UNL     1      -3.290   1.755  -3.135  0.00  0.00    +0.028 A 
ATOM      5  C   UNL     1      -4.135   2.192  -4.131  0.00  0.00    +0.002 A 
ATOM      6  C   UNL     1      -3.850   1.940  -5.466  0.00  0.00    +0.001 A 
ATOM      7  C   UNL     1      -2.712   1.246  -5.820  0.00  0.00    +0.013 A 
ATOM      8  C   UNL     1      -1.847   0.796  -4.828  0.00  0.00    +0.041 A 
ATOM      9  C   UNL     1      -0.615   0.048  -5.159  0.00  0.00    +0.139 C 
ATOM     10  N   UNL     1      -0.129  -0.311  -6.314  0.00  0.00    -0.255 NA
ATOM     11  C   UNL     1       1.125  -1.036  -6.069  0.00  0.00    +0.196 C 
ATOM     12  C   UNL     1       1.266  -1.026  -4.562  0.00  0.00    +0.252 C 
ATOM     13  O   UNL     1       2.160  -1.514  -3.906  0.00  0.00    -0.272 OA
ATOM     14  N   UNL     1       0.186  -0.353  -4.103  0.00  0.00    -0.200 N 
ENDROOT
BRANCH  11  15
ATOM     15  C   UNL     1       2.301  -0.311  -6.726  0.00  0.00    +0.016 C 
ATOM     16  C   UNL     1       2.083  -0.252  -8.239  0.00  0.00    +0.010 C 
ATOM     17  C   UNL     1       2.399   1.111  -6.169  0.00  0.00    +0.010 C 
ENDBRANCH  11  15
BRANCH   1  18
ATOM     18  S   UNL     1       0.851  -0.589  -1.490  0.00  0.00    -0.077 S 
BRANCH  18  20
ATOM     19  C   UNL     1      -0.019   1.526   0.010  0.00  0.00    +0.029 C 
ATOM     20  C   UNL     1       0.002  -0.004   0.002  0.00  0.00    +0.137 C 
BRANCH  20  21
ATOM     21  C   UNL     1       0.731  -0.503   1.223  0.00  0.00    +0.226 C 
ATOM     22  O   UNL     1       1.911  -0.775   1.156  0.00  0.00    -0.275 OA
ATOM     23  N   UNL     1       0.071  -0.647   2.389  0.00  0.00    -0.310 N 
ATOM     24  H   UNL     1      -0.872  -0.430   2.443  0.00  0.00    +0.149 HD
BRANCH  23  25
ATOM     25  C   UNL     1       0.780  -1.133   3.576  0.00  0.00    +0.139 C 
BRANCH  25  26
ATOM     26  C   UNL     1      -0.176  -1.203   4.739  0.00  0.00    -0.030 A 
ATOM     27  C   UNL     1      -0.342  -0.106   5.564  0.00  0.00    +0.008 A 
ATOM     28  C   UNL     1      -1.220  -0.169   6.630  0.00  0.00    +0.038 A 
ATOM     29  C   UNL     1      -1.932  -1.331   6.871  0.00  0.00    +0.123 A 
ATOM     30  C   UNL     1      -1.765  -2.429   6.045  0.00  0.00    +0.038 A 
ATOM     31  C   UNL     1      -0.891  -2.362   4.976  0.00  0.00    +0.008 A 
ATOM     32  F   UNL     1      -2.790  -1.394   7.913  0.00  0.00    -0.205 F 
ENDBRANCH  25  26
ENDBRANCH  23  25
ENDBRANCH  20  21
ENDBRANCH  18  20
ENDBRANCH   1  18
TORSDOF 6
