REMARK  Name = ZINC25729541
REMARK  7 active torsions:
REMARK  status: ('A' for Active; 'I' for Inactive)
REMARK    1  A    between atoms: C_1  and  C_2
REMARK    2  A    between atoms: C_8  and  C_10
REMARK    3  A    between atoms: C_10  and  C_12
REMARK    4  A    between atoms: C_10  and  O_13
REMARK    5  A    between atoms: O_13  and  C_14
REMARK    6  A    between atoms: C_14  and  C_16
REMARK    7  A    between atoms: C_22  and  C_24
REMARK                            x       y       z     vdW  Elec       q    Type
REMARK                         _______ _______ _______ _____ _____    ______ ____
ROOT
ATOM      1  C   UNL     1       1.252   3.481  -0.024  0.00  0.00    +0.185 C 
ATOM      2  C   UNL     1       0.595   3.916  -1.351  0.00  0.00    +0.035 C 
ATOM      3  C   UNL     1       1.504   5.081  -1.823  0.00  0.00    +0.021 C 
ATOM      4  C   UNL     1       2.899   4.598  -1.352  0.00  0.00    +0.109 C 
ATOM      5  N   UNL     1       2.651   3.931  -0.061  0.00  0.00    -0.288 N 
ATOM      6  C   UNL     1       3.557   3.763   0.923  0.00  0.00    +0.222 C 
ATOM      7  O   UNL     1       3.221   3.269   1.978  0.00  0.00    -0.275 OA
ENDROOT
BRANCH   6   8
ATOM      8  C   UNL     1       4.987   4.188   0.711  0.00  0.00    +0.048 C 
ATOM      9  C   UNL     1       5.498   3.616  -0.613  0.00  0.00    +0.019 C 
ATOM     10  C   UNL     1       6.950   4.048  -0.828  0.00  0.00    -0.009 C 
ATOM     11  C   UNL     1       7.814   3.524   0.322  0.00  0.00    +0.007 C 
ATOM     12  C   UNL     1       7.302   4.096   1.646  0.00  0.00    -0.009 C 
ATOM     13  C   UNL     1       5.850   3.664   1.861  0.00  0.00    +0.019 C 
ATOM     14  C   UNL     1       7.379   5.624   1.605  0.00  0.00    +0.007 C 
ATOM     15  C   UNL     1       6.516   6.147   0.456  0.00  0.00    -0.009 C 
ATOM     16  C   UNL     1       7.027   5.576  -0.868  0.00  0.00    +0.007 C 
ATOM     17  C   UNL     1       5.064   5.716   0.670  0.00  0.00    +0.019 C 
ENDBRANCH   6   8
BRANCH   1  18
ATOM     18  C   UNL     1       1.199   1.981   0.107  0.00  0.00    +0.329 C 
ATOM     19  O   UNL     1       2.224   1.345   0.177  0.00  0.00    -0.249 OA
BRANCH  18  20
ATOM     20  O   UNL     1       0.014   1.351   0.145  0.00  0.00    -0.451 OA
BRANCH  20  21
ATOM     21  C   UNL     1       0.040  -0.095   0.272  0.00  0.00    +0.259 C 
ATOM     22  C   UNL     1       0.028  -0.477   1.753  0.00  0.00    +0.062 C 
BRANCH  21  30
ATOM     23  C   UNL     1      -5.627  -2.617  -2.923  0.00  0.00    +0.089 C 
ATOM     24  C   UNL     1      -4.351  -2.812  -2.145  0.00  0.00    +0.136 A 
ATOM     25  C   UNL     1      -3.512  -1.844  -1.712  0.00  0.00    +0.091 A 
ATOM     26  C   UNL     1      -2.480  -2.557  -1.046  0.00  0.00    +0.168 A 
ATOM     27  N   UNL     1      -2.795  -3.822  -1.136  0.00  0.00    -0.063 NA
ATOM     28  O   UNL     1      -3.829  -3.980  -1.742  0.00  0.00    -0.358 OA
ATOM     29  N   UNL     1      -1.359  -2.015  -0.417  0.00  0.00    -0.265 N 
ATOM     30  C   UNL     1      -1.171  -0.680  -0.408  0.00  0.00    +0.259 C 
ATOM     31  O   UNL     1      -1.976   0.049  -0.946  0.00  0.00    -0.271 OA
ATOM     32  H   UNL     1      -0.629  -2.677   0.071  0.00  0.00    +0.156 HD
ENDBRANCH  21  30
ENDBRANCH  20  21
ENDBRANCH  18  20
ENDBRANCH   1  18
TORSDOF 5
