REMARK  Name = ZINC10215430
REMARK  4 active torsions:
REMARK  status: ('A' for Active; 'I' for Inactive)
REMARK    1  A    between atoms: C_10  and  C_22
REMARK    2  A    between atoms: C_13  and  C_16
REMARK    3  A    between atoms: C_24  and  O_29
REMARK    4  A    between atoms: C_27  and  O_28
REMARK                            x       y       z     vdW  Elec       q    Type
REMARK                         _______ _______ _______ _____ _____    ______ ____
ROOT
ATOM      1  C   UNL     1      -0.017   1.377   0.010  0.00  0.00    +0.001 A 
ATOM      2  C   UNL     1       1.175   2.079   0.002  0.00  0.00    +0.004 A 
ATOM      3  C   UNL     1       2.376   1.403  -0.004  0.00  0.00    +0.046 A 
ATOM      4  C   UNL     1       2.405   0.008  -0.006  0.00  0.00    +0.129 A 
ATOM      5  C   UNL     1       1.204  -0.686  -0.015  0.00  0.00    +0.017 A 
ATOM      6  C   UNL     1       0.002  -0.004   0.002  0.00  0.00    +0.009 A 
ATOM      7  C   UNL     1       1.196  -2.192  -0.069  0.00  0.00    +0.136 C 
ATOM      8  C   UNL     1       0.305  -2.799   1.024  0.00  0.00    +0.086 C 
ATOM      9  C   UNL     1       1.233  -3.745   1.758  0.00  0.00    +0.072 C 
ATOM     10  N   UNL     1       2.437  -3.604   1.308  0.00  0.00    -0.184 NA
ATOM     11  N   UNL     1       2.558  -2.632   0.306  0.00  0.00    -0.205 N 
ATOM     12  C   UNL     1       3.743  -1.988  -0.274  0.00  0.00    +0.312 C 
ATOM     13  O   UNL     1       3.623  -0.591   0.016  0.00  0.00    -0.465 OA
ENDROOT
BRANCH  12  14
ATOM     14  C   UNL     1       4.995  -2.544   0.355  0.00  0.00    +0.031 A 
ATOM     15  C   UNL     1       6.178  -2.598  -0.365  0.00  0.00    +0.012 A 
ATOM     16  C   UNL     1       7.304  -3.117   0.254  0.00  0.00    +0.020 A 
ATOM     17  C   UNL     1       7.211  -3.561   1.560  0.00  0.00    +0.111 A 
ATOM     18  N   UNL     1       6.068  -3.494   2.214  0.00  0.00    -0.263 NA
ATOM     19  C   UNL     1       4.978  -3.001   1.659  0.00  0.00    +0.119 A 
ENDBRANCH  12  14
BRANCH   9  20
ATOM     20  C   UNL     1       0.826  -4.683   2.820  0.00  0.00    +0.043 A 
ATOM     21  C   UNL     1      -0.510  -4.751   3.221  0.00  0.00    +0.058 A 
ATOM     22  C   UNL     1      -0.885  -5.633   4.219  0.00  0.00    +0.118 A 
ATOM     23  C   UNL     1       0.063  -6.449   4.822  0.00  0.00    +0.049 A 
ATOM     24  C   UNL     1       1.388  -6.386   4.431  0.00  0.00    +0.049 A 
ATOM     25  C   UNL     1       1.776  -5.513   3.429  0.00  0.00    +0.126 A 
BRANCH  25  26
ATOM     26  O   UNL     1       3.078  -5.457   3.041  0.00  0.00    -0.506 OA
ATOM     27  H   UNL     1       3.609  -4.818   3.536  0.00  0.00    +0.292 HD
ENDBRANCH  25  26
BRANCH  22  28
ATOM     28  O   UNL     1      -2.186  -5.702   4.611  0.00  0.00    -0.507 OA
ATOM     29  H   UNL     1      -2.712  -6.345   4.116  0.00  0.00    +0.292 HD
ENDBRANCH  22  28
ENDBRANCH   9  20
TORSDOF 4
