REMARK  Name = ZINC34698220
REMARK  5 active torsions:
REMARK  status: ('A' for Active; 'I' for Inactive)
REMARK    1  A    between atoms: C_3  and  C_8
REMARK    2  A    between atoms: C_13  and  C_15
REMARK    3  A    between atoms: C_15  and  N_16
REMARK    4  A    between atoms: C_22  and  C_24
REMARK    5  A    between atoms: C_24  and  C_25
REMARK                            x       y       z     vdW  Elec       q    Type
REMARK                         _______ _______ _______ _____ _____    ______ ____
ROOT
ATOM      1  C   UNL     1       3.511   2.165  -0.127  0.00  0.00    +0.039 C 
ATOM      2  C   UNL     1       4.292   1.717   1.128  0.00  0.00    +0.116 C 
ATOM      3  N   UNL     1       5.216   0.668   0.639  0.00  0.00    -0.300 N 
ATOM      4  C   UNL     1       5.682   1.173  -0.674  0.00  0.00    +0.110 C 
ATOM      5  C   UNL     1       4.427   1.808  -1.316  0.00  0.00    -0.001 C 
ATOM      6  C   UNL     1       5.556  -0.484   1.250  0.00  0.00    +0.220 C 
ATOM      7  O   UNL     1       6.333  -1.247   0.716  0.00  0.00    -0.275 OA
ENDROOT
BRANCH   1  10
ATOM      8  C   UNL     1      -0.184   1.430  -0.374  0.00  0.00    +0.003 A 
ATOM      9  C   UNL     1       1.014   2.114  -0.282  0.00  0.00    +0.004 A 
ATOM     10  C   UNL     1       2.207   1.418  -0.227  0.00  0.00    -0.040 A 
ATOM     11  C   UNL     1       2.203   0.036  -0.264  0.00  0.00    +0.042 A 
ATOM     12  C   UNL     1       1.004  -0.650  -0.356  0.00  0.00    +0.124 A 
ATOM     13  C   UNL     1      -0.190   0.048  -0.411  0.00  0.00    +0.038 A 
ATOM     14  F   UNL     1       1.000  -2.001  -0.393  0.00  0.00    -0.205 F 
ENDBRANCH   1  10
BRANCH   5  15
ATOM     15  C   UNL     1       4.806   3.071  -2.093  0.00  0.00    -0.073 C 
BRANCH  15  16
ATOM     16  N   UNL     1       5.602   2.700  -3.271  0.00  0.00    +0.380 N 
ATOM     17  C   UNL     1       6.097   3.916  -3.927  0.00  0.00    -0.079 C 
ATOM     18  C   UNL     1       6.993   3.535  -5.107  0.00  0.00    -0.019 C 
ATOM     19  C   UNL     1       6.184   2.705  -6.109  0.00  0.00    -0.004 C 
ATOM     20  C   UNL     1       5.611   1.478  -5.394  0.00  0.00    -0.019 C 
ATOM     21  C   UNL     1       4.766   1.936  -4.204  0.00  0.00    -0.079 C 
ATOM     22  H   UNL     1       6.386   2.134  -2.982  0.00  0.00    -0.082 HD
ENDBRANCH  15  16
ENDBRANCH   5  15
BRANCH   6  23
ATOM     23  C   UNL     1       4.970  -0.825   2.596  0.00  0.00    +0.138 C 
BRANCH  23  24
ATOM     24  C   UNL     1       5.508  -2.156   3.055  0.00  0.00    -0.001 A 
ATOM     25  C   UNL     1       6.613  -2.421   3.793  0.00  0.00    +0.011 A 
ATOM     26  C   UNL     1       6.915  -3.735   4.099  0.00  0.00    +0.008 A 
ATOM     27  C   UNL     1       6.097  -4.719   3.652  0.00  0.00    +0.045 A 
ATOM     28  S   UNL     1       4.849  -3.792   2.775  0.00  0.00    -0.101 S 
ENDBRANCH  23  24
ENDBRANCH   6  23
TORSDOF 5
