REMARK  Name = ZINC16477927
REMARK  6 active torsions:
REMARK  status: ('A' for Active; 'I' for Inactive)
REMARK    1  A    between atoms: C_4  and  C_7
REMARK    2  A    between atoms: C_8  and  S_24
REMARK    3  A    between atoms: C_9  and  C_17
REMARK    4  A    between atoms: C_11  and  C_15
REMARK    5  A    between atoms: C_12  and  N_14
REMARK    6  A    between atoms: S_24  and  C_27
REMARK                            x       y       z     vdW  Elec       q    Type
REMARK                         _______ _______ _______ _____ _____    ______ ____
ROOT
ATOM      1  C   UNL     1      -4.234   2.280  -1.169  0.00  0.00    +0.159 C 
ATOM      2  C   UNL     1      -2.918   2.139  -1.106  0.00  0.00    +0.126 C 
ATOM      3  C   UNL     1      -2.240   1.671   0.153  0.00  0.00    +0.116 C 
ATOM      4  C   UNL     1      -3.249   1.047   1.079  0.00  0.00    +0.099 C 
ATOM      5  C   UNL     1      -4.577   1.250   0.896  0.00  0.00    +0.199 C 
ATOM      6  O   UNL     1      -5.035   2.012  -0.114  0.00  0.00    -0.439 OA
ENDROOT
BRANCH   3   7
ATOM      7  C   UNL     1      -1.592   2.846   0.839  0.00  0.00    -0.033 A 
ATOM      8  C   UNL     1      -0.225   2.857   1.044  0.00  0.00    +0.007 A 
ATOM      9  C   UNL     1       0.371   3.937   1.669  0.00  0.00    +0.038 A 
ATOM     10  C   UNL     1      -0.402   5.004   2.092  0.00  0.00    +0.123 A 
ATOM     11  C   UNL     1      -1.771   4.989   1.891  0.00  0.00    +0.038 A 
ATOM     12  C   UNL     1      -2.365   3.909   1.266  0.00  0.00    +0.007 A 
ATOM     13  F   UNL     1       0.180   6.060   2.702  0.00  0.00    -0.205 F 
ENDBRANCH   3   7
BRANCH   1  17
ATOM     14  C   UNL     1      -5.990   3.614  -4.802  0.00  0.00    +0.000 A 
ATOM     15  C   UNL     1      -5.513   2.319  -4.702  0.00  0.00    +0.001 A 
ATOM     16  C   UNL     1      -4.941   1.880  -3.525  0.00  0.00    +0.011 A 
ATOM     17  C   UNL     1      -4.845   2.745  -2.435  0.00  0.00    +0.019 A 
ATOM     18  C   UNL     1      -5.332   4.047  -2.540  0.00  0.00    +0.011 A 
ATOM     19  C   UNL     1      -5.897   4.476  -3.724  0.00  0.00    +0.001 A 
ENDBRANCH   1  17
BRANCH   5  20
ATOM     20  N   UNL     1      -5.472   0.667   1.759  0.00  0.00    -0.328 N 
ATOM     21  H   UNL     1      -5.152   0.116   2.490  0.00  0.00    +0.145 HD
ATOM     22  H   UNL     1      -6.424   0.807   1.637  0.00  0.00    +0.145 HD
ENDBRANCH   5  20
BRANCH   2  23
ATOM     23  S   UNL     1      -1.941   2.509  -2.525  0.00  0.00    +0.026 S 
ATOM     24  O   UNL     1      -1.080   1.396  -2.726  0.00  0.00    -0.164 OA
ATOM     25  O   UNL     1      -2.837   2.969  -3.526  0.00  0.00    -0.164 OA
BRANCH  23  26
ATOM     26  C   UNL     1      -0.909   3.875  -2.106  0.00  0.00    +0.093 A 
ATOM     27  C   UNL     1      -1.347   5.166  -2.332  0.00  0.00    +0.027 A 
ATOM     28  C   UNL     1      -0.540   6.238  -1.999  0.00  0.00    +0.002 A 
ATOM     29  C   UNL     1       0.709   6.018  -1.450  0.00  0.00    +0.000 A 
ATOM     30  C   UNL     1       1.149   4.726  -1.229  0.00  0.00    +0.002 A 
ATOM     31  C   UNL     1       0.340   3.654  -1.557  0.00  0.00    +0.027 A 
ENDBRANCH  23  26
ENDBRANCH   2  23
BRANCH   4  32
ATOM     32  C   UNL     1      -2.800   0.228   2.164  0.00  0.00    +0.101 C 
ATOM     33  N   UNL     1      -2.445  -0.422   3.026  0.00  0.00    -0.191 NA
ENDBRANCH   4  32
TORSDOF 6
