REMARK  Name = ZINC64565465
REMARK  10 active torsions:
REMARK  status: ('A' for Active; 'I' for Inactive)
REMARK    1  A    between atoms: C_1  and  C_2
REMARK    2  A    between atoms: N_8  and  C_9
REMARK    3  A    between atoms: C_9  and  C_10
REMARK    4  A    between atoms: C_10  and  C_11
REMARK    5  A    between atoms: C_11  and  N_12
REMARK    6  A    between atoms: C_13  and  C_15
REMARK    7  A    between atoms: C_15  and  C_16
REMARK    8  A    between atoms: C_16  and  C_17
REMARK    9  A    between atoms: C_24  and  C_28
REMARK   10  A    between atoms: N_26  and  C_27
REMARK                            x       y       z     vdW  Elec       q    Type
REMARK                         _______ _______ _______ _____ _____    ______ ____
ROOT
ATOM      1  C   UNL     1       8.886   0.102   6.625  0.00  0.00    +0.216 C 
ATOM      2  O   UNL     1       8.307  -0.591   7.435  0.00  0.00    -0.276 OA
ATOM      3  N   UNL     1      10.145   0.516   6.871  0.00  0.00    -0.297 N 
ATOM      4  C   UNL     1      10.862   1.361   5.905  0.00  0.00    +0.114 C 
ATOM      5  C   UNL     1      11.145   2.729   6.539  0.00  0.00    +0.074 C 
ATOM      6  C   UNL     1      11.668   2.517   7.936  0.00  0.00    +0.046 A 
ATOM      7  C   UNL     1      11.527   1.364   8.637  0.00  0.00    +0.023 A 
ATOM      8  C   UNL     1      12.143   1.586   9.879  0.00  0.00    +0.152 A 
ATOM      9  N   UNL     1      12.609   2.823   9.854  0.00  0.00    -0.166 NA
ATOM     10  N   UNL     1      12.338   3.377   8.722  0.00  0.00    -0.270 N 
ATOM     11  C   UNL     1      12.707   4.744   8.346  0.00  0.00    +0.172 C 
ATOM     12  C   UNL     1      10.836   0.137   8.118  0.00  0.00    +0.147 C 
ENDROOT
BRANCH   8  13
ATOM     13  C   UNL     1      12.250   0.625  10.996  0.00  0.00    +0.267 C 
ATOM     14  O   UNL     1      11.774  -0.488  10.887  0.00  0.00    -0.268 OA
ATOM     15  N   UNL     1      12.874   0.983  12.135  0.00  0.00    -0.296 N 
ATOM     16  C   UNL     1      13.487   2.293  12.402  0.00  0.00    +0.108 C 
ATOM     17  C   UNL     1      14.101   2.232  13.816  0.00  0.00    +0.020 C 
ATOM     18  C   UNL     1      14.295   0.710  14.046  0.00  0.00    +0.020 C 
ATOM     19  C   UNL     1      13.052   0.128  13.323  0.00  0.00    +0.108 C 
ENDBRANCH   8  13
BRANCH   1  20
ATOM     20  C   UNL     1       8.198   0.500   5.345  0.00  0.00    +0.105 C 
BRANCH  20  21
ATOM     21  C   UNL     1       6.789  -0.096   5.316  0.00  0.00    +0.105 C 
BRANCH  21  23
ATOM     22  N   UNL     1       4.842  -0.112   3.791  0.00  0.00    -0.315 N 
ATOM     23  C   UNL     1       6.101   0.302   4.036  0.00  0.00    +0.213 C 
ATOM     24  O   UNL     1       6.680   0.995   3.227  0.00  0.00    -0.276 OA
ATOM     25  H   UNL     1       4.379  -0.666   4.439  0.00  0.00    +0.149 HD
BRANCH  22  26
ATOM     26  C   UNL     1       4.173   0.276   2.547  0.00  0.00    +0.102 C 
BRANCH  26  27
ATOM     27  C   UNL     1       2.764  -0.321   2.518  0.00  0.00    +0.000 C 
BRANCH  27  28
ATOM     28  C   UNL     1       2.066   0.083   1.218  0.00  0.00    -0.077 C 
BRANCH  28  35
ATOM     29  C   UNL     1      -0.019   1.526   0.010  0.00  0.00    -0.013 C 
ATOM     30  C   UNL     1       0.002  -0.004   0.002  0.00  0.00    -0.072 C 
ATOM     31  C   UNL     1      -1.434  -0.533   0.011  0.00  0.00    -0.016 C 
ATOM     32  C   UNL     1      -1.408  -2.064   0.003  0.00  0.00    -0.003 C 
ATOM     33  C   UNL     1      -0.600  -2.558   1.206  0.00  0.00    -0.019 C 
ATOM     34  C   UNL     1       0.805  -1.954   1.152  0.00  0.00    -0.078 C 
ATOM     35  N   UNL     1       0.713  -0.490   1.191  0.00  0.00    +0.381 N 
ATOM     36  H   UNL     1       0.213  -0.206   2.020  0.00  0.00    -0.081 HD
ENDBRANCH  28  35
ENDBRANCH  27  28
ENDBRANCH  26  27
ENDBRANCH  22  26
ENDBRANCH  21  23
ENDBRANCH  20  21
ENDBRANCH   1  20
TORSDOF 8
