REMARK  Name = ZINC65101222
REMARK  9 active torsions:
REMARK  status: ('A' for Active; 'I' for Inactive)
REMARK    1  A    between atoms: C_1  and  C_2
REMARK    2  A    between atoms: C_2  and  C_3
REMARK    3  A    between atoms: C_3  and  N_4
REMARK    4  A    between atoms: C_5  and  C_7
REMARK    5  A    between atoms: N_20  and  C_23
REMARK    6  A    between atoms: C_23  and  C_24
REMARK    7  A    between atoms: N_26  and  C_27
REMARK    8  A    between atoms: C_29  and  C_34
REMARK    9  A    between atoms: C_32  and  C_33
REMARK                            x       y       z     vdW  Elec       q    Type
REMARK                         _______ _______ _______ _____ _____    ______ ____
ROOT
ATOM      1  C   UNL     1      -2.569  -4.185   0.005  0.00  0.00    +0.078 C 
ATOM      2  C   UNL     1      -1.846  -4.685  -1.247  0.00  0.00    +0.032 C 
ATOM      3  C   UNL     1      -1.802  -6.217  -1.229  0.00  0.00    +0.108 C 
ATOM      4  N   UNL     1      -3.172  -6.727  -1.079  0.00  0.00    -0.309 N 
ATOM      5  C   UNL     1      -3.988  -6.240   0.042  0.00  0.00    +0.108 C 
ATOM      6  C   UNL     1      -4.007  -4.708   0.010  0.00  0.00    +0.032 C 
ATOM      7  C   UNL     1      -3.682  -7.644  -1.972  0.00  0.00    +0.164 A 
ATOM      8  N   UNL     1      -3.083  -8.177  -3.015  0.00  0.00    -0.205 NA
ATOM      9  C   UNL     1      -3.691  -9.060  -3.807  0.00  0.00    +0.176 A 
ATOM     10  C   UNL     1      -5.011  -9.355  -3.419  0.00  0.00    +0.124 A 
ATOM     11  S   UNL     1      -5.212  -8.346  -1.977  0.00  0.00    -0.045 S 
ATOM     12  C   UNL     1      -5.791 -10.256  -4.131  0.00  0.00    +0.270 A 
ATOM     13  O   UNL     1      -6.935 -10.505  -3.788  0.00  0.00    -0.266 OA
ATOM     14  N   UNL     1      -5.243 -10.848  -5.221  0.00  0.00    -0.289 N 
ATOM     15  C   UNL     1      -3.967 -10.545  -5.573  0.00  0.00    +0.204 A 
ATOM     16  N   UNL     1      -3.230  -9.706  -4.914  0.00  0.00    -0.217 NA
ENDROOT
BRANCH   1  18
ATOM     17  N   UNL     1      -1.423  -1.993   0.005  0.00  0.00    -0.315 N 
ATOM     18  C   UNL     1      -2.584  -2.678   0.008  0.00  0.00    +0.216 C 
ATOM     19  O   UNL     1      -3.640  -2.082   0.013  0.00  0.00    -0.276 OA
ATOM     20  H   UNL     1      -0.578  -2.469   0.001  0.00  0.00    +0.149 HD
BRANCH  17  21
ATOM     21  C   UNL     1      -1.437  -0.528   0.007  0.00  0.00    +0.104 C 
BRANCH  21  23
ATOM     22  C   UNL     1      -0.015   1.526   0.006  0.00  0.00    +0.005 C 
ATOM     23  C   UNL     1       0.000  -0.004   0.003  0.00  0.00    +0.015 C 
ENDBRANCH  21  23
ENDBRANCH  17  21
ENDBRANCH   1  18
BRANCH  14  24
ATOM     24  C   UNL     1      -6.020 -11.807  -6.011  0.00  0.00    +0.222 C 
BRANCH  24  25
ATOM     25  C   UNL     1      -6.764 -11.076  -7.098  0.00  0.00    +0.237 C 
ATOM     26  O   UNL     1      -6.656  -9.873  -7.203  0.00  0.00    -0.274 OA
ATOM     27  N   UNL     1      -7.549 -11.759  -7.954  0.00  0.00    -0.284 N 
ATOM     28  H   UNL     1      -7.574 -12.729  -7.921  0.00  0.00    +0.155 HD
BRANCH  27  29
ATOM     29  C   UNL     1      -8.329 -11.071  -8.889  0.00  0.00    +0.037 A 
ATOM     30  C   UNL     1      -8.714  -9.759  -8.644  0.00  0.00    +0.027 A 
ATOM     31  C   UNL     1      -9.484  -9.082  -9.569  0.00  0.00    -0.049 A 
ATOM     32  C   UNL     1      -9.873  -9.710 -10.739  0.00  0.00    +0.004 A 
ATOM     33  C   UNL     1      -9.492 -11.015 -10.986  0.00  0.00    +0.005 A 
ATOM     34  C   UNL     1      -8.716 -11.695 -10.068  0.00  0.00    -0.029 A 
ATOM     35  C   UNL     1      -8.295 -13.116 -10.341  0.00  0.00    +0.045 C 
ATOM     36  C   UNL     1      -9.903  -7.659  -9.304  0.00  0.00    +0.044 C 
ENDBRANCH  27  29
ENDBRANCH  24  25
ENDBRANCH  14  24
TORSDOF 6
