REMARK  Name = ZINC08648577
REMARK  12 active torsions:
REMARK  status: ('A' for Active; 'I' for Inactive)
REMARK    1  A    between atoms: C_1  and  C_2
REMARK    2  A    between atoms: C_2  and  C_3
REMARK    3  A    between atoms: C_2  and  C_4
REMARK    4  A    between atoms: C_2  and  C_5
REMARK    5  A    between atoms: C_8  and  C_11
REMARK    6  A    between atoms: N_12  and  N_13
REMARK    7  A    between atoms: C_14  and  C_16
REMARK    8  A    between atoms: C_16  and  S_17
REMARK    9  A    between atoms: S_17  and  C_18
REMARK   10  A    between atoms: C_21  and  C_22
REMARK   11  A    between atoms: C_21  and  C_28
REMARK   12  A    between atoms: C_21  and  N_67
REMARK                            x       y       z     vdW  Elec       q    Type
REMARK                         _______ _______ _______ _____ _____    ______ ____
ROOT
ATOM      1  S   UNL     1      -2.837  -2.829   0.014  0.00  0.00    -0.152 S 
ENDROOT
BRANCH   1   2
ATOM      2  C   UNL     1      -2.640  -4.632   0.002  0.00  0.00    +0.014 C 
ATOM      3  C   UNL     1      -2.544  -5.235  -1.410  0.00  0.00    -0.065 C 
ATOM      4  C   UNL     1      -3.967  -5.401   0.134  0.00  0.00    -0.065 C 
ATOM      5  N   UNL     1      -3.424  -6.192  -0.884  0.00  0.00    +0.388 N 
ATOM      6  H   UNL     1      -2.929  -7.012  -0.515  0.00  0.00    -0.080 HD
BRANCH   5   7
ATOM      7  C   UNL     1      -4.463  -6.646  -1.893  0.00  0.00    -0.007 C 
BRANCH   7   8
ATOM      8  C   UNL     1      -3.850  -7.467  -2.999  0.00  0.00    -0.057 A 
ATOM      9  C   UNL     1      -2.911  -8.436  -2.701  0.00  0.00    +0.002 A 
ATOM     10  C   UNL     1      -2.353  -9.193  -3.714  0.00  0.00    +0.000 A 
ATOM     11  C   UNL     1      -2.727  -8.974  -5.027  0.00  0.00    +0.000 A 
ATOM     12  C   UNL     1      -3.662  -8.000  -5.325  0.00  0.00    +0.000 A 
ATOM     13  C   UNL     1      -4.224  -7.247  -4.311  0.00  0.00    +0.002 A 
ENDBRANCH   7   8
BRANCH   7  14
ATOM     14  C   UNL     1      -5.556  -7.439  -1.225  0.00  0.00    -0.057 A 
ATOM     15  C   UNL     1      -5.237  -8.405  -0.290  0.00  0.00    +0.002 A 
ATOM     16  C   UNL     1      -6.240  -9.129   0.326  0.00  0.00    +0.000 A 
ATOM     17  C   UNL     1      -7.563  -8.893   0.000  0.00  0.00    +0.000 A 
ATOM     18  C   UNL     1      -7.882  -7.930  -0.939  0.00  0.00    +0.000 A 
ATOM     19  C   UNL     1      -6.879  -7.203  -1.552  0.00  0.00    +0.002 A 
ENDBRANCH   7  14
ENDBRANCH   5   7
ENDBRANCH   1   2
BRANCH   1  20
ATOM     20  C   UNL     1      -1.135  -2.201   0.001  0.00  0.00    +0.166 C 
BRANCH  20  22
ATOM     21  N   UNL     1       0.002  -0.004   0.002  0.00  0.00    -0.206 N 
ATOM     22  C   UNL     1      -1.156  -0.694   0.009  0.00  0.00    +0.242 C 
ATOM     23  O   UNL     1      -2.214  -0.102   0.023  0.00  0.00    -0.273 OA
ATOM     24  H   UNL     1       0.849  -0.478  -0.009  0.00  0.00    +0.177 HD
BRANCH  21  26
ATOM     25  C   UNL     1       1.098   2.061   0.003  0.00  0.00    +0.138 C 
ATOM     26  N   UNL     1      -0.017   1.397   0.010  0.00  0.00    -0.188 NA
BRANCH  25  30
ATOM     27  C   UNL     1       1.040   6.305   0.026  0.00  0.00    -0.042 A 
ATOM     28  C   UNL     1       2.250   5.633   0.011  0.00  0.00    +0.005 A 
ATOM     29  C   UNL     1       2.276   4.254   0.003  0.00  0.00    +0.010 A 
ATOM     30  C   UNL     1       1.078   3.535   0.011  0.00  0.00    -0.005 A 
ATOM     31  C   UNL     1      -0.139   4.221   0.020  0.00  0.00    +0.010 A 
ATOM     32  C   UNL     1      -0.150   5.600   0.033  0.00  0.00    +0.005 A 
BRANCH  27  34
ATOM     33  C   UNL     1       1.722   8.337  -1.221  0.00  0.00    +0.015 C 
ATOM     34  C   UNL     1       1.020   7.812   0.033  0.00  0.00    -0.013 C 
ATOM     35  C   UNL     1      -0.429   8.302   0.049  0.00  0.00    +0.015 C 
ATOM     36  C   UNL     1       1.746   8.325   1.278  0.00  0.00    +0.015 C 
ENDBRANCH  27  34
ENDBRANCH  25  30
ENDBRANCH  21  26
ENDBRANCH  20  22
ENDBRANCH   1  20
TORSDOF 9
