REMARK  Name = ZINC49552010
REMARK  6 active torsions:
REMARK  status: ('A' for Active; 'I' for Inactive)
REMARK    1  A    between atoms: C_1  and  N_2
REMARK    2  A    between atoms: N_2  and  C_3
REMARK    3  A    between atoms: N_2  and  C_11
REMARK    4  A    between atoms: C_3  and  C_4
REMARK    5  A    between atoms: C_11  and  C_12
REMARK    6  A    between atoms: C_17  and  C_22
REMARK                            x       y       z     vdW  Elec       q    Type
REMARK                         _______ _______ _______ _____ _____    ______ ____
ROOT
ATOM      1  C   UNL     1      -1.060   0.863  -1.810  0.00  0.00    +0.037 A 
ATOM      2  C   UNL     1      -0.653   1.770  -2.765  0.00  0.00    +0.093 A 
ATOM      3  C   UNL     1      -1.234   1.747  -4.034  0.00  0.00    +0.259 A 
ATOM      4  O   UNL     1      -0.877   2.547  -4.884  0.00  0.00    -0.267 OA
ATOM      5  N   UNL     1      -2.201   0.827  -4.324  0.00  0.00    -0.256 N 
ATOM      6  C   UNL     1      -2.865   0.680  -5.526  0.00  0.00    +0.066 A 
ATOM      7  C   UNL     1      -3.803  -0.275  -5.678  0.00  0.00    +0.075 A 
ATOM      8  S   UNL     1      -3.801  -1.050  -4.069  0.00  0.00    -0.059 S 
ATOM      9  C   UNL     1      -2.546  -0.036  -3.318  0.00  0.00    +0.159 A 
ATOM     10  N   UNL     1      -2.001  -0.023  -2.127  0.00  0.00    -0.337 N 
ATOM     11  H   UNL     1      -2.292  -0.668  -1.463  0.00  0.00    +0.168 HD
ENDROOT
BRANCH   6  12
ATOM     12  C   UNL     1      -2.543   1.579  -6.656  0.00  0.00    -0.001 A 
ATOM     13  C   UNL     1      -1.244   1.629  -7.163  0.00  0.00    +0.010 A 
ATOM     14  C   UNL     1      -0.950   2.470  -8.217  0.00  0.00    +0.001 A 
ATOM     15  C   UNL     1      -1.941   3.261  -8.771  0.00  0.00    +0.000 A 
ATOM     16  C   UNL     1      -3.231   3.216  -8.273  0.00  0.00    +0.001 A 
ATOM     17  C   UNL     1      -3.539   2.375  -7.223  0.00  0.00    +0.010 A 
ENDBRANCH   6  12
BRANCH   1  18
ATOM     18  C   UNL     1      -0.446   0.870  -0.434  0.00  0.00    +0.137 C 
BRANCH  18  20
ATOM     19  C   UNL     1      -1.931   2.605   0.372  0.00  0.00    +0.105 C 
ATOM     20  N   UNL     1      -1.471   1.222   0.558  0.00  0.00    -0.296 NA
BRANCH  20  21
ATOM     21  C   UNL     1      -0.976   1.010   1.924  0.00  0.00    +0.119 C 
BRANCH  21  22
ATOM     22  C   UNL     1      -2.118   1.142   2.898  0.00  0.00    -0.033 A 
ATOM     23  C   UNL     1      -2.424   2.376   3.442  0.00  0.00    +0.006 A 
ATOM     24  C   UNL     1      -3.471   2.498   4.336  0.00  0.00    +0.020 A 
ATOM     25  C   UNL     1      -4.214   1.385   4.686  0.00  0.00    +0.041 A 
ATOM     26  C   UNL     1      -3.908   0.150   4.142  0.00  0.00    +0.020 A 
ATOM     27  C   UNL     1      -2.864   0.030   3.244  0.00  0.00    +0.006 A 
ATOM     28 CL   UNL     1      -5.529   1.537   5.809  0.00  0.00    -0.084 Cl
ENDBRANCH  21  22
ENDBRANCH  20  21
ENDBRANCH  18  20
ENDBRANCH   1  18
TORSDOF 5
