REMARK  Name = ZINC25533840
REMARK  15 active torsions:
REMARK  status: ('A' for Active; 'I' for Inactive)
REMARK    1  A    between atoms: C_1  and  C_2
REMARK    2  A    between atoms: C_2  and  C_3
REMARK    3  A    between atoms: C_3  and  C_4
REMARK    4  A    between atoms: C_4  and  N_5
REMARK    5  A    between atoms: C_6  and  N_34
REMARK    6  A    between atoms: C_7  and  N_14
REMARK    7  A    between atoms: N_14  and  C_15
REMARK    8  A    between atoms: C_15  and  C_16
REMARK    9  A    between atoms: C_17  and  C_19
REMARK   10  A    between atoms: C_19  and  N_20
REMARK   11  A    between atoms: N_20  and  C_21
REMARK   12  A    between atoms: N_20  and  C_22
REMARK   13  A    between atoms: C_22  and  C_23
REMARK   14  A    between atoms: C_28  and  O_29
REMARK   15  A    between atoms: O_29  and  C_30
REMARK                            x       y       z     vdW  Elec       q    Type
REMARK                         _______ _______ _______ _____ _____    ______ ____
ROOT
ATOM      1  N   UNL     1       1.096   1.819  -0.054  0.00  0.00    -0.266 N 
ATOM      2  C   UNL     1      -0.022   1.090  -0.253  0.00  0.00    +0.203 C 
ATOM      3  O   UNL     1       0.059  -0.102  -0.462  0.00  0.00    -0.277 OA
ENDROOT
BRANCH   1   6
ATOM      4  N   UNL     1       3.863  -0.336   1.044  0.00  0.00    -0.280 N 
ATOM      5  C   UNL     1       2.629   0.272   1.010  0.00  0.00    +0.127 A 
ATOM      6  C   UNL     1       2.353   1.179   0.008  0.00  0.00    +0.140 A 
ATOM      7  C   UNL     1       3.343   1.452  -0.954  0.00  0.00    +0.277 A 
ATOM      8  O   UNL     1       3.123   2.247  -1.853  0.00  0.00    -0.266 OA
ATOM      9  N   UNL     1       4.537   0.834  -0.872  0.00  0.00    -0.273 N 
ATOM     10  H   UNL     1       5.320   1.049  -1.615  0.00  0.00    +0.173 HD
ATOM     11  C   UNL     1       4.789  -0.048   0.111  0.00  0.00    +0.331 A 
ATOM     12  O   UNL     1       5.874  -0.596   0.159  0.00  0.00    -0.246 OA
BRANCH   5  13
ATOM     13  N   UNL     1       1.683  -0.022   1.963  0.00  0.00    -0.343 N 
ATOM     14  H   UNL     1       0.699   0.468   1.929  0.00  0.00    +0.144 HD
ATOM     15  H   UNL     1       1.911  -0.746   2.759  0.00  0.00    +0.144 HD
ENDBRANCH   5  13
BRANCH   4  16
ATOM     16  C   UNL     1       4.170  -1.302   2.101  0.00  0.00    +0.128 C 
BRANCH  16  17
ATOM     17  C   UNL     1       3.774  -2.706   1.640  0.00  0.00    +0.021 C 
BRANCH  17  19
ATOM     18  C   UNL     1       3.699  -5.119   2.284  0.00  0.00    +0.004 C 
ATOM     19  C   UNL     1       4.095  -3.715   2.745  0.00  0.00    -0.002 C 
ENDBRANCH  17  19
ENDBRANCH  16  17
ENDBRANCH   4  16
ENDBRANCH   1   6
BRANCH   1  20
ATOM     20  C   UNL     1       1.006   3.273   0.098  0.00  0.00    +0.110 C 
ATOM     21  C   UNL     1       0.882   3.624   1.581  0.00  0.00    +0.025 C 
ENDBRANCH   1  20
BRANCH   2  22
ATOM     22  C   UNL     1      -1.372   1.759  -0.223  0.00  0.00    +0.019 C 
BRANCH  22  23
ATOM     23  N   UNL     1      -2.420   0.760  -0.471  0.00  0.00    +0.386 N 
ATOM     24  C   UNL     1      -2.488  -0.216   0.625  0.00  0.00    -0.095 C 
ATOM     25  H   UNL     1      -2.157   0.217  -1.391  0.00  0.00    -0.081 HD
BRANCH  23  26
ATOM     26  C   UNL     1      -3.722   1.404  -0.684  0.00  0.00    -0.039 C 
BRANCH  26  27
ATOM     27  C   UNL     1      -4.715   0.382  -1.176  0.00  0.00    -0.022 A 
ATOM     28  C   UNL     1      -5.019   0.304  -2.521  0.00  0.00    +0.005 A 
ATOM     29  C   UNL     1      -5.926  -0.636  -2.973  0.00  0.00    +0.000 A 
ATOM     30  C   UNL     1      -6.537  -1.496  -2.078  0.00  0.00    +0.004 A 
ATOM     31  C   UNL     1      -6.240  -1.419  -0.732  0.00  0.00    +0.046 A 
ATOM     32  C   UNL     1      -5.327  -0.479  -0.277  0.00  0.00    +0.131 A 
BRANCH  32  33
ATOM     33  O   UNL     1      -5.033  -0.402   1.048  0.00  0.00    -0.406 OA
BRANCH  33  34
ATOM     34  C   UNL     1      -5.701  -1.320   1.916  0.00  0.00    +0.575 C 
ATOM     35  F   UNL     1      -5.389  -2.630   1.538  0.00  0.00    -0.133 F 
ATOM     36  F   UNL     1      -5.284  -1.103   3.234  0.00  0.00    -0.133 F 
ATOM     37  F   UNL     1      -7.083  -1.125   1.825  0.00  0.00    -0.133 F 
ENDBRANCH  33  34
ENDBRANCH  32  33
ENDBRANCH  26  27
ENDBRANCH  23  26
ENDBRANCH  22  23
ENDBRANCH   2  22
TORSDOF 12
