REMARK  Name = ZINC65527419
REMARK  7 active torsions:
REMARK  status: ('A' for Active; 'I' for Inactive)
REMARK    1  A    between atoms: C_1  and  C_2
REMARK    2  A    between atoms: C_2  and  C_4
REMARK    3  A    between atoms: C_2  and  N_16
REMARK    4  A    between atoms: N_7  and  C_9
REMARK    5  A    between atoms: C_25  and  C_27
REMARK    6  A    between atoms: C_27  and  C_28
REMARK    7  A    between atoms: C_28  and  N_29
REMARK                            x       y       z     vdW  Elec       q    Type
REMARK                         _______ _______ _______ _____ _____    ______ ____
ROOT
ATOM      1  N   UNL     1       0.688  -0.476  -1.203  0.00  0.00    -0.322 N 
ATOM      2  C   UNL     1      -0.009  -0.611  -2.385  0.00  0.00    +0.130 A 
ATOM      3  C   UNL     1       0.633  -1.072  -3.560  0.00  0.00    +0.040 A 
ATOM      4  C   UNL     1       1.990  -1.410  -3.583  0.00  0.00    +0.013 A 
ATOM      5  C   UNL     1       2.554  -1.849  -4.744  0.00  0.00    +0.001 A 
ATOM      6  C   UNL     1       1.798  -1.963  -5.907  0.00  0.00    +0.002 A 
ATOM      7  C   UNL     1       0.473  -1.641  -5.919  0.00  0.00    +0.028 A 
ATOM      8  C   UNL     1      -0.138  -1.188  -4.742  0.00  0.00    +0.076 A 
ATOM      9  N   UNL     1      -1.438  -0.859  -4.698  0.00  0.00    -0.232 NA
ATOM     10  C   UNL     1      -1.980  -0.438  -3.581  0.00  0.00    +0.130 A 
ATOM     11  N   UNL     1      -1.301  -0.318  -2.451  0.00  0.00    -0.217 NA
ATOM     12  H   UNL     1       1.632  -0.695  -1.170  0.00  0.00    +0.148 HD
ENDROOT
BRANCH   1  14
ATOM     13  C   UNL     1      -0.019   1.526   0.010  0.00  0.00    +0.033 C 
ATOM     14  C   UNL     1       0.002  -0.004   0.002  0.00  0.00    +0.102 C 
BRANCH  14  15
ATOM     15  C   UNL     1       0.731  -0.503   1.223  0.00  0.00    +0.010 A 
ATOM     16  C   UNL     1       2.119  -0.569   1.383  0.00  0.00    +0.140 A 
ATOM     17  N   UNL     1       2.372  -1.054   2.572  0.00  0.00    -0.174 NA
ATOM     18  N   UNL     1       1.151  -1.314   3.208  0.00  0.00    -0.240 N 
ATOM     19  C   UNL     1       0.158  -0.962   2.360  0.00  0.00    +0.120 A 
BRANCH  18  20
ATOM     20  C   UNL     1       0.987  -1.841   4.497  0.00  0.00    +0.066 A 
ATOM     21  C   UNL     1      -0.287  -2.055   5.004  0.00  0.00    +0.030 A 
ATOM     22  C   UNL     1      -0.447  -2.574   6.273  0.00  0.00    +0.040 A 
ATOM     23  C   UNL     1       0.664  -2.882   7.041  0.00  0.00    +0.124 A 
ATOM     24  C   UNL     1       1.937  -2.669   6.537  0.00  0.00    +0.040 A 
ATOM     25  C   UNL     1       2.100  -2.155   5.266  0.00  0.00    +0.030 A 
ATOM     26  F   UNL     1       0.506  -3.390   8.283  0.00  0.00    -0.205 F 
ENDBRANCH  18  20
ENDBRANCH  14  15
ENDBRANCH   1  14
BRANCH  10  27
ATOM     27  C   UNL     1      -3.444  -0.080  -3.582  0.00  0.00    +0.057 C 
BRANCH  27  28
ATOM     28  C   UNL     1      -4.272  -1.318  -3.231  0.00  0.00    -0.079 C 
BRANCH  28  29
ATOM     29  N   UNL     1      -5.699  -0.969  -3.232  0.00  0.00    +0.378 N 
ATOM     30  H   UNL     1      -5.869  -0.246  -2.548  0.00  0.00    -0.090 HD
ATOM     31  H   UNL     1      -5.963  -0.636  -4.146  0.00  0.00    -0.090 HD
ATOM     32  H   UNL     1      -6.245  -1.786  -3.000  0.00  0.00    -0.090 HD
ENDBRANCH  28  29
ENDBRANCH  27  28
ENDBRANCH  10  27
TORSDOF 6
