REMARK  Name = ZINC39920101
REMARK  10 active torsions:
REMARK  status: ('A' for Active; 'I' for Inactive)
REMARK    1  A    between atoms: C_1  and  C_2
REMARK    2  A    between atoms: C_2  and  C_3
REMARK    3  A    between atoms: C_2  and  C_4
REMARK    4  A    between atoms: C_7  and  C_10
REMARK    5  A    between atoms: N_21  and  N_22
REMARK    6  A    between atoms: C_23  and  C_25
REMARK    7  A    between atoms: C_25  and  C_26
REMARK    8  A    between atoms: C_26  and  C_27
REMARK    9  A    between atoms: C_27  and  O_28
REMARK   10  A    between atoms: O_28  and  C_29
REMARK                            x       y       z     vdW  Elec       q    Type
REMARK                         _______ _______ _______ _____ _____    ______ ____
ROOT
ATOM      1  C   UNL     1      -5.419  -2.005   0.043  0.00  0.00    +0.212 C 
ATOM      2  N   UNL     1      -6.284  -1.053   0.752  0.00  0.00    -0.320 N 
ATOM      3  C   UNL     1      -6.657   0.117   0.100  0.00  0.00    +0.041 A 
ATOM      4  C   UNL     1      -6.918   1.289   0.790  0.00  0.00    +0.024 A 
ATOM      5  C   UNL     1      -7.282   2.425   0.093  0.00  0.00    +0.002 A 
ATOM      6  C   UNL     1      -7.388   2.401  -1.289  0.00  0.00    +0.001 A 
ATOM      7  C   UNL     1      -7.132   1.241  -1.991  0.00  0.00    +0.015 A 
ATOM      8  C   UNL     1      -6.765   0.088  -1.302  0.00  0.00    +0.059 A 
ATOM      9  C   UNL     1      -6.490  -1.180  -2.001  0.00  0.00    +0.266 C 
ATOM     10  O   UNL     1      -6.807  -1.321  -3.166  0.00  0.00    -0.268 OA
ATOM     11  N   UNL     1      -5.882  -2.178  -1.333  0.00  0.00    -0.191 N 
ATOM     12  H   UNL     1      -6.588  -1.236   1.654  0.00  0.00    +0.148 HD
ENDROOT
BRANCH   1  16
ATOM     13  C   UNL     1      -1.412  -0.526   0.013  0.00  0.00    -0.045 A 
ATOM     14  C   UNL     1      -2.259  -0.204   1.056  0.00  0.00    +0.004 A 
ATOM     15  C   UNL     1      -3.556  -0.683   1.066  0.00  0.00    +0.007 A 
ATOM     16  C   UNL     1      -4.006  -1.482   0.032  0.00  0.00    -0.008 A 
ATOM     17  C   UNL     1      -3.159  -1.803  -1.012  0.00  0.00    +0.007 A 
ATOM     18  C   UNL     1      -1.863  -1.321  -1.024  0.00  0.00    +0.004 A 
BRANCH  13  20
ATOM     19  C   UNL     1      -0.019   1.526   0.010  0.00  0.00    +0.012 C 
ATOM     20  C   UNL     1       0.002  -0.004   0.002  0.00  0.00    +0.013 C 
ATOM     21  C   UNL     1       0.742  -0.511   1.242  0.00  0.00    +0.012 C 
ENDBRANCH  13  20
ENDBRANCH   1  16
BRANCH  11  22
ATOM     22  N   UNL     1      -5.689  -3.409  -1.974  0.00  0.00    -0.230 N 
ATOM     23  C   UNL     1      -6.729  -4.248  -2.150  0.00  0.00    +0.229 C 
ATOM     24  O   UNL     1      -7.832  -3.937  -1.753  0.00  0.00    -0.274 OA
ATOM     25  H   UNL     1      -4.807  -3.657  -2.291  0.00  0.00    +0.173 HD
BRANCH  23  26
ATOM     26  C   UNL     1      -6.522  -5.572  -2.839  0.00  0.00    +0.100 C 
BRANCH  26  27
ATOM     27  C   UNL     1      -7.852  -6.325  -2.908  0.00  0.00    +0.050 C 
BRANCH  27  28
ATOM     28  C   UNL     1      -7.641  -7.669  -3.607  0.00  0.00    +0.229 C 
BRANCH  28  29
ATOM     29  O   UNL     1      -8.883  -8.373  -3.672  0.00  0.00    -0.490 OA
BRANCH  29  30
ATOM     30  C   UNL     1      -8.870  -9.594  -4.268  0.00  0.00    +0.139 A 
ATOM     31  C   UNL     1      -7.685 -10.107  -4.775  0.00  0.00    +0.048 A 
ATOM     32  C   UNL     1      -7.674 -11.349  -5.380  0.00  0.00    +0.023 A 
ATOM     33  C   UNL     1      -8.844 -12.082  -5.482  0.00  0.00    +0.043 A 
ATOM     34  C   UNL     1     -10.027 -11.572  -4.977  0.00  0.00    +0.043 A 
ATOM     35  C   UNL     1     -10.041 -10.332  -4.366  0.00  0.00    +0.084 A 
ATOM     36 CL   UNL     1     -11.525  -9.696  -3.726  0.00  0.00    -0.080 Cl
ATOM     37 CL   UNL     1      -8.826 -13.641  -6.244  0.00  0.00    -0.083 Cl
ENDBRANCH  29  30
ENDBRANCH  28  29
ENDBRANCH  27  28
ENDBRANCH  26  27
ENDBRANCH  23  26
ENDBRANCH  11  22
TORSDOF 8
