REMARK  Name = ZINC31053938
REMARK  10 active torsions:
REMARK  status: ('A' for Active; 'I' for Inactive)
REMARK    1  A    between atoms: C_1  and  C_2
REMARK    2  A    between atoms: C_2  and  C_3
REMARK    3  A    between atoms: C_3  and  C_5
REMARK    4  A    between atoms: C_3  and  N_13
REMARK    5  A    between atoms: C_8  and  C_12
REMARK    6  A    between atoms: C_10  and  C_11
REMARK    7  A    between atoms: C_14  and  C_16
REMARK    8  A    between atoms: N_21  and  C_23
REMARK    9  A    between atoms: C_23  and  C_24
REMARK   10  A    between atoms: C_26  and  C_29
REMARK                            x       y       z     vdW  Elec       q    Type
REMARK                         _______ _______ _______ _____ _____    ______ ____
ROOT
ATOM      1  C   UNL     1      -1.235   5.343   7.357  0.00  0.00    +0.058 C 
ATOM      2  C   UNL     1      -0.484   4.345   8.244  0.00  0.00    +0.009 C 
ATOM      3  C   UNL     1       0.462   5.111   9.172  0.00  0.00    -0.018 C 
ATOM      4  C   UNL     1      -0.345   6.109  10.005  0.00  0.00    -0.078 C 
ATOM      5  N   UNL     1      -1.044   7.042   9.111  0.00  0.00    +0.386 N 
ATOM      6  C   UNL     1      -1.993   6.335   8.242  0.00  0.00    -0.065 C 
ATOM      7  H   UNL     1      -0.289   7.517   8.466  0.00  0.00    -0.081 HD
ENDROOT
BRANCH   1   9
ATOM      8  N   UNL     1      -1.768   3.671   5.614  0.00  0.00    -0.308 N 
ATOM      9  C   UNL     1      -2.212   4.601   6.481  0.00  0.00    +0.215 C 
ATOM     10  O   UNL     1      -3.398   4.842   6.557  0.00  0.00    -0.276 OA
ATOM     11  H   UNL     1      -0.692   3.452   5.545  0.00  0.00    +0.149 HD
BRANCH   8  12
ATOM     12  C   UNL     1      -2.717   2.950   4.762  0.00  0.00    +0.103 C 
BRANCH  12  13
ATOM     13  C   UNL     1      -2.012   2.464   3.522  0.00  0.00    -0.024 A 
ATOM     14  C   UNL     1      -0.646   2.251   3.543  0.00  0.00    +0.006 A 
ATOM     15  C   UNL     1       0.001   1.806   2.405  0.00  0.00    +0.004 A 
ATOM     16  C   UNL     1      -0.718   1.572   1.248  0.00  0.00    -0.050 A 
ATOM     17  C   UNL     1      -2.083   1.789   1.226  0.00  0.00    +0.007 A 
ATOM     18  C   UNL     1      -2.731   2.231   2.365  0.00  0.00    -0.045 A 
ATOM     19  C   UNL     1      -4.220   2.462   2.343  0.00  0.00    +0.044 C 
ATOM     20  C   UNL     1      -0.013   1.086   0.008  0.00  0.00    +0.044 C 
ENDBRANCH  12  13
BRANCH  12  22
ATOM     21  C   UNL     1      -4.105   2.253   6.719  0.00  0.00    +0.006 C 
ATOM     22  C   UNL     1      -3.284   1.753   5.529  0.00  0.00    +0.024 C 
ENDBRANCH  12  22
ENDBRANCH   8  12
ENDBRANCH   1   9
BRANCH   5  23
ATOM     23  C   UNL     1      -1.717   8.100   9.876  0.00  0.00    +0.022 C 
BRANCH  23  24
ATOM     24  C   UNL     1      -0.686   8.957  10.563  0.00  0.00    +0.211 A 
ATOM     25  N   UNL     1      -0.118  10.032  10.075  0.00  0.00    -0.193 NA
ATOM     26  C   UNL     1       0.729  10.463  11.037  0.00  0.00    +0.202 A 
ATOM     27  N   UNL     1       0.628   9.633  12.042  0.00  0.00    -0.056 NA
ATOM     28  O   UNL     1      -0.183   8.767  11.787  0.00  0.00    -0.340 OA
BRANCH  26  29
ATOM     29  C   UNL     1       1.611  11.655  10.964  0.00  0.00    +0.024 A 
ATOM     30  C   UNL     1       1.619  12.450   9.820  0.00  0.00    +0.012 A 
ATOM     31  C   UNL     1       2.438  13.559   9.759  0.00  0.00    +0.002 A 
ATOM     32  C   UNL     1       3.256  13.878  10.827  0.00  0.00    +0.020 A 
ATOM     33  C   UNL     1       3.256  13.090  11.965  0.00  0.00    +0.042 A 
ATOM     34  C   UNL     1       2.437  11.979  12.038  0.00  0.00    +0.031 A 
ATOM     35 CL   UNL     1       4.286  13.496  13.302  0.00  0.00    -0.084 Cl
ENDBRANCH  26  29
ENDBRANCH  23  24
ENDBRANCH   5  23
TORSDOF 7
