REMARK  Name = ZINC65298394
REMARK  12 active torsions:
REMARK  status: ('A' for Active; 'I' for Inactive)
REMARK    1  A    between atoms: C_1  and  C_2
REMARK    2  A    between atoms: C_2  and  O_3
REMARK    3  A    between atoms: O_3  and  C_4
REMARK    4  A    between atoms: C_7  and  C_10
REMARK    5  A    between atoms: C_18  and  O_20
REMARK    6  A    between atoms: O_20  and  C_21
REMARK    7  A    between atoms: C_21  and  C_22
REMARK    8  A    between atoms: C_24  and  C_27
REMARK    9  A    between atoms: C_31  and  O_34
REMARK   10  A    between atoms: C_32  and  O_33
REMARK   11  A    between atoms: O_34  and  C_35
REMARK   12  A    between atoms: C_35  and  C_36
REMARK                            x       y       z     vdW  Elec       q    Type
REMARK                         _______ _______ _______ _____ _____    ______ ____
ROOT
ATOM      1  C   UNL     1      -1.997  -6.063  -0.013  0.00  0.00    +0.040 C 
ATOM      2  N   UNL     1      -0.952  -6.803  -0.017  0.00  0.00    -0.300 NA
ATOM      3  C   UNL     1      -0.984  -8.262  -0.033  0.00  0.00    +0.032 C 
ATOM      4  C   UNL     1      -0.713  -8.763  -1.455  0.00  0.00    +0.029 C 
ATOM      5  C   UNL     1       0.645  -8.237  -1.927  0.00  0.00    +0.111 C 
ATOM      6  N   UNL     1       1.670  -8.626  -0.950  0.00  0.00    -0.267 N 
ATOM      7  C   UNL     1       1.465  -8.279   0.463  0.00  0.00    +0.111 C 
ATOM      8  C   UNL     1       0.097  -8.806   0.907  0.00  0.00    +0.029 C 
ATOM      9  C   UNL     1       2.776  -9.290  -1.341  0.00  0.00    +0.403 C 
ATOM     10  O   UNL     1       2.933  -9.571  -2.512  0.00  0.00    -0.226 OA
ATOM     11  N   UNL     1      -2.296  -8.753   0.409  0.00  0.00    +0.401 N 
ATOM     12  C   UNL     1      -3.344  -8.105  -0.396  0.00  0.00    -0.028 C 
ATOM     13  C   UNL     1      -3.393  -6.622  -0.009  0.00  0.00    +0.044 C 
ATOM     14  H   UNL     1      -2.343  -9.753   0.283  0.00  0.00    -0.081 HD
ATOM     15  H   UNL     1      -2.430  -8.527   1.384  0.00  0.00    -0.081 HD
ENDROOT
BRANCH   1  19
ATOM     16  C   UNL     1      -1.498  -1.847   0.006  0.00  0.00    +0.121 A 
ATOM     17  C   UNL     1      -0.383  -2.676  -0.003  0.00  0.00    +0.046 A 
ATOM     18  C   UNL     1      -0.541  -4.045  -0.009  0.00  0.00    +0.013 A 
ATOM     19  C   UNL     1      -1.824  -4.598  -0.006  0.00  0.00    -0.004 A 
ATOM     20  C   UNL     1      -2.942  -3.760   0.004  0.00  0.00    +0.013 A 
ATOM     21  C   UNL     1      -2.776  -2.393   0.016  0.00  0.00    +0.046 A 
BRANCH  16  22
ATOM     22  O   UNL     1      -1.339  -0.499   0.012  0.00  0.00    -0.492 OA
BRANCH  22  24
ATOM     23  C   UNL     1      -0.019   1.526   0.010  0.00  0.00    +0.048 C 
ATOM     24  C   UNL     1       0.002  -0.004   0.002  0.00  0.00    +0.225 C 
ENDBRANCH  22  24
ENDBRANCH  16  22
ENDBRANCH   1  19
BRANCH  12  25
ATOM     25  C   UNL     1      -4.676  -8.749  -0.110  0.00  0.00    -0.016 A 
ATOM     26  C   UNL     1      -4.893  -9.380   1.101  0.00  0.00    +0.006 A 
ATOM     27  C   UNL     1      -6.113  -9.972   1.367  0.00  0.00    +0.004 A 
ATOM     28  C   UNL     1      -7.123  -9.935   0.423  0.00  0.00    +0.049 A 
ATOM     29  C   UNL     1      -6.912  -9.304  -0.792  0.00  0.00    +0.162 A 
ATOM     30  C   UNL     1      -5.685  -8.703  -1.057  0.00  0.00    +0.160 A 
BRANCH  30  31
ATOM     31  O   UNL     1      -5.476  -8.078  -2.247  0.00  0.00    -0.503 OA
ATOM     32  H   UNL     1      -5.123  -8.655  -2.938  0.00  0.00    +0.292 HD
ENDBRANCH  30  31
BRANCH  29  33
ATOM     33  O   UNL     1      -7.904  -9.267  -1.722  0.00  0.00    -0.489 OA
BRANCH  33  34
ATOM     34  C   UNL     1      -9.139  -9.900  -1.379  0.00  0.00    +0.226 C 
ATOM     35  C   UNL     1     -10.125  -9.757  -2.539  0.00  0.00    +0.048 C 
ENDBRANCH  33  34
ENDBRANCH  29  33
ENDBRANCH  12  25
BRANCH   9  36
ATOM     36  O   UNL     1       3.707  -9.640  -0.433  0.00  0.00    -0.451 OA
BRANCH  36  37
ATOM     37  C   UNL     1       4.854 -10.341  -0.918  0.00  0.00    +0.230 C 
ATOM     38  C   UNL     1       5.793 -10.652   0.249  0.00  0.00    +0.048 C 
ENDBRANCH  36  37
ENDBRANCH   9  36
TORSDOF 9
