REMARK  Name = ZINC15957016
REMARK  5 active torsions:
REMARK  status: ('A' for Active; 'I' for Inactive)
REMARK    1  A    between atoms: C_12  and  C_15
REMARK    2  A    between atoms: C_15  and  C_16
REMARK    3  A    between atoms: C_19  and  O_23
REMARK    4  A    between atoms: C_20  and  O_22
REMARK    5  A    between atoms: N_26  and  C_29
REMARK                            x       y       z     vdW  Elec       q    Type
REMARK                         _______ _______ _______ _____ _____    ______ ____
ROOT
ATOM      1  C   UNL     1      -0.709   1.151   0.447  0.00  0.00    +0.000 A 
ATOM      2  C   UNL     1       0.374   1.983   0.665  0.00  0.00    +0.002 A 
ATOM      3  C   UNL     1       1.650   1.463   0.729  0.00  0.00    +0.023 A 
ATOM      4  C   UNL     1       1.857   0.094   0.574  0.00  0.00    +0.039 A 
ATOM      5  C   UNL     1       0.760  -0.733   0.355  0.00  0.00    +0.003 A 
ATOM      6  C   UNL     1      -0.512  -0.209   0.292  0.00  0.00    +0.008 A 
ATOM      7  C   UNL     1       1.312  -2.125   0.236  0.00  0.00    +0.136 C 
ATOM      8  C   UNL     1       0.967  -2.757  -1.117  0.00  0.00    +0.123 C 
ATOM      9  C   UNL     1      -0.263  -3.662  -0.826  0.00  0.00    +0.108 C 
ATOM     10  C   UNL     1      -0.541  -3.476   0.681  0.00  0.00    +0.072 C 
ATOM     11  N   UNL     1       0.744  -3.022   1.259  0.00  0.00    -0.295 NA
ATOM     12  C   UNL     1      -1.367  -3.018  -1.633  0.00  0.00    +0.232 C 
ATOM     13  O   UNL     1      -2.512  -3.413  -1.694  0.00  0.00    -0.274 OA
ATOM     14  N   UNL     1      -0.886  -1.944  -2.269  0.00  0.00    -0.210 N 
ATOM     15  C   UNL     1       0.427  -1.700  -2.054  0.00  0.00    +0.233 C 
ATOM     16  O   UNL     1       1.071  -0.789  -2.527  0.00  0.00    -0.274 OA
ATOM     17  C   UNL     1       2.799  -1.972   0.407  0.00  0.00    +0.243 C 
ATOM     18  O   UNL     1       3.627  -2.858   0.379  0.00  0.00    -0.273 OA
ATOM     19  N   UNL     1       3.033  -0.659   0.597  0.00  0.00    -0.283 N 
ATOM     20  H   UNL     1       1.351  -3.810   1.428  0.00  0.00    +0.124 HD
ATOM     21  H   UNL     1       3.916  -0.281   0.733  0.00  0.00    +0.155 HD
ENDROOT
BRANCH  14  22
ATOM     22  C   UNL     1      -1.676  -1.135  -3.098  0.00  0.00    +0.044 A 
ATOM     23  C   UNL     1      -1.434  -1.095  -4.465  0.00  0.00    +0.025 A 
ATOM     24  C   UNL     1      -2.215  -0.298  -5.280  0.00  0.00    +0.022 A 
ATOM     25  C   UNL     1      -3.237   0.460  -4.735  0.00  0.00    +0.041 A 
ATOM     26  C   UNL     1      -3.479   0.421  -3.373  0.00  0.00    +0.022 A 
ATOM     27  C   UNL     1      -2.706  -0.379  -2.555  0.00  0.00    +0.025 A 
ATOM     28 CL   UNL     1      -4.215   1.460  -5.762  0.00  0.00    -0.084 Cl
ENDBRANCH  14  22
BRANCH  10  29
ATOM     29  C   UNL     1      -0.990  -4.798   1.306  0.00  0.00    +0.054 C 
BRANCH  29  30
ATOM     30  C   UNL     1      -1.374  -4.569   2.745  0.00  0.00    -0.042 A 
ATOM     31  C   UNL     1      -0.420  -4.682   3.740  0.00  0.00    +0.007 A 
ATOM     32  C   UNL     1      -0.767  -4.472   5.061  0.00  0.00    +0.049 A 
ATOM     33  C   UNL     1      -2.074  -4.148   5.392  0.00  0.00    +0.158 A 
ATOM     34  C   UNL     1      -3.033  -4.034   4.391  0.00  0.00    +0.158 A 
ATOM     35  C   UNL     1      -2.678  -4.240   3.067  0.00  0.00    +0.052 A 
BRANCH  34  36
ATOM     36  O   UNL     1      -4.316  -3.715   4.710  0.00  0.00    -0.503 OA
ATOM     37  H   UNL     1      -4.496  -2.765   4.716  0.00  0.00    +0.292 HD
ENDBRANCH  34  36
BRANCH  33  38
ATOM     38  O   UNL     1      -2.417  -3.942   6.691  0.00  0.00    -0.503 OA
ATOM     39  H   UNL     1      -2.324  -3.024   6.982  0.00  0.00    +0.292 HD
ENDBRANCH  33  38
ENDBRANCH  29  30
ENDBRANCH  10  29
TORSDOF 5
