REMARK  Name = ZINC16548415
REMARK  7 active torsions:
REMARK  status: ('A' for Active; 'I' for Inactive)
REMARK    1  A    between atoms: C_1  and  C_2
REMARK    2  A    between atoms: C_8  and  C_10
REMARK    3  A    between atoms: C_10  and  C_12
REMARK    4  A    between atoms: C_10  and  S_18
REMARK    5  A    between atoms: S_18  and  C_19
REMARK    6  A    between atoms: N_24  and  C_25
REMARK    7  A    between atoms: C_25  and  C_26
REMARK                            x       y       z     vdW  Elec       q    Type
REMARK                         _______ _______ _______ _____ _____    ______ ____
ROOT
ATOM      1  C   UNL     1      -6.586   4.900   7.758  0.00  0.00    +0.169 C 
ENDROOT
BRANCH   1   9
ATOM      2  C   UNL     1      -9.370   6.309  13.999  0.00  0.00    +0.089 C 
ATOM      3  C   UNL     1      -9.440   5.677  12.633  0.00  0.00    +0.136 A 
ATOM      4  C   UNL     1      -8.484   5.712  11.676  0.00  0.00    +0.091 A 
ATOM      5  C   UNL     1      -9.048   4.974  10.602  0.00  0.00    +0.168 A 
ATOM      6  N   UNL     1     -10.232   4.593  11.002  0.00  0.00    -0.063 NA
ATOM      7  O   UNL     1     -10.462   4.971  12.128  0.00  0.00    -0.358 OA
ATOM      8  N   UNL     1      -8.458   4.713   9.365  0.00  0.00    -0.267 N 
ATOM      9  C   UNL     1      -7.223   5.182   9.095  0.00  0.00    +0.236 C 
ATOM     10  O   UNL     1      -6.625   5.830   9.927  0.00  0.00    -0.274 OA
ATOM     11  H   UNL     1      -8.936   4.194   8.699  0.00  0.00    +0.156 HD
ENDBRANCH   1   9
BRANCH   1  12
ATOM     12  C   UNL     1      -7.040   5.931   6.758  0.00  0.00    -0.025 A 
ATOM     13  C   UNL     1      -6.781   7.271   6.980  0.00  0.00    +0.005 A 
ATOM     14  C   UNL     1      -7.193   8.217   6.060  0.00  0.00    +0.000 A 
ATOM     15  C   UNL     1      -7.872   7.824   4.922  0.00  0.00    +0.000 A 
ATOM     16  C   UNL     1      -8.136   6.485   4.702  0.00  0.00    +0.000 A 
ATOM     17  C   UNL     1      -7.720   5.539   5.620  0.00  0.00    +0.005 A 
ENDBRANCH   1  12
BRANCH   1  18
ATOM     18  S   UNL     1      -4.781   4.970   7.923  0.00  0.00    -0.079 S 
BRANCH  18  19
ATOM     19  C   UNL     1      -4.189   4.479   6.337  0.00  0.00    +0.161 A 
ATOM     20  N   UNL     1      -4.870   4.135   5.261  0.00  0.00    -0.133 NA
ATOM     21  N   UNL     1      -4.200   3.787   4.110  0.00  0.00    -0.125 NA
ATOM     22  C   UNL     1      -2.882   3.789   4.091  0.00  0.00    +0.182 A 
ATOM     23  S   UNL     1      -2.508   4.315   5.757  0.00  0.00    -0.025 S 
ATOM     24  N   UNL     1      -2.015   3.472   3.052  0.00  0.00    -0.320 N 
ATOM     25  H   UNL     1      -1.056   3.525   3.188  0.00  0.00    +0.148 HD
BRANCH  24  26
ATOM     26  C   UNL     1      -2.550   3.059   1.752  0.00  0.00    +0.135 C 
BRANCH  26  27
ATOM     27  C   UNL     1      -1.394   2.771   0.793  0.00  0.00    +0.135 C 
ATOM     28  C   UNL     1      -1.928   2.453  -0.626  0.00  0.00    +0.035 C 
ATOM     29  C   UNL     1      -0.778   1.606  -1.224  0.00  0.00    +0.031 C 
ATOM     30  C   UNL     1      -0.013   1.086   0.008  0.00  0.00    +0.160 C 
ATOM     31  O   UNL     1      -0.705   1.559   1.176  0.00  0.00    -0.375 OA
ENDBRANCH  26  27
ENDBRANCH  24  26
ENDBRANCH  18  19
ENDBRANCH   1  18
TORSDOF 6
