REMARK  Name = ZINC15906657
REMARK  10 active torsions:
REMARK  status: ('A' for Active; 'I' for Inactive)
REMARK    1  A    between atoms: C_3  and  N_34
REMARK    2  A    between atoms: C_5  and  C_7
REMARK    3  A    between atoms: N_8  and  C_9
REMARK    4  A    between atoms: C_9  and  C_10
REMARK    5  A    between atoms: C_10  and  C_11
REMARK    6  A    between atoms: C_13  and  C_21
REMARK    7  A    between atoms: C_21  and  C_22
REMARK    8  A    between atoms: C_22  and  N_23
REMARK    9  A    between atoms: C_24  and  C_25
REMARK   10  A    between atoms: C_27  and  N_31
REMARK                            x       y       z     vdW  Elec       q    Type
REMARK                         _______ _______ _______ _____ _____    ______ ____
ROOT
ATOM      1  C   UNL     1      -0.388  -6.350   1.276  0.00  0.00    -0.027 C 
ATOM      2  C   UNL     1      -0.975  -6.879   2.586  0.00  0.00    +0.014 C 
ATOM      3  C   UNL     1      -0.946  -8.409   2.576  0.00  0.00    -0.027 C 
ATOM      4  C   UNL     1       0.499  -8.891   2.433  0.00  0.00    +0.010 C 
ATOM      5  C   UNL     1       1.086  -8.361   1.123  0.00  0.00    -0.010 C 
ATOM      6  C   UNL     1       1.058  -6.832   1.133  0.00  0.00    +0.010 C 
ATOM      7  C   UNL     1       0.257  -8.880  -0.053  0.00  0.00    +0.007 C 
ATOM      8  C   UNL     1      -1.188  -8.398   0.090  0.00  0.00    -0.010 C 
ATOM      9  C   UNL     1      -1.775  -8.927   1.400  0.00  0.00    +0.010 C 
ATOM     10  C   UNL     1      -1.217  -6.868   0.099  0.00  0.00    +0.010 C 
ENDROOT
BRANCH   1  11
ATOM     11  C   UNL     1      -0.416  -4.820   1.285  0.00  0.00    +0.028 C 
BRANCH  11  12
ATOM     12  C   UNL     1       0.170  -4.291  -0.025  0.00  0.00    +0.113 C 
BRANCH  12  14
ATOM     13  C   UNL     1       1.250  -2.158  -0.023  0.00  0.00    +0.086 C 
ATOM     14  N   UNL     1       0.143  -2.826  -0.016  0.00  0.00    -0.390 N 
ATOM     15  H   UNL     1      -0.706  -2.357  -0.004  0.00  0.00    +0.159 HD
BRANCH  13  20
ATOM     16  C   UNL     1      -0.017   1.375   0.010  0.00  0.00    +0.003 A 
ATOM     17  C   UNL     1       1.170   2.086   0.002  0.00  0.00    +0.033 A 
ATOM     18  C   UNL     1       2.383   1.421  -0.013  0.00  0.00    +0.127 A 
ATOM     19  C   UNL     1       2.416   0.042  -0.021  0.00  0.00    +0.042 A 
ATOM     20  C   UNL     1       1.222  -0.682  -0.014  0.00  0.00    -0.007 A 
ATOM     21  C   UNL     1       0.002  -0.004   0.002  0.00  0.00    +0.009 A 
BRANCH  18  22
ATOM     22  N   UNL     1       3.647   2.190  -0.021  0.00  0.00    +0.056 N 
ATOM     23  O   UNL     1       3.620   3.398  -0.014  0.00  0.00    -0.126 OA
ATOM     24  O   UNL     1       4.708   1.609  -0.034  0.00  0.00    -0.126 OA
ENDBRANCH  18  22
ENDBRANCH  13  20
ENDBRANCH  12  14
ENDBRANCH  11  12
ENDBRANCH   1  11
BRANCH   3  25
ATOM     25  C   UNL     1      -1.532  -8.938   3.886  0.00  0.00    +0.028 C 
BRANCH  25  26
ATOM     26  C   UNL     1      -1.504 -10.468   3.877  0.00  0.00    +0.113 C 
BRANCH  26  27
ATOM     27  N   UNL     1      -2.066 -10.974   5.131  0.00  0.00    -0.390 N 
ATOM     28  C   UNL     1      -3.164 -11.657   5.119  0.00  0.00    +0.086 C 
ATOM     29  H   UNL     1      -1.614 -10.798   5.972  0.00  0.00    +0.159 HD
BRANCH  28  30
ATOM     30  C   UNL     1      -3.730 -12.168   6.383  0.00  0.00    -0.007 A 
ATOM     31  C   UNL     1      -4.913 -12.910   6.372  0.00  0.00    +0.042 A 
ATOM     32  C   UNL     1      -5.436 -13.384   7.557  0.00  0.00    +0.127 A 
ATOM     33  C   UNL     1      -4.792 -13.126   8.754  0.00  0.00    +0.033 A 
ATOM     34  C   UNL     1      -3.620 -12.392   8.772  0.00  0.00    +0.003 A 
ATOM     35  C   UNL     1      -3.083 -11.915   7.594  0.00  0.00    +0.009 A 
BRANCH  32  36
ATOM     36  N   UNL     1      -6.690 -14.171   7.548  0.00  0.00    +0.056 N 
ATOM     37  O   UNL     1      -7.254 -14.397   6.503  0.00  0.00    -0.126 OA
ATOM     38  O   UNL     1      -7.150 -14.587   8.585  0.00  0.00    -0.126 OA
ENDBRANCH  32  36
ENDBRANCH  28  30
ENDBRANCH  26  27
ENDBRANCH  25  26
ENDBRANCH   3  25
TORSDOF 10
