REMARK  Name = ZINC10377004
REMARK  11 active torsions:
REMARK  status: ('A' for Active; 'I' for Inactive)
REMARK    1  A    between atoms: C_1  and  C_2
REMARK    2  A    between atoms: C_3  and  C_35
REMARK    3  A    between atoms: N_4  and  C_29
REMARK    4  A    between atoms: C_5  and  N_9
REMARK    5  A    between atoms: C_6  and  C_7
REMARK    6  A    between atoms: C_10  and  C_12
REMARK    7  A    between atoms: C_12  and  O_13
REMARK    8  A    between atoms: O_13  and  C_14
REMARK    9  A    between atoms: C_14  and  C_16
REMARK   10  A    between atoms: C_16  and  C_17
REMARK   11  A    between atoms: C_17  and  N_18
REMARK                            x       y       z     vdW  Elec       q    Type
REMARK                         _______ _______ _______ _____ _____    ______ ____
ROOT
ATOM      1  N   UNL     1      -1.230   1.913   0.115  0.00  0.00    -0.268 N 
ATOM      2  C   UNL     1      -0.125   1.573  -0.579  0.00  0.00    +0.256 C 
ATOM      3  O   UNL     1      -0.125   0.575  -1.268  0.00  0.00    -0.272 OA
ATOM      4  H   UNL     1      -1.207   2.668   0.723  0.00  0.00    +0.156 HD
ENDROOT
BRANCH   1   9
ATOM      5  C   UNL     1      -5.894   0.456  -1.174  0.00  0.00    +0.047 C 
ATOM      6  C   UNL     1      -4.499   0.494  -0.605  0.00  0.00    -0.010 A 
ATOM      7  C   UNL     1      -3.893  -0.478   0.096  0.00  0.00    +0.027 A 
ATOM      8  N   UNL     1      -2.630  -0.070   0.438  0.00  0.00    -0.300 N 
ATOM      9  C   UNL     1      -2.398   1.183  -0.041  0.00  0.00    +0.128 A 
ATOM     10  C   UNL     1      -3.542   1.602  -0.707  0.00  0.00    +0.095 A 
ATOM     11  C   UNL     1      -4.505  -1.809   0.451  0.00  0.00    +0.064 C 
BRANCH   8  12
ATOM     12  C   UNL     1      -1.711  -0.831   1.174  0.00  0.00    +0.048 A 
ATOM     13  C   UNL     1      -1.174  -1.989   0.630  0.00  0.00    +0.026 A 
ATOM     14  C   UNL     1      -0.265  -2.734   1.356  0.00  0.00    +0.002 A 
ATOM     15  C   UNL     1       0.101  -2.333   2.627  0.00  0.00    +0.000 A 
ATOM     16  C   UNL     1      -0.437  -1.183   3.174  0.00  0.00    +0.002 A 
ATOM     17  C   UNL     1      -1.342  -0.430   2.451  0.00  0.00    +0.026 A 
ENDBRANCH   8  12
BRANCH  10  18
ATOM     18  C   UNL     1      -3.745   2.859  -1.362  0.00  0.00    +0.103 C 
ATOM     19  N   UNL     1      -3.906   3.856  -1.882  0.00  0.00    -0.191 NA
ENDBRANCH  10  18
ENDBRANCH   1   9
BRANCH   2  20
ATOM     20  C   UNL     1       1.107   2.438  -0.506  0.00  0.00    +0.328 C 
BRANCH  20  21
ATOM     21  O   UNL     1       2.149   1.867  -1.340  0.00  0.00    -0.455 OA
BRANCH  21  22
ATOM     22  C   UNL     1       3.320   2.522  -1.385  0.00  0.00    +0.309 C 
ATOM     23  O   UNL     1       3.469   3.538  -0.748  0.00  0.00    -0.251 OA
BRANCH  22  24
ATOM     24  C   UNL     1       4.449   1.989  -2.229  0.00  0.00    +0.140 C 
BRANCH  24  25
ATOM     25  C   UNL     1       5.660   2.915  -2.104  0.00  0.00    +0.125 C 
BRANCH  25  26
ATOM     26  N   UNL     1       6.758   2.397  -2.925  0.00  0.00    -0.265 N 
ATOM     27  C   UNL     1       7.692   1.503  -2.383  0.00  0.00    +0.078 A 
ATOM     28  C   UNL     1       7.434   0.848  -1.191  0.00  0.00    +0.027 A 
ATOM     29  C   UNL     1       8.370  -0.029  -0.673  0.00  0.00    +0.002 A 
ATOM     30  C   UNL     1       9.559  -0.253  -1.341  0.00  0.00    +0.004 A 
ATOM     31  C   UNL     1       9.816   0.390  -2.535  0.00  0.00    +0.047 A 
ATOM     32  C   UNL     1       8.888   1.273  -3.058  0.00  0.00    +0.142 A 
ATOM     33  O   UNL     1       9.133   1.925  -4.226  0.00  0.00    -0.481 OA
ATOM     34  C   UNL     1       8.002   2.206  -5.054  0.00  0.00    +0.325 C 
ATOM     35  C   UNL     1       6.888   2.779  -4.215  0.00  0.00    +0.258 C 
ATOM     36  O   UNL     1       6.112   3.578  -4.695  0.00  0.00    -0.272 OA
ENDBRANCH  25  26
ENDBRANCH  24  25
ENDBRANCH  22  24
ENDBRANCH  21  22
ENDBRANCH  20  21
ENDBRANCH   2  20
TORSDOF 9
