REMARK  Name = ZINC52926674
REMARK  11 active torsions:
REMARK  status: ('A' for Active; 'I' for Inactive)
REMARK    1  A    between atoms: C_1  and  C_2
REMARK    2  A    between atoms: C_2  and  C_3
REMARK    3  A    between atoms: C_2  and  C_4
REMARK    4  A    between atoms: C_2  and  O_5
REMARK    5  A    between atoms: O_5  and  C_6
REMARK    6  A    between atoms: N_8  and  C_9
REMARK    7  A    between atoms: N_12  and  C_15
REMARK    8  A    between atoms: C_15  and  C_16
REMARK    9  A    between atoms: N_18  and  C_19
REMARK   10  A    between atoms: C_19  and  C_20
REMARK   11  A    between atoms: C_20  and  C_21
REMARK                            x       y       z     vdW  Elec       q    Type
REMARK                         _______ _______ _______ _____ _____    ______ ____
ROOT
ATOM      1  C   UNL     1       4.035  -0.071  -2.601  0.00  0.00    +0.073 C 
ATOM      2  C   UNL     1       4.080   1.304  -3.272  0.00  0.00    +0.004 C 
ATOM      3  C   UNL     1       5.537   1.695  -3.527  0.00  0.00    -0.076 C 
ATOM      4  N   UNL     1       6.168   0.701  -4.403  0.00  0.00    +0.385 N 
ATOM      5  C   UNL     1       6.193  -0.607  -3.736  0.00  0.00    -0.076 C 
ATOM      6  C   UNL     1       4.761  -1.086  -3.490  0.00  0.00    +0.004 C 
ATOM      7  H   UNL     1       5.643   0.629  -5.262  0.00  0.00    -0.081 HD
ENDROOT
BRANCH   1  10
ATOM      8  C   UNL     1       1.952  -0.085  -1.337  0.00  0.00    +0.401 C 
ATOM      9  O   UNL     1       2.488   0.619  -0.503  0.00  0.00    -0.226 OA
ATOM     10  N   UNL     1       2.641  -0.485  -2.424  0.00  0.00    -0.278 N 
ATOM     11  H   UNL     1       2.213  -1.047  -3.089  0.00  0.00    +0.152 HD
BRANCH   8  12
ATOM     12  O   UNL     1       0.671  -0.465  -1.174  0.00  0.00    -0.445 OA
BRANCH  12  14
ATOM     13  C   UNL     1      -0.019   1.526   0.010  0.00  0.00    +0.055 C 
ATOM     14  C   UNL     1       0.002  -0.004   0.002  0.00  0.00    +0.107 C 
ATOM     15  C   UNL     1       0.742  -0.511   1.242  0.00  0.00    +0.055 C 
ATOM     16  C   UNL     1      -1.433  -0.534   0.013  0.00  0.00    +0.055 C 
ENDBRANCH  12  14
ENDBRANCH   8  12
ENDBRANCH   1  10
BRANCH   4  17
ATOM     17  C   UNL     1       7.543   1.120  -4.707  0.00  0.00    +0.019 C 
BRANCH  17  18
ATOM     18  C   UNL     1       8.150   0.166  -5.703  0.00  0.00    +0.196 C 
ATOM     19  O   UNL     1       7.502  -0.770  -6.119  0.00  0.00    -0.278 OA
ATOM     20  N   UNL     1       9.414   0.355  -6.132  0.00  0.00    -0.317 N 
ATOM     21  H   UNL     1       9.932   1.104  -5.800  0.00  0.00    +0.149 HD
BRANCH  20  22
ATOM     22  C   UNL     1      10.005  -0.573  -7.101  0.00  0.00    +0.104 C 
BRANCH  22  23
ATOM     23  C   UNL     1      11.436  -0.136  -7.417  0.00  0.00    +0.022 C 
BRANCH  23  24
ATOM     24  C   UNL     1      12.053  -1.104  -8.429  0.00  0.00    -0.010 C 
ATOM     25  C   UNL     1      12.184  -2.490  -7.793  0.00  0.00    +0.003 C 
ATOM     26  C   UNL     1      12.801  -3.458  -8.805  0.00  0.00    +0.000 C 
ATOM     27  C   UNL     1      14.185  -2.953  -9.216  0.00  0.00    +0.000 C 
ATOM     28  C   UNL     1      14.054  -1.567  -9.851  0.00  0.00    +0.000 C 
ATOM     29  C   UNL     1      13.437  -0.599  -8.840  0.00  0.00    +0.003 C 
ENDBRANCH  23  24
ENDBRANCH  22  23
ENDBRANCH  20  22
ENDBRANCH  17  18
ENDBRANCH   4  17
TORSDOF 8
