REMARK  Name = ZINC63383690
REMARK  6 active torsions:
REMARK  status: ('A' for Active; 'I' for Inactive)
REMARK    1  A    between atoms: C_1  and  C_2
REMARK    2  A    between atoms: C_2  and  C_4
REMARK    3  A    between atoms: C_2  and  N_12
REMARK    4  A    between atoms: C_4  and  C_5
REMARK    5  A    between atoms: C_5  and  C_6
REMARK    6  A    between atoms: C_15  and  C_22
REMARK                            x       y       z     vdW  Elec       q    Type
REMARK                         _______ _______ _______ _____ _____    ______ ____
ROOT
ATOM      1  N   UNL     1      -1.394  -0.457  -0.020  0.00  0.00    -0.258 N 
ATOM      2  C   UNL     1      -1.828  -1.236  -1.031  0.00  0.00    +0.265 A 
ATOM      3  O   UNL     1      -1.100  -1.471  -1.980  0.00  0.00    -0.267 OA
ATOM      4  C   UNL     1      -3.125  -1.775  -0.984  0.00  0.00    +0.100 A 
ATOM      5  C   UNL     1      -3.920  -1.498   0.089  0.00  0.00    +0.263 A 
ATOM      6  N   UNL     1      -3.438  -0.700   1.097  0.00  0.00    -0.274 N 
ATOM      7  H   UNL     1      -4.000  -0.500   1.862  0.00  0.00    +0.173 HD
ATOM      8  C   UNL     1      -2.192  -0.199   1.033  0.00  0.00    +0.332 A 
ATOM      9  O   UNL     1      -1.780   0.502   1.938  0.00  0.00    -0.246 OA
ATOM     10  O   UNL     1      -5.169  -2.003   0.159  0.00  0.00    -0.267 OA
ENDROOT
BRANCH   4  11
ATOM     11  C   UNL     1      -3.631  -2.648  -2.103  0.00  0.00    +0.121 C 
ATOM     12  C   UNL     1      -4.093  -3.994  -1.539  0.00  0.00    +0.128 C 
ATOM     13  C   UNL     1      -5.307  -3.696  -0.667  0.00  0.00    -0.035 C 
ATOM     14  C   UNL     1      -5.051  -4.221   0.523  0.00  0.00    -0.001 A 
ATOM     15  C   UNL     1      -5.867  -4.331   1.744  0.00  0.00    +0.010 A 
ATOM     16  C   UNL     1      -5.273  -4.928   2.810  0.00  0.00    +0.001 A 
ATOM     17  C   UNL     1      -3.965  -5.421   2.786  0.00  0.00    +0.002 A 
ATOM     18  C   UNL     1      -3.145  -5.367   1.706  0.00  0.00    +0.026 A 
ATOM     19  C   UNL     1      -3.659  -4.766   0.521  0.00  0.00    +0.043 A 
ATOM     20  N   UNL     1      -3.098  -4.608  -0.662  0.00  0.00    -0.376 N 
ATOM     21  C   UNL     1      -6.460  -2.863  -1.172  0.00  0.00    +0.048 C 
ATOM     22  C   UNL     1      -5.836  -1.612  -1.816  0.00  0.00    +0.086 C 
ATOM     23  N   UNL     1      -4.780  -2.001  -2.756  0.00  0.00    -0.307 NA
ATOM     24  H   UNL     1      -4.483  -1.214  -3.313  0.00  0.00    +0.123 HD
ATOM     25  H   UNL     1      -2.191  -4.847  -0.912  0.00  0.00    +0.160 HD
ENDBRANCH   4  11
BRANCH   1  27
ATOM     26  C   UNL     1      -0.126   1.634  -0.025  0.00  0.00    +0.031 C 
ATOM     27  C   UNL     1      -0.043   0.107  -0.064  0.00  0.00    +0.092 C 
BRANCH  27  28
ATOM     28  C   UNL     1       0.757  -0.391   1.141  0.00  0.00    +0.030 C 
BRANCH  28  29
ATOM     29  C   UNL     1       0.948  -1.905   1.037  0.00  0.00    +0.037 C 
BRANCH  29  30
ATOM     30  C   UNL     1       1.736  -2.396   2.224  0.00  0.00    -0.047 A 
ATOM     31  C   UNL     1       3.116  -2.446   2.164  0.00  0.00    +0.003 A 
ATOM     32  C   UNL     1       3.839  -2.896   3.253  0.00  0.00    +0.000 A 
ATOM     33  C   UNL     1       3.182  -3.295   4.402  0.00  0.00    +0.000 A 
ATOM     34  C   UNL     1       1.802  -3.244   4.462  0.00  0.00    +0.000 A 
ATOM     35  C   UNL     1       1.079  -2.790   3.374  0.00  0.00    +0.003 A 
ENDBRANCH  29  30
ENDBRANCH  28  29
ENDBRANCH  27  28
ENDBRANCH   1  27
TORSDOF 5
