REMARK  Name = ZINC02898314
REMARK  10 active torsions:
REMARK  status: ('A' for Active; 'I' for Inactive)
REMARK    1  A    between atoms: C_1  and  C_2
REMARK    2  A    between atoms: C_2  and  C_3
REMARK    3  A    between atoms: C_3  and  C_5
REMARK    4  A    between atoms: C_3  and  C_6
REMARK    5  A    between atoms: C_6  and  C_8
REMARK    6  A    between atoms: C_6  and  N_27
REMARK    7  A    between atoms: N_13  and  C_14
REMARK    8  A    between atoms: C_14  and  C_15
REMARK    9  A    between atoms: C_14  and  C_21
REMARK   10  A    between atoms: C_28  and  C_30
REMARK                            x       y       z     vdW  Elec       q    Type
REMARK                         _______ _______ _______ _____ _____    ______ ____
ROOT
ATOM      1  C   UNL     1      -2.395   1.214   1.607  0.00  0.00    +0.241 C 
ATOM      2  O   UNL     1      -3.524   1.647   1.688  0.00  0.00    -0.273 OA
ATOM      3  N   UNL     1      -1.345   2.058   1.650  0.00  0.00    -0.239 N 
ATOM      4  C   UNL     1      -1.544   3.369   1.888  0.00  0.00    +0.307 C 
ATOM      5  O   UNL     1      -2.670   3.791   2.064  0.00  0.00    -0.252 OA
ATOM      6  N   UNL     1      -0.494   4.213   1.931  0.00  0.00    -0.288 N 
ATOM      7  H   UNL     1      -0.446   1.721   1.509  0.00  0.00    +0.159 HD
ATOM      8  H   UNL     1       0.405   3.877   1.791  0.00  0.00    +0.151 HD
ENDROOT
BRANCH   1   9
ATOM      9  C   UNL     1      -2.165  -0.268   1.458  0.00  0.00    +0.162 C 
BRANCH   9  10
ATOM     10  N   UNL     1      -3.347  -0.995   1.926  0.00  0.00    -0.304 N 
ATOM     11  C   UNL     1      -3.228  -2.264   2.366  0.00  0.00    +0.211 C 
ATOM     12  O   UNL     1      -2.141  -2.803   2.373  0.00  0.00    -0.276 OA
ATOM     13  C   UNL     1      -4.444  -3.012   2.848  0.00  0.00    +0.109 C 
ATOM     14  H   UNL     1      -4.216  -0.564   1.920  0.00  0.00    +0.149 HD
ENDBRANCH   9  10
BRANCH   9  15
ATOM     15  C   UNL     1      -1.913  -0.599  -0.015  0.00  0.00    +0.015 C 
ATOM     16  C   UNL     1      -3.182  -0.326  -0.824  0.00  0.00    +0.010 C 
BRANCH  15  18
ATOM     17  C   UNL     1      -0.190  -2.320   0.547  0.00  0.00    +0.004 C 
ATOM     18  C   UNL     1      -1.532  -2.075  -0.147  0.00  0.00    +0.002 C 
ENDBRANCH  15  18
ENDBRANCH   9  15
ENDBRANCH   1   9
BRANCH   6  19
ATOM     19  C   UNL     1      -0.710   5.639   2.191  0.00  0.00    +0.135 C 
BRANCH  19  20
ATOM     20  C   UNL     1       0.539   6.236   2.785  0.00  0.00    -0.023 A 
ATOM     21  C   UNL     1       1.780   5.864   2.304  0.00  0.00    +0.006 A 
ATOM     22  C   UNL     1       2.926   6.412   2.849  0.00  0.00    +0.000 A 
ATOM     23  C   UNL     1       2.831   7.333   3.876  0.00  0.00    +0.000 A 
ATOM     24  C   UNL     1       1.589   7.706   4.357  0.00  0.00    +0.000 A 
ATOM     25  C   UNL     1       0.443   7.161   3.808  0.00  0.00    +0.006 A 
ENDBRANCH  19  20
BRANCH  19  26
ATOM     26  C   UNL     1      -1.037   6.341   0.898  0.00  0.00    -0.023 A 
ATOM     27  C   UNL     1      -0.368   5.998  -0.263  0.00  0.00    +0.006 A 
ATOM     28  C   UNL     1      -0.667   6.642  -1.449  0.00  0.00    +0.000 A 
ATOM     29  C   UNL     1      -1.636   7.628  -1.474  0.00  0.00    +0.000 A 
ATOM     30  C   UNL     1      -2.305   7.970  -0.314  0.00  0.00    +0.000 A 
ATOM     31  C   UNL     1      -2.008   7.323   0.871  0.00  0.00    +0.006 A 
ENDBRANCH  19  26
ENDBRANCH   6  19
TORSDOF 7
