REMARK  Name = ZINC13527947
REMARK  8 active torsions:
REMARK  status: ('A' for Active; 'I' for Inactive)
REMARK    1  A    between atoms: C_1  and  C_2
REMARK    2  A    between atoms: C_5  and  N_8
REMARK    3  A    between atoms: N_8  and  S_9
REMARK    4  A    between atoms: S_9  and  C_12
REMARK    5  A    between atoms: C_14  and  C_19
REMARK    6  A    between atoms: C_17  and  C_18
REMARK    7  A    between atoms: N_21  and  N_22
REMARK    8  A    between atoms: C_23  and  C_25
REMARK                            x       y       z     vdW  Elec       q    Type
REMARK                         _______ _______ _______ _____ _____    ______ ____
ROOT
ATOM      1  C   UNL     1      -3.150   7.332   5.446  0.00  0.00    +0.112 A 
ATOM      2  C   UNL     1      -2.507   6.853   4.323  0.00  0.00    +0.042 A 
ATOM      3  C   UNL     1      -2.354   5.477   4.144  0.00  0.00    +0.040 A 
ATOM      4  C   UNL     1      -2.858   4.594   5.100  0.00  0.00    +0.013 A 
ATOM      5  C   UNL     1      -3.495   5.086   6.221  0.00  0.00    +0.006 A 
ATOM      6  C   UNL     1      -3.643   6.451   6.393  0.00  0.00    -0.024 A 
ATOM      7  C   UNL     1      -4.345   6.982   7.616  0.00  0.00    +0.046 C 
ENDROOT
BRANCH   3   8
ATOM      8  C   UNL     1      -1.666   4.957   2.943  0.00  0.00    +0.260 C 
ATOM      9  O   UNL     1      -1.233   5.728   2.109  0.00  0.00    -0.269 OA
ATOM     10  N   UNL     1      -1.520   3.628   2.772  0.00  0.00    -0.230 N 
ATOM     11  H   UNL     1      -1.866   3.013   3.438  0.00  0.00    +0.173 HD
BRANCH  10  12
ATOM     12  N   UNL     1      -0.869   3.135   1.634  0.00  0.00    -0.234 N 
ATOM     13  C   UNL     1      -0.723   1.806   1.464  0.00  0.00    +0.235 C 
ATOM     14  O   UNL     1      -1.155   1.037   2.296  0.00  0.00    -0.274 OA
ATOM     15  H   UNL     1      -0.522   3.750   0.969  0.00  0.00    +0.173 HD
BRANCH  13  16
ATOM     16  C   UNL     1      -0.022   1.276   0.240  0.00  0.00    +0.049 C 
ATOM     17  C   UNL     1       1.410   1.813   0.199  0.00  0.00    +0.019 C 
ATOM     18  C   UNL     1       2.122   1.275  -1.044  0.00  0.00    -0.009 C 
ATOM     19  C   UNL     1       2.152  -0.254  -0.992  0.00  0.00    +0.007 C 
ATOM     20  C   UNL     1       0.720  -0.791  -0.951  0.00  0.00    -0.009 C 
ATOM     21  C   UNL     1       0.009  -0.253   0.291  0.00  0.00    +0.019 C 
ATOM     22  C   UNL     1      -0.030  -0.338  -2.205  0.00  0.00    +0.007 C 
ATOM     23  C   UNL     1      -0.060   1.190  -2.257  0.00  0.00    -0.009 C 
ATOM     24  C   UNL     1       1.371   1.728  -2.298  0.00  0.00    +0.007 C 
ATOM     25  C   UNL     1      -0.772   1.729  -1.014  0.00  0.00    +0.019 C 
ENDBRANCH  13  16
ENDBRANCH  10  12
ENDBRANCH   3   8
BRANCH   1  26
ATOM     26  S   UNL     1      -3.344   9.068   5.675  0.00  0.00    +0.073 S 
ATOM     27  O   UNL     1      -2.701   9.697   4.574  0.00  0.00    -0.150 OA
ATOM     28  O   UNL     1      -4.713   9.287   5.983  0.00  0.00    -0.150 OA
BRANCH  26  29
ATOM     29  N   UNL     1      -2.482   9.483   7.026  0.00  0.00    -0.216 N 
ATOM     30  H   UNL     1      -2.945   9.792   7.821  0.00  0.00    +0.174 HD
BRANCH  29  35
ATOM     31  C   UNL     1       3.176   9.096   7.013  0.00  0.00    +0.044 C 
ATOM     32  C   UNL     1       1.672   9.198   7.016  0.00  0.00    -0.050 A 
ATOM     33  C   UNL     1       1.059  10.332   7.517  0.00  0.00    +0.005 A 
ATOM     34  C   UNL     1      -0.318  10.430   7.522  0.00  0.00    +0.025 A 
ATOM     35  C   UNL     1      -1.088   9.387   7.023  0.00  0.00    +0.048 A 
ATOM     36  C   UNL     1      -0.470   8.248   6.525  0.00  0.00    +0.025 A 
ATOM     37  C   UNL     1       0.908   8.159   6.519  0.00  0.00    +0.005 A 
ENDBRANCH  29  35
ENDBRANCH  26  29
ENDBRANCH   1  26
TORSDOF 6
