REMARK  Name = ZINC30713745
REMARK  7 active torsions:
REMARK  status: ('A' for Active; 'I' for Inactive)
REMARK    1  A    between atoms: C_1  and  C_2
REMARK    2  A    between atoms: C_6  and  C_8
REMARK    3  A    between atoms: C_8  and  N_9
REMARK    4  A    between atoms: C_13  and  C_14
REMARK    5  A    between atoms: C_25  and  S_26
REMARK    6  A    between atoms: S_26  and  C_27
REMARK    7  A    between atoms: C_27  and  C_28
REMARK                            x       y       z     vdW  Elec       q    Type
REMARK                         _______ _______ _______ _____ _____    ______ ____
ROOT
ATOM      1  C   UNL     1       1.816  -1.073   3.832  0.00  0.00    +0.042 C 
ATOM      2  C   UNL     1       0.506  -0.716   3.565  0.00  0.00    +0.079 C 
ATOM      3  C   UNL     1      -0.055   0.595   3.996  0.00  0.00    +0.116 C 
ATOM      4  N   UNL     1       0.653   1.691   4.071  0.00  0.00    -0.386 N 
ATOM      5  N   UNL     1      -1.426   0.533   4.316  0.00  0.00    -0.212 N 
ATOM      6  C   UNL     1      -2.184  -0.482   3.766  0.00  0.00    +0.183 C 
ATOM      7  N   UNL     1      -1.740  -1.482   3.037  0.00  0.00    -0.152 NA
ATOM      8  C   UNL     1      -0.414  -1.613   2.828  0.00  0.00    +0.273 C 
ATOM      9  O   UNL     1       0.019  -2.453   2.055  0.00  0.00    -0.268 OA
ATOM     10  S   UNL     1      -3.732  -0.123   4.269  0.00  0.00    +0.048 S 
ATOM     11  N   UNL     1      -3.406   1.209   5.234  0.00  0.00    -0.185 NA
ATOM     12  C   UNL     1      -2.118   1.383   5.117  0.00  0.00    +0.176 C 
ATOM     13  H   UNL     1       1.594   1.677   3.839  0.00  0.00    +0.157 HD
ATOM     14  H   UNL     1       0.236   2.518   4.359  0.00  0.00    +0.157 HD
ENDROOT
BRANCH   1  19
ATOM     15  N   UNL     1       3.477  -2.922   3.893  0.00  0.00    -0.343 N 
ATOM     16  C   UNL     1       3.424  -4.277   3.870  0.00  0.00    +0.086 A 
ATOM     17  C   UNL     1       2.127  -4.667   3.785  0.00  0.00    +0.020 A 
ATOM     18  C   UNL     1       1.334  -3.519   3.753  0.00  0.00    +0.027 A 
ATOM     19  C   UNL     1       2.191  -2.430   3.827  0.00  0.00    +0.043 A 
BRANCH  15  20
ATOM     20  C   UNL     1       4.698  -2.116   3.980  0.00  0.00    +0.157 C 
BRANCH  20  26
ATOM     21  C   UNL     1       4.337   1.036   7.850  0.00  0.00    +0.044 C 
ATOM     22  C   UNL     1       4.806  -0.275   7.274  0.00  0.00    -0.050 A 
ATOM     23  C   UNL     1       5.495  -1.173   8.069  0.00  0.00    +0.003 A 
ATOM     24  C   UNL     1       5.925  -2.375   7.541  0.00  0.00    +0.001 A 
ATOM     25  C   UNL     1       5.667  -2.680   6.217  0.00  0.00    +0.005 A 
ATOM     26  C   UNL     1       4.978  -1.784   5.423  0.00  0.00    -0.028 A 
ATOM     27  C   UNL     1       4.544  -0.583   5.952  0.00  0.00    +0.008 A 
ENDBRANCH  20  26
ENDBRANCH  15  20
ENDBRANCH   1  19
BRANCH  12  28
ATOM     28  S   UNL     1      -1.299   2.685   5.976  0.00  0.00    -0.084 S 
BRANCH  28  29
ATOM     29  C   UNL     1      -2.631   3.515   6.887  0.00  0.00    +0.112 C 
BRANCH  29  30
ATOM     30  C   UNL     1      -2.059   4.665   7.675  0.00  0.00    -0.037 A 
ATOM     31  C   UNL     1      -1.609   4.462   8.966  0.00  0.00    +0.004 A 
ATOM     32  C   UNL     1      -1.084   5.517   9.689  0.00  0.00    +0.000 A 
ATOM     33  C   UNL     1      -1.010   6.775   9.121  0.00  0.00    +0.000 A 
ATOM     34  C   UNL     1      -1.459   6.978   7.830  0.00  0.00    +0.000 A 
ATOM     35  C   UNL     1      -1.980   5.922   7.105  0.00  0.00    +0.004 A 
ENDBRANCH  29  30
ENDBRANCH  28  29
ENDBRANCH  12  28
TORSDOF 6
