REMARK  Name = ZINC36554833
REMARK  10 active torsions:
REMARK  status: ('A' for Active; 'I' for Inactive)
REMARK    1  A    between atoms: C_1  and  C_2
REMARK    2  A    between atoms: C_2  and  C_3
REMARK    3  A    between atoms: N_5  and  C_6
REMARK    4  A    between atoms: N_5  and  C_13
REMARK    5  A    between atoms: C_13  and  C_15
REMARK    6  A    between atoms: C_13  and  C_24
REMARK    7  A    between atoms: C_16  and  O_23
REMARK    8  A    between atoms: C_18  and  O_22
REMARK    9  A    between atoms: C_20  and  O_21
REMARK   10  A    between atoms: N_26  and  C_27
REMARK                            x       y       z     vdW  Elec       q    Type
REMARK                         _______ _______ _______ _____ _____    ______ ____
ROOT
ATOM      1  C   UNL     1       0.375  -2.160   0.464  0.00  0.00    +0.204 C 
ENDROOT
BRANCH   1   2
ATOM      2  C   UNL     1       1.246  -1.715  -0.682  0.00  0.00    +0.065 A 
ATOM      3  C   UNL     1       2.133  -0.662  -0.511  0.00  0.00    +0.129 A 
ATOM      4  C   UNL     1       2.934  -0.253  -1.566  0.00  0.00    +0.091 A 
ATOM      5  C   UNL     1       2.850  -0.897  -2.792  0.00  0.00    +0.124 A 
ATOM      6  C   UNL     1       1.964  -1.950  -2.962  0.00  0.00    +0.091 A 
ATOM      7  C   UNL     1       1.165  -2.362  -1.906  0.00  0.00    +0.129 A 
BRANCH   7   8
ATOM      8  O   UNL     1       0.300  -3.397  -2.072  0.00  0.00    -0.506 OA
ATOM      9  H   UNL     1      -0.578  -3.131  -2.377  0.00  0.00    +0.292 HD
ENDBRANCH   7   8
BRANCH   5  10
ATOM     10  O   UNL     1       3.635  -0.495  -3.826  0.00  0.00    -0.507 OA
ATOM     11  H   UNL     1       4.489  -0.947  -3.870  0.00  0.00    +0.292 HD
ENDBRANCH   5  10
BRANCH   3  12
ATOM     12  O   UNL     1       2.216  -0.032   0.690  0.00  0.00    -0.506 OA
ATOM     13  H   UNL     1       2.874  -0.411   1.288  0.00  0.00    +0.292 HD
ENDBRANCH   3  12
ENDBRANCH   1   2
BRANCH   1  14
ATOM     14  C   UNL     1      -0.761  -1.185   0.639  0.00  0.00    +0.239 C 
ATOM     15  O   UNL     1      -0.724  -0.365   1.532  0.00  0.00    -0.273 OA
ATOM     16  N   UNL     1      -1.819  -1.226  -0.196  0.00  0.00    -0.311 N 
ATOM     17  H   UNL     1      -1.848  -1.882  -0.909  0.00  0.00    +0.149 HD
BRANCH  16  18
ATOM     18  C   UNL     1      -2.923  -0.278  -0.025  0.00  0.00    +0.073 C 
ATOM     19  C   UNL     1      -3.907  -0.823   1.011  0.00  0.00    +0.022 C 
ATOM     20  C   UNL     1      -5.061   0.166   1.189  0.00  0.00    +0.002 C 
ATOM     21  C   UNL     1      -5.781   0.356  -0.148  0.00  0.00    +0.000 C 
ATOM     22  C   UNL     1      -4.796   0.901  -1.184  0.00  0.00    +0.002 C 
ATOM     23  C   UNL     1      -3.643  -0.089  -1.362  0.00  0.00    +0.022 C 
ENDBRANCH  16  18
ENDBRANCH   1  14
BRANCH   1  26
ATOM     24  C   UNL     1       2.496  -2.447   1.629  0.00  0.00    +0.220 C 
ATOM     25  O   UNL     1       3.052  -2.495   0.552  0.00  0.00    -0.275 OA
ATOM     26  N   UNL     1       1.171  -2.207   1.693  0.00  0.00    -0.255 N 
BRANCH  26  27
ATOM     27  C   UNL     1       0.556  -2.003   2.933  0.00  0.00    +0.039 A 
ATOM     28  C   UNL     1      -0.596  -2.706   3.263  0.00  0.00    +0.023 A 
ATOM     29  C   UNL     1      -1.200  -2.503   4.488  0.00  0.00    +0.003 A 
ATOM     30  C   UNL     1      -0.660  -1.602   5.387  0.00  0.00    +0.020 A 
ATOM     31  C   UNL     1       0.488  -0.900   5.062  0.00  0.00    +0.043 A 
ATOM     32  C   UNL     1       1.100  -1.103   3.840  0.00  0.00    +0.043 A 
ATOM     33 CL   UNL     1       1.162   0.231   6.194  0.00  0.00    -0.083 Cl
ENDBRANCH  26  27
BRANCH  24  35
ATOM     34  C   UNL     1       3.928  -4.045   2.871  0.00  0.00    +0.013 C 
ATOM     35  C   UNL     1       3.286  -2.657   2.895  0.00  0.00    +0.093 C 
ENDBRANCH  24  35
ENDBRANCH   1  26
TORSDOF 9
