REMARK  Name = ZINC02724633
REMARK  2 active torsions:
REMARK  status: ('A' for Active; 'I' for Inactive)
REMARK    1  A    between atoms: C_8  and  C_12
REMARK    2  A    between atoms: C_25  and  C_27
REMARK                            x       y       z     vdW  Elec       q    Type
REMARK                         _______ _______ _______ _____ _____    ______ ____
ROOT
ATOM      1  C   UNL     1      -4.011   0.684   1.862  0.00  0.00    +0.255 C 
ATOM      2  O   UNL     1      -3.592  -0.454   1.965  0.00  0.00    -0.270 OA
ATOM      3  N   UNL     1      -3.586   1.470   0.853  0.00  0.00    -0.277 N 
ATOM      4  C   UNL     1      -4.003   2.861   0.841  0.00  0.00    +0.205 C 
ATOM      5  C   UNL     1      -4.971   3.099  -0.272  0.00  0.00    +0.235 C 
ATOM      6  O   UNL     1      -5.850   3.909  -0.067  0.00  0.00    -0.274 OA
ATOM      7  N   UNL     1      -4.965   2.526  -1.440  0.00  0.00    -0.284 N 
ATOM      8  C   UNL     1      -4.427   1.390  -1.998  0.00  0.00    +0.039 A 
ATOM      9  C   UNL     1      -4.960   1.028  -3.247  0.00  0.00    +0.025 A 
ATOM     10  C   UNL     1      -4.523  -0.088  -3.918  0.00  0.00    +0.022 A 
ATOM     11  C   UNL     1      -3.531  -0.876  -3.361  0.00  0.00    +0.041 A 
ATOM     12  C   UNL     1      -2.990  -0.523  -2.144  0.00  0.00    +0.027 A 
ATOM     13  C   UNL     1      -3.427   0.612  -1.458  0.00  0.00    -0.000 A 
ATOM     14  C   UNL     1      -2.742   0.887  -0.156  0.00  0.00    +0.139 C 
ATOM     15 CL   UNL     1      -2.972  -2.296  -4.189  0.00  0.00    -0.084 Cl
ATOM     16  H   UNL     1      -5.476   3.034  -2.090  0.00  0.00    +0.155 HD
ENDROOT
BRANCH   1  24
ATOM     17  C   UNL     1      -9.131   3.364   3.945  0.00  0.00    +0.001 A 
ATOM     18  C   UNL     1      -8.836   3.235   5.296  0.00  0.00    +0.004 A 
ATOM     19  C   UNL     1      -7.663   2.637   5.705  0.00  0.00    +0.047 A 
ATOM     20  C   UNL     1      -6.763   2.155   4.761  0.00  0.00    +0.139 A 
ATOM     21  C   UNL     1      -7.063   2.286   3.393  0.00  0.00    +0.018 A 
ATOM     22  C   UNL     1      -8.263   2.899   3.000  0.00  0.00    +0.011 A 
ATOM     23  C   UNL     1      -6.154   1.805   2.417  0.00  0.00    +0.031 A 
ATOM     24  C   UNL     1      -4.982   1.202   2.840  0.00  0.00    +0.122 A 
ATOM     25  C   UNL     1      -4.722   1.094   4.280  0.00  0.00    +0.350 A 
ATOM     26  O   UNL     1      -3.696   0.572   4.674  0.00  0.00    -0.244 OA
ATOM     27  O   UNL     1      -5.614   1.570   5.165  0.00  0.00    -0.422 OA
ENDBRANCH   1  24
BRANCH  14  28
ATOM     28  C   UNL     1      -1.589   1.824  -0.412  0.00  0.00    -0.022 A 
ATOM     29  C   UNL     1      -1.821   3.070  -0.963  0.00  0.00    +0.008 A 
ATOM     30  C   UNL     1      -0.766   3.932  -1.193  0.00  0.00    +0.038 A 
ATOM     31  C   UNL     1       0.525   3.545  -0.877  0.00  0.00    +0.123 A 
ATOM     32  C   UNL     1       0.757   2.294  -0.330  0.00  0.00    +0.038 A 
ATOM     33  C   UNL     1      -0.300   1.434  -0.100  0.00  0.00    +0.008 A 
ATOM     34  F   UNL     1       1.558   4.386  -1.101  0.00  0.00    -0.205 F 
ENDBRANCH  14  28
TORSDOF 2
