REMARK  Name = ZINC43740179
REMARK  13 active torsions:
REMARK  status: ('A' for Active; 'I' for Inactive)
REMARK    1  A    between atoms: C_1  and  C_2
REMARK    2  A    between atoms: C_2  and  N_3
REMARK    3  A    between atoms: N_3  and  C_4
REMARK    4  A    between atoms: N_3  and  C_6
REMARK    5  A    between atoms: C_4  and  C_5
REMARK    6  A    between atoms: C_6  and  C_7
REMARK    7  A    between atoms: C_8  and  C_12
REMARK    8  A    between atoms: C_12  and  C_13
REMARK    9  A    between atoms: C_13  and  C_14
REMARK   10  A    between atoms: C_22  and  C_32
REMARK   11  A    between atoms: C_26  and  C_27
REMARK   12  A    between atoms: C_26  and  C_28
REMARK   13  A    between atoms: N_30  and  C_31
REMARK                            x       y       z     vdW  Elec       q    Type
REMARK                         _______ _______ _______ _____ _____    ______ ____
ROOT
ATOM      1  C   UNL     1       4.510  -3.041  -0.179  0.00  0.00    +0.021 C 
ATOM      2  C   UNL     1       3.284  -2.266   0.232  0.00  0.00    -0.073 C 
ATOM      3  C   UNL     1       2.199  -2.237  -0.493  0.00  0.00    +0.008 C 
ATOM      4  C   UNL     1       3.391  -1.518   1.542  0.00  0.00    +0.031 C 
ATOM      5  C   UNL     1       3.780  -2.529   2.624  0.00  0.00    +0.009 C 
ATOM      6  C   UNL     1       5.063  -3.294   2.265  0.00  0.00    +0.010 C 
ATOM      7  C   UNL     1       4.890  -4.027   0.938  0.00  0.00    -0.022 C 
ATOM      8  C   UNL     1       3.823  -5.109   1.074  0.00  0.00    +0.007 C 
ATOM      9  C   UNL     1       4.212  -6.094   2.178  0.00  0.00    +0.002 C 
ATOM     10  C   UNL     1       4.355  -5.366   3.508  0.00  0.00    +0.016 C 
ATOM     11  C   UNL     1       5.377  -4.235   3.428  0.00  0.00    +0.047 C 
ATOM     12  C   UNL     1       6.796  -4.804   3.376  0.00  0.00    +0.021 C 
ATOM     13  C   UNL     1       6.199  -4.670   0.456  0.00  0.00    +0.012 C 
ENDROOT
BRANCH  11  14
ATOM     14  C   UNL     1       5.301  -3.467   4.742  0.00  0.00    +0.219 C 
ATOM     15  O   UNL     1       4.572  -3.857   5.630  0.00  0.00    -0.275 OA
ATOM     16  N   UNL     1       6.043  -2.356   4.917  0.00  0.00    -0.318 N 
ATOM     17  C   UNL     1       5.969  -1.618   6.180  0.00  0.00    +0.128 C 
ATOM     18  H   UNL     1       6.625  -2.045   4.207  0.00  0.00    +0.148 HD
ENDBRANCH  11  14
BRANCH   1  19
ATOM     19  C   UNL     1       4.264  -3.776  -1.492  0.00  0.00    +0.013 C 
BRANCH  19  20
ATOM     20  C   UNL     1       4.087  -2.758  -2.621  0.00  0.00    +0.039 C 
BRANCH  20  22
ATOM     21  C   UNL     1       2.865  -4.007  -4.477  0.00  0.00    +0.092 A 
ATOM     22  C   UNL     1       3.980  -3.482  -3.938  0.00  0.00    -0.008 A 
ATOM     23  C   UNL     1       5.034  -3.740  -4.845  0.00  0.00    +0.045 A 
ATOM     24  C   UNL     1       4.499  -4.407  -5.884  0.00  0.00    +0.195 A 
ATOM     25  O   UNL     1       3.186  -4.571  -5.653  0.00  0.00    -0.469 OA
BRANCH  21  26
ATOM     26  C   UNL     1       1.489  -3.973  -3.862  0.00  0.00    -0.003 C 
BRANCH  26  27
ATOM     27  N   UNL     1       0.738  -2.834  -4.406  0.00  0.00    +0.384 N 
ATOM     28  H   UNL     1       1.254  -1.982  -4.243  0.00  0.00    -0.081 HD
BRANCH  27  30
ATOM     29  C   UNL     1      -0.129  -1.777  -6.438  0.00  0.00    -0.017 C 
ATOM     30  C   UNL     1       0.543  -3.019  -5.850  0.00  0.00    -0.082 C 
ENDBRANCH  27  30
BRANCH  27  31
ATOM     31  C   UNL     1      -0.570  -2.748  -3.742  0.00  0.00    -0.082 C 
ATOM     32  C   UNL     1      -0.369  -2.430  -2.259  0.00  0.00    -0.017 C 
ENDBRANCH  27  31
ENDBRANCH  26  27
ENDBRANCH  21  26
ENDBRANCH  20  22
ENDBRANCH  19  20
ENDBRANCH   1  19
TORSDOF 8
