REMARK  Name = ZINC39631220
REMARK  15 active torsions:
REMARK  status: ('A' for Active; 'I' for Inactive)
REMARK    1  A    between atoms: C_1  and  C_2
REMARK    2  A    between atoms: C_2  and  C_3
REMARK    3  A    between atoms: C_3  and  C_4
REMARK    4  A    between atoms: C_4  and  C_6
REMARK    5  A    between atoms: C_4  and  C_7
REMARK    6  A    between atoms: C_11  and  C_20
REMARK    7  A    between atoms: N_22  and  C_23
REMARK    8  A    between atoms: C_23  and  C_25
REMARK    9  A    between atoms: C_23  and  C_26
REMARK   10  A    between atoms: C_26  and  C_27
REMARK   11  A    between atoms: C_27  and  C_28
REMARK   12  A    between atoms: C_28  and  C_29
REMARK   13  A    between atoms: C_29  and  C_30
REMARK   14  A    between atoms: C_29  and  C_31
REMARK   15  A    between atoms: C_29  and  O_32
REMARK                            x       y       z     vdW  Elec       q    Type
REMARK                         _______ _______ _______ _____ _____    ______ ____
ROOT
ATOM      1  C   UNL     1       1.407  -2.527  -2.657  0.00  0.00    +0.218 C 
ATOM      2  O   UNL     1       1.747  -1.747  -3.521  0.00  0.00    -0.275 OA
ATOM      3  N   UNL     1       1.492  -3.854  -2.875  0.00  0.00    -0.300 N 
ATOM      4  C   UNL     1       1.121  -4.952  -1.952  0.00  0.00    +0.121 C 
ATOM      5  C   UNL     1       0.462  -6.017  -2.857  0.00  0.00    +0.100 C 
ATOM      6  C   UNL     1       1.030  -5.746  -4.260  0.00  0.00    -0.004 C 
ATOM      7  C   UNL     1       1.973  -4.545  -4.095  0.00  0.00    +0.115 C 
ATOM      8  C   UNL     1      -0.097  -5.395  -5.227  0.00  0.00    -0.010 C 
ATOM      9  C   UNL     1       0.487  -5.186  -6.628  0.00  0.00    -0.082 C 
ATOM     10  N   UNL     1       1.170  -6.410  -7.063  0.00  0.00    +0.379 N 
ATOM     11  C   UNL     1       2.309  -6.689  -6.181  0.00  0.00    -0.082 C 
ATOM     12  C   UNL     1       1.803  -6.961  -4.761  0.00  0.00    -0.010 C 
ATOM     13  H   UNL     1       0.524  -7.184  -7.030  0.00  0.00    -0.086 HD
ATOM     14  H   UNL     1       1.500  -6.291  -8.009  0.00  0.00    -0.086 HD
ENDROOT
BRANCH   5  15
ATOM     15  C   UNL     1       0.836  -7.402  -2.395  0.00  0.00    +0.218 C 
ATOM     16  O   UNL     1       1.917  -7.599  -1.883  0.00  0.00    -0.275 OA
ATOM     17  N   UNL     1      -0.032  -8.421  -2.552  0.00  0.00    -0.312 N 
ATOM     18  H   UNL     1      -0.896  -8.264  -2.962  0.00  0.00    +0.149 HD
BRANCH  17  19
ATOM     19  C   UNL     1       0.332  -9.768  -2.104  0.00  0.00    +0.070 C 
ATOM     20  C   UNL     1       0.008  -9.915  -0.616  0.00  0.00    +0.028 C 
BRANCH  19  21
ATOM     21  C   UNL     1      -0.462 -10.803  -2.903  0.00  0.00    +0.022 C 
BRANCH  21  22
ATOM     22  C   UNL     1      -0.046 -10.741  -4.374  0.00  0.00    +0.005 C 
BRANCH  22  23
ATOM     23  C   UNL     1      -0.840 -11.776  -5.173  0.00  0.00    +0.034 C 
BRANCH  23  24
ATOM     24  C   UNL     1      -0.423 -11.713  -6.644  0.00  0.00    +0.061 C 
ATOM     25  C   UNL     1      -1.303 -12.659  -7.464  0.00  0.00    +0.041 C 
ATOM     26  C   UNL     1      -0.592 -10.283  -7.161  0.00  0.00    +0.041 C 
BRANCH  24  27
ATOM     27  O   UNL     1       0.945 -12.107  -6.770  0.00  0.00    -0.389 OA
ATOM     28  H   UNL     1       1.125 -13.005  -6.460  0.00  0.00    +0.210 HD
ENDBRANCH  24  27
ENDBRANCH  23  24
ENDBRANCH  22  23
ENDBRANCH  21  22
ENDBRANCH  19  21
ENDBRANCH  17  19
ENDBRANCH   5  15
BRANCH   1  29
ATOM     29  C   UNL     1       0.888  -2.012  -1.339  0.00  0.00    +0.072 C 
ATOM     30  C   UNL     1       1.784  -2.516  -0.206  0.00  0.00    +0.017 C 
BRANCH  29  31
ATOM     31  C   UNL     1       0.893  -0.482  -1.351  0.00  0.00    +0.012 C 
BRANCH  31  33
ATOM     32  C   UNL     1       0.256   1.571  -0.077  0.00  0.00    +0.004 C 
ATOM     33  C   UNL     1       0.251   0.041  -0.065  0.00  0.00    -0.003 C 
ENDBRANCH  31  33
ENDBRANCH  29  31
ENDBRANCH   1  29
TORSDOF 10
