REMARK  Name = ZINC56089119
REMARK  7 active torsions:
REMARK  status: ('A' for Active; 'I' for Inactive)
REMARK    1  A    between atoms: C_1  and  C_2
REMARK    2  A    between atoms: C_4  and  C_22
REMARK    3  A    between atoms: C_5  and  S_9
REMARK    4  A    between atoms: C_6  and  C_8
REMARK    5  A    between atoms: S_9  and  N_12
REMARK    6  A    between atoms: C_15  and  C_18
REMARK    7  A    between atoms: C_18  and  C_19
REMARK                            x       y       z     vdW  Elec       q    Type
REMARK                         _______ _______ _______ _____ _____    ______ ____
ROOT
ATOM      1  S   UNL     1      -0.986  -4.350   0.049  0.00  0.00    +0.061 S 
ATOM      2  O   UNL     1      -1.741  -4.521   1.240  0.00  0.00    -0.153 OA
ATOM      3  O   UNL     1      -1.538  -4.574  -1.242  0.00  0.00    -0.153 OA
ENDROOT
BRANCH   1   8
ATOM      4  C   UNL     1       1.049   1.329   0.094  0.00  0.00    +0.044 C 
ATOM      5  C   UNL     1       0.541  -0.089   0.083  0.00  0.00    -0.050 A 
ATOM      6  C   UNL     1       0.150  -0.693   1.264  0.00  0.00    +0.008 A 
ATOM      7  C   UNL     1      -0.316  -1.994   1.253  0.00  0.00    -0.024 A 
ATOM      8  C   UNL     1      -0.392  -2.691   0.062  0.00  0.00    +0.111 A 
ATOM      9  C   UNL     1      -0.002  -2.087  -1.119  0.00  0.00    -0.024 A 
ATOM     10  C   UNL     1       0.460  -0.785  -1.109  0.00  0.00    +0.008 A 
ATOM     11  C   UNL     1      -0.085  -2.848  -2.417  0.00  0.00    +0.046 C 
ATOM     12  C   UNL     1      -0.742  -2.652   2.540  0.00  0.00    +0.046 C 
ENDBRANCH   1   8
BRANCH   1  13
ATOM     13  N   UNL     1       0.333  -5.343   0.178  0.00  0.00    -0.177 NA
ATOM     14  C   UNL     1       0.951  -5.927  -1.020  0.00  0.00    +0.110 C 
ATOM     15  C   UNL     1       2.446  -5.594  -1.016  0.00  0.00    +0.021 C 
ATOM     16  C   UNL     1       3.066  -6.063   0.303  0.00  0.00    +0.000 C 
ATOM     17  C   UNL     1       2.403  -5.327   1.470  0.00  0.00    +0.021 C 
ATOM     18  C   UNL     1       0.911  -5.652   1.493  0.00  0.00    +0.110 C 
BRANCH  16  19
ATOM     19  C   UNL     1       4.566  -5.763   0.297  0.00  0.00    +0.099 C 
BRANCH  19  20
ATOM     20  C   UNL     1       5.197  -6.335   1.540  0.00  0.00    +0.211 C 
ATOM     21  O   UNL     1       4.515  -6.923   2.351  0.00  0.00    -0.276 OA
ATOM     22  N   UNL     1       6.521  -6.191   1.750  0.00  0.00    -0.329 N 
ATOM     23  H   UNL     1       7.067  -5.720   1.102  0.00  0.00    +0.145 HD
ATOM     24  H   UNL     1       6.927  -6.558   2.551  0.00  0.00    +0.145 HD
ENDBRANCH  19  20
ENDBRANCH  16  19
ENDBRANCH   1  13
TORSDOF 4
