REMARK  Name = ZINC08912403
REMARK  8 active torsions:
REMARK  status: ('A' for Active; 'I' for Inactive)
REMARK    1  A    between atoms: C_1  and  C_2
REMARK    2  A    between atoms: C_2  and  S_3
REMARK    3  A    between atoms: S_3  and  C_6
REMARK    4  A    between atoms: C_8  and  S_19
REMARK    5  A    between atoms: C_9  and  N_11
REMARK    6  A    between atoms: N_11  and  C_12
REMARK    7  A    between atoms: S_19  and  C_22
REMARK    8  A    between atoms: C_25  and  C_28
REMARK                            x       y       z     vdW  Elec       q    Type
REMARK                         _______ _______ _______ _____ _____    ______ ____
ROOT
ATOM      1  C   UNL     1      -0.822   3.869   1.390  0.00  0.00    +0.219 A 
ATOM      2  N   UNL     1      -1.687   4.691   0.837  0.00  0.00    -0.201 NA
ATOM      3  C   UNL     1      -1.499   5.994   0.841  0.00  0.00    +0.212 A 
ATOM      4  C   UNL     1      -0.383   6.511   1.432  0.00  0.00    +0.113 A 
ATOM      5  S   UNL     1       0.407   5.012   2.005  0.00  0.00    -0.032 S 
ENDROOT
BRANCH   1   6
ATOM      6  S   UNL     1      -0.868   2.111   1.503  0.00  0.00    +0.020 S 
ATOM      7  O   UNL     1      -2.248   1.779   1.442  0.00  0.00    -0.167 OA
ATOM      8  O   UNL     1      -0.098   1.802   2.657  0.00  0.00    -0.167 OA
BRANCH   6  10
ATOM      9  C   UNL     1       0.002  -0.004   0.002  0.00  0.00    +0.028 C 
ATOM     10  C   UNL     1      -0.019   1.526   0.010  0.00  0.00    +0.171 C 
ENDBRANCH   6  10
ENDBRANCH   1   6
BRANCH   3  11
ATOM     11  S   UNL     1      -2.680   7.063   0.088  0.00  0.00    +0.044 S 
ATOM     12  O   UNL     1      -1.989   8.258  -0.249  0.00  0.00    -0.163 OA
ATOM     13  O   UNL     1      -3.373   6.285  -0.878  0.00  0.00    -0.163 OA
BRANCH  11  14
ATOM     14  C   UNL     1      -3.856   7.494   1.327  0.00  0.00    +0.095 A 
ATOM     15  C   UNL     1      -4.986   6.718   1.506  0.00  0.00    +0.028 A 
ATOM     16  C   UNL     1      -5.908   7.054   2.481  0.00  0.00    +0.005 A 
ATOM     17  C   UNL     1      -5.703   8.171   3.270  0.00  0.00    -0.050 A 
ATOM     18  C   UNL     1      -4.576   8.949   3.086  0.00  0.00    +0.005 A 
ATOM     19  C   UNL     1      -3.652   8.611   2.115  0.00  0.00    +0.028 A 
ATOM     20  C   UNL     1      -6.709   8.539   4.330  0.00  0.00    +0.044 C 
ENDBRANCH  11  14
ENDBRANCH   3  11
BRANCH   4  21
ATOM     21  N   UNL     1       0.026   7.840   1.560  0.00  0.00    -0.333 N 
ATOM     22  H   UNL     1      -0.521   8.553   1.194  0.00  0.00    +0.147 HD
BRANCH  21  23
ATOM     23  C   UNL     1       1.281   8.159   2.245  0.00  0.00    +0.071 C 
ATOM     24  C   UNL     1       1.030   8.170   3.767  0.00  0.00    +0.022 C 
ATOM     25  C   UNL     1       2.347   7.985   4.470  0.00  0.00    +0.002 C 
ATOM     26  C   UNL     1       3.002   9.324   4.857  0.00  0.00    +0.000 C 
ATOM     27  C   UNL     1       2.886  10.388   3.749  0.00  0.00    +0.000 C 
ATOM     28  C   UNL     1       3.133   9.820   2.377  0.00  0.00    +0.002 C 
ATOM     29  C   UNL     1       1.775   9.437   1.755  0.00  0.00    +0.022 C 
ENDBRANCH  21  23
ENDBRANCH   4  21
TORSDOF 6
