REMARK  Name = ZINC39711183
REMARK  12 active torsions:
REMARK  status: ('A' for Active; 'I' for Inactive)
REMARK    1  A    between atoms: C_1  and  C_2
REMARK    2  A    between atoms: C_5  and  C_40
REMARK    3  A    between atoms: C_6  and  N_8
REMARK    4  A    between atoms: N_11  and  C_14
REMARK    5  A    between atoms: C_14  and  C_16
REMARK    6  A    between atoms: C_14  and  C_30
REMARK    7  A    between atoms: C_21  and  C_29
REMARK    8  A    between atoms: C_22  and  C_28
REMARK    9  A    between atoms: N_35  and  C_36
REMARK   10  A    between atoms: C_36  and  C_37
REMARK   11  A    between atoms: C_36  and  C_38
REMARK   12  A    between atoms: C_36  and  C_39
REMARK                            x       y       z     vdW  Elec       q    Type
REMARK                         _______ _______ _______ _____ _____    ______ ____
ROOT
ATOM      1  C   UNL     1       0.170  -3.653   6.420  0.00  0.00    -0.009 C 
ENDROOT
BRANCH   1   2
ATOM      2  C   UNL     1      -1.148  -4.036   7.096  0.00  0.00    +0.088 C 
ATOM      3  C   UNL     1      -1.297  -3.185   8.342  0.00  0.00    -0.006 C 
ATOM      4  C   UNL     1      -1.430  -3.837   9.532  0.00  0.00    -0.007 A 
ATOM      5  C   UNL     1      -1.578  -3.094  10.783  0.00  0.00    +0.013 A 
ATOM      6  C   UNL     1      -1.706  -3.785  11.945  0.00  0.00    -0.047 A 
ATOM      7  C   UNL     1      -1.700  -5.180  11.964  0.00  0.00    -0.046 A 
ATOM      8  C   UNL     1      -1.566  -5.928  10.838  0.00  0.00    +0.027 A 
ATOM      9  C   UNL     1      -1.426  -5.310   9.582  0.00  0.00    +0.041 A 
ATOM     10  N   UNL     1      -1.296  -6.054   8.483  0.00  0.00    -0.285 N 
ATOM     11  C   UNL     1      -1.159  -5.537   7.274  0.00  0.00    +0.223 C 
ATOM     12  O   UNL     1      -1.044  -6.268   6.309  0.00  0.00    -0.275 OA
ATOM     13  C   UNL     1      -1.848  -5.886  13.287  0.00  0.00    +0.044 C 
ATOM     14  C   UNL     1      -1.859  -3.030  13.240  0.00  0.00    +0.044 C 
ATOM     15  H   UNL     1      -1.302  -7.019   8.576  0.00  0.00    +0.155 HD
ENDBRANCH   1   2
BRANCH   1  19
ATOM     16  N   UNL     1       0.411  -4.524   2.335  0.00  0.00    -0.333 N 
ATOM     17  C   UNL     1       1.646  -4.665   3.122  0.00  0.00    +0.086 C 
ATOM     18  C   UNL     1       1.483  -3.879   4.427  0.00  0.00    -0.059 C 
ATOM     19  N   UNL     1       0.268  -4.327   5.119  0.00  0.00    +0.387 N 
ATOM     20  C   UNL     1      -0.916  -4.004   4.312  0.00  0.00    -0.059 C 
ATOM     21  C   UNL     1      -0.872  -4.791   3.003  0.00  0.00    +0.086 C 
ATOM     22  H   UNL     1       0.312  -5.325   5.263  0.00  0.00    -0.081 HD
BRANCH  16  28
ATOM     23  C   UNL     1       0.400  -0.960  -1.049  0.00  0.00    +0.044 C 
ATOM     24  C   UNL     1       0.452  -2.419  -0.677  0.00  0.00    -0.049 A 
ATOM     25  C   UNL     1       0.544  -3.381  -1.667  0.00  0.00    +0.004 A 
ATOM     26  C   UNL     1       0.592  -4.721  -1.330  0.00  0.00    +0.005 A 
ATOM     27  C   UNL     1       0.548  -5.104  -0.004  0.00  0.00    -0.029 A 
ATOM     28  C   UNL     1       0.456  -4.140   0.992  0.00  0.00    +0.033 A 
ATOM     29  C   UNL     1       0.413  -2.794   0.651  0.00  0.00    +0.026 A 
ATOM     30  C   UNL     1       0.600  -6.565   0.362  0.00  0.00    +0.045 C 
ENDBRANCH  16  28
ENDBRANCH   1  19
BRANCH   1  31
ATOM     31  C   UNL     1       1.341  -4.083   7.307  0.00  0.00    +0.205 C 
ATOM     32  N   UNL     1       1.275  -5.525   7.579  0.00  0.00    -0.152 NA
ATOM     33  N   UNL     1       1.161  -5.697   8.794  0.00  0.00    -0.070 NA
ATOM     34  N   UNL     1       1.131  -4.501   9.511  0.00  0.00    -0.179 N 
ATOM     35  N   UNL     1       1.241  -3.447   8.637  0.00  0.00    -0.183 NA
ATOM     36  H   UNL     1       1.046  -4.425  10.474  0.00  0.00    +0.191 HD
BRANCH  35  37
ATOM     37  C   UNL     1       2.436  -2.643   8.927  0.00  0.00    +0.035 C 
ATOM     38  C   UNL     1       2.582  -1.547   7.869  0.00  0.00    +0.029 C 
ATOM     39  C   UNL     1       2.296  -2.002  10.309  0.00  0.00    +0.029 C 
ATOM     40  C   UNL     1       3.674  -3.542   8.904  0.00  0.00    +0.029 C 
ENDBRANCH  35  37
ENDBRANCH   1  31
TORSDOF 5
