REMARK  Name = ZINC08993812
REMARK  13 active torsions:
REMARK  status: ('A' for Active; 'I' for Inactive)
REMARK    1  A    between atoms: C_1  and  C_2
REMARK    2  A    between atoms: C_2  and  C_4
REMARK    3  A    between atoms: C_2  and  N_10
REMARK    4  A    between atoms: C_11  and  C_13
REMARK    5  A    between atoms: C_13  and  N_60
REMARK    6  A    between atoms: C_14  and  C_15
REMARK    7  A    between atoms: C_14  and  N_60
REMARK    8  A    between atoms: N_17  and  C_18
REMARK    9  A    between atoms: C_19  and  C_20
REMARK   10  A    between atoms: C_19  and  N_60
REMARK   11  A    between atoms: N_22  and  C_23
REMARK   12  A    between atoms: C_23  and  C_25
REMARK   13  A    between atoms: C_23  and  C_26
REMARK                            x       y       z     vdW  Elec       q    Type
REMARK                         _______ _______ _______ _____ _____    ______ ____
ROOT
ATOM      1  N   UNL     1       2.807   7.127   2.858  0.00  0.00    +0.397 N 
ATOM      2  H   UNL     1       1.913   7.166   3.361  0.00  0.00    -0.080 HD
ENDROOT
BRANCH   1   3
ATOM      3  C   UNL     1       3.031   5.745   2.384  0.00  0.00    +0.020 C 
BRANCH   3   5
ATOM      4  N   UNL     1       1.764   4.042   1.113  0.00  0.00    -0.310 N 
ATOM      5  C   UNL     1       1.808   5.285   1.632  0.00  0.00    +0.197 C 
ATOM      6  O   UNL     1       0.864   6.034   1.493  0.00  0.00    -0.278 OA
ATOM      7  H   UNL     1       2.519   3.443   1.224  0.00  0.00    +0.149 HD
BRANCH   4   9
ATOM      8  C   UNL     1       0.677   4.041  -1.077  0.00  0.00    +0.033 C 
ATOM      9  C   UNL     1       0.576   3.595   0.382  0.00  0.00    +0.100 C 
BRANCH   9  10
ATOM     10  C   UNL     1       0.485   2.092   0.443  0.00  0.00    -0.027 A 
ATOM     11  C   UNL     1      -0.743   1.480   0.618  0.00  0.00    +0.005 A 
ATOM     12  C   UNL     1      -0.826   0.101   0.672  0.00  0.00    +0.000 A 
ATOM     13  C   UNL     1       0.318  -0.666   0.552  0.00  0.00    +0.000 A 
ATOM     14  C   UNL     1       1.545  -0.054   0.378  0.00  0.00    +0.000 A 
ATOM     15  C   UNL     1       1.629   1.325   0.323  0.00  0.00    +0.005 A 
ENDBRANCH   9  10
ENDBRANCH   4   9
ENDBRANCH   3   5
ENDBRANCH   1   3
BRANCH   1  16
ATOM     16  C   UNL     1       2.751   8.053   1.708  0.00  0.00    +0.020 C 
BRANCH  16  17
ATOM     17  C   UNL     1       2.158   9.360   2.167  0.00  0.00    +0.196 C 
ATOM     18  O   UNL     1       1.738   9.471   3.299  0.00  0.00    -0.278 OA
ATOM     19  N   UNL     1       2.095  10.406   1.319  0.00  0.00    -0.320 N 
ATOM     20  C   UNL     1       1.518  11.677   1.766  0.00  0.00    +0.128 C 
ATOM     21  H   UNL     1       2.431  10.318   0.414  0.00  0.00    +0.148 HD
ENDBRANCH  16  17
ENDBRANCH   1  16
BRANCH   1  22
ATOM     22  C   UNL     1       3.893   7.528   3.777  0.00  0.00    +0.020 C 
BRANCH  22  23
ATOM     23  C   UNL     1       3.652   6.884   5.118  0.00  0.00    +0.197 C 
ATOM     24  O   UNL     1       2.711   6.136   5.272  0.00  0.00    -0.278 OA
ATOM     25  N   UNL     1       4.484   7.141   6.147  0.00  0.00    -0.310 N 
ATOM     26  H   UNL     1       5.237   7.739   6.025  0.00  0.00    +0.149 HD
BRANCH  25  27
ATOM     27  C   UNL     1       4.250   6.515   7.451  0.00  0.00    +0.100 C 
ATOM     28  C   UNL     1       4.890   5.125   7.472  0.00  0.00    +0.033 C 
BRANCH  27  29
ATOM     29  C   UNL     1       4.863   7.366   8.534  0.00  0.00    -0.027 A 
ATOM     30  C   UNL     1       6.094   7.962   8.331  0.00  0.00    +0.005 A 
ATOM     31  C   UNL     1       6.654   8.746   9.322  0.00  0.00    +0.000 A 
ATOM     32  C   UNL     1       5.987   8.927  10.520  0.00  0.00    +0.000 A 
ATOM     33  C   UNL     1       4.758   8.328  10.724  0.00  0.00    +0.000 A 
ATOM     34  C   UNL     1       4.196   7.547   9.731  0.00  0.00    +0.005 A 
ENDBRANCH  27  29
ENDBRANCH  25  27
ENDBRANCH  22  23
ENDBRANCH   1  22
TORSDOF 10
