REMARK  Name = ZINC23254200
REMARK  9 active torsions:
REMARK  status: ('A' for Active; 'I' for Inactive)
REMARK    1  A    between atoms: C_1  and  C_2
REMARK    2  A    between atoms: C_2  and  C_3
REMARK    3  A    between atoms: C_3  and  C_4
REMARK    4  A    between atoms: C_4  and  C_5
REMARK    5  A    between atoms: C_5  and  C_28
REMARK    6  A    between atoms: N_8  and  C_12
REMARK    7  A    between atoms: C_12  and  N_13
REMARK    8  A    between atoms: N_16  and  C_19
REMARK    9  A    between atoms: C_19  and  C_20
REMARK                            x       y       z     vdW  Elec       q    Type
REMARK                         _______ _______ _______ _____ _____    ______ ____
ROOT
ATOM      1  C   UNL     1       1.936   4.372  -0.397  0.00  0.00    +0.138 C 
ATOM      2  C   UNL     1       2.625   4.406  -1.746  0.00  0.00    +0.252 C 
ATOM      3  O   UNL     1       2.192   4.874  -2.778  0.00  0.00    -0.272 OA
ATOM      4  N   UNL     1       3.819   3.809  -1.561  0.00  0.00    -0.210 N 
ATOM      5  C   UNL     1       3.978   3.406  -0.295  0.00  0.00    +0.311 C 
ATOM      6  O   UNL     1       4.974   2.842   0.114  0.00  0.00    -0.252 OA
ATOM      7  N   UNL     1       2.912   3.698   0.477  0.00  0.00    -0.281 N 
ATOM      8  H   UNL     1       2.677   3.533   1.539  0.00  0.00    +0.152 HD
ENDROOT
BRANCH   1   9
ATOM      9  C   UNL     1       0.657   3.579  -0.474  0.00  0.00    -0.015 A 
ATOM     10  C   UNL     1       0.681   2.209  -0.285  0.00  0.00    +0.009 A 
ATOM     11  C   UNL     1      -0.491   1.480  -0.357  0.00  0.00    +0.039 A 
ATOM     12  C   UNL     1      -1.689   2.122  -0.623  0.00  0.00    +0.123 A 
ATOM     13  C   UNL     1      -1.713   3.494  -0.806  0.00  0.00    +0.039 A 
ATOM     14  C   UNL     1      -0.539   4.221  -0.734  0.00  0.00    +0.009 A 
ATOM     15  F   UNL     1      -2.834   1.410  -0.698  0.00  0.00    -0.205 F 
ENDBRANCH   1   9
BRANCH   1  16
ATOM     16  C   UNL     1       1.658   5.792   0.102  0.00  0.00    +0.040 C 
BRANCH  16  17
ATOM     17  C   UNL     1       2.970   6.574   0.171  0.00  0.00    +0.003 C 
BRANCH  17  19
ATOM     18  C   UNL     1       4.005   8.777   0.738  0.00  0.00    +0.004 C 
ATOM     19  C   UNL     1       2.692   7.994   0.669  0.00  0.00    -0.003 C 
ENDBRANCH  17  19
ENDBRANCH  16  17
ENDBRANCH   1  16
BRANCH   4  20
ATOM     20  C   UNL     1       4.819   3.624  -2.615  0.00  0.00    +0.205 C 
BRANCH  20  21
ATOM     21  N   UNL     1       5.716   4.786  -2.649  0.00  0.00    -0.290 NA
ATOM     22  C   UNL     1       5.108   5.900  -3.390  0.00  0.00    +0.067 C 
ATOM     23  C   UNL     1       6.038   7.114  -3.334  0.00  0.00    -0.063 C 
ATOM     24  N   UNL     1       7.343   6.756  -3.905  0.00  0.00    +0.387 N 
ATOM     25  C   UNL     1       7.951   5.642  -3.164  0.00  0.00    -0.063 C 
ATOM     26  C   UNL     1       7.022   4.428  -3.220  0.00  0.00    +0.067 C 
ATOM     27  H   UNL     1       7.181   6.426  -4.942  0.00  0.00    -0.081 HD
BRANCH  24  28
ATOM     28  C   UNL     1       8.241   7.919  -3.938  0.00  0.00    +0.019 C 
BRANCH  28  29
ATOM     29  C   UNL     1       9.466   7.584  -4.749  0.00  0.00    +0.199 C 
ATOM     30  O   UNL     1       9.531   6.528  -5.342  0.00  0.00    -0.278 OA
ATOM     31  N   UNL     1      10.490   8.458  -4.814  0.00  0.00    -0.303 N 
ATOM     32  C   UNL     1      10.423   9.743  -4.106  0.00  0.00    +0.107 C 
ATOM     33  C   UNL     1      11.671   9.878  -3.219  0.00  0.00    +0.019 C 
ATOM     34  C   UNL     1      12.923   9.700  -4.081  0.00  0.00    +0.003 C 
ATOM     35  C   UNL     1      12.923   8.301  -4.702  0.00  0.00    +0.019 C 
ATOM     36  C   UNL     1      11.692   8.146  -5.600  0.00  0.00    +0.107 C 
ENDBRANCH  28  29
ENDBRANCH  24  28
ENDBRANCH  20  21
ENDBRANCH   4  20
TORSDOF 8
