REMARK  Name = ZINC15902275
REMARK  6 active torsions:
REMARK  status: ('A' for Active; 'I' for Inactive)
REMARK    1  A    between atoms: C_8  and  C_11
REMARK    2  A    between atoms: C_11  and  C_12
REMARK    3  A    between atoms: N_14  and  N_15
REMARK    4  A    between atoms: C_16  and  C_18
REMARK    5  A    between atoms: C_18  and  C_19
REMARK    6  A    between atoms: C_19  and  C_20
REMARK                            x       y       z     vdW  Elec       q    Type
REMARK                         _______ _______ _______ _____ _____    ______ ____
ROOT
ATOM      1  C   UNL     1       4.284   0.060  -2.537  0.00  0.00    +0.230 C 
ATOM      2  O   UNL     1       4.679   0.758  -1.627  0.00  0.00    -0.274 OA
ATOM      3  N   UNL     1       5.108  -0.248  -3.558  0.00  0.00    -0.234 N 
ATOM      4  H   UNL     1       4.792  -0.807  -4.285  0.00  0.00    +0.173 HD
ENDROOT
BRANCH   3   5
ATOM      5  N   UNL     1       6.422   0.236  -3.567  0.00  0.00    -0.234 N 
ATOM      6  C   UNL     1       7.247  -0.072  -4.588  0.00  0.00    +0.229 C 
ATOM      7  O   UNL     1       6.851  -0.770  -5.498  0.00  0.00    -0.274 OA
ATOM      8  H   UNL     1       6.739   0.794  -2.840  0.00  0.00    +0.173 HD
BRANCH   6   9
ATOM      9  C   UNL     1       8.661   0.449  -4.599  0.00  0.00    +0.099 C 
BRANCH   9  10
ATOM     10  C   UNL     1       9.377  -0.044  -5.857  0.00  0.00    +0.041 C 
BRANCH  10  11
ATOM     11  C   UNL     1      10.812   0.485  -5.868  0.00  0.00    +0.161 C 
ATOM     12  C   UNL     1      11.540   0.028  -7.117  0.00  0.00    +0.241 C 
ATOM     13  O   UNL     1      11.773  -1.114  -7.452  0.00  0.00    -0.273 OA
ATOM     14  N   UNL     1      11.874   1.154  -7.777  0.00  0.00    -0.239 N 
ATOM     15  C   UNL     1      11.463   2.248  -7.126  0.00  0.00    +0.307 C 
ATOM     16  O   UNL     1      11.649   3.381  -7.525  0.00  0.00    -0.252 OA
ATOM     17  N   UNL     1      10.822   1.954  -5.981  0.00  0.00    -0.288 N 
ATOM     18  H   UNL     1      12.354   1.169  -8.620  0.00  0.00    +0.159 HD
ATOM     19  H   UNL     1      10.440   2.586  -5.352  0.00  0.00    +0.151 HD
ENDBRANCH  10  11
ENDBRANCH   9  10
ENDBRANCH   6   9
ENDBRANCH   3   5
BRANCH   1  20
ATOM     20  C   UNL     1       2.870  -0.461  -2.526  0.00  0.00    +0.104 C 
BRANCH  20  28
ATOM     21  C   UNL     1      -0.019   1.526   0.010  0.00  0.00    +0.007 C 
ATOM     22  C   UNL     1       1.417   2.055  -0.000  0.00  0.00    -0.010 C 
ATOM     23  C   UNL     1       2.157   1.548   1.239  0.00  0.00    +0.007 C 
ATOM     24  C   UNL     1       2.178   0.019   1.231  0.00  0.00    -0.010 C 
ATOM     25  C   UNL     1       0.742  -0.511   1.242  0.00  0.00    +0.007 C 
ATOM     26  C   UNL     1       0.002  -0.004   0.002  0.00  0.00    -0.010 C 
ATOM     27  C   UNL     1       0.718  -0.497  -1.257  0.00  0.00    +0.011 C 
ATOM     28  C   UNL     1       2.154   0.032  -1.268  0.00  0.00    -0.020 C 
ATOM     29  C   UNL     1       2.133   1.562  -1.259  0.00  0.00    +0.011 C 
ATOM     30  C   UNL     1       2.894  -0.475  -0.028  0.00  0.00    +0.011 C 
ENDBRANCH  20  28
ENDBRANCH   1  20
TORSDOF 6
