REMARK  Name = ZINC27391292
REMARK  12 active torsions:
REMARK  status: ('A' for Active; 'I' for Inactive)
REMARK    1  A    between atoms: C_1  and  C_2
REMARK    2  A    between atoms: C_2  and  C_4
REMARK    3  A    between atoms: C_7  and  S_10
REMARK    4  A    between atoms: S_10  and  N_13
REMARK    5  A    between atoms: N_13  and  C_14
REMARK    6  A    between atoms: C_14  and  C_15
REMARK    7  A    between atoms: C_18  and  C_21
REMARK    8  A    between atoms: N_23  and  C_24
REMARK    9  A    between atoms: C_24  and  C_25
REMARK   10  A    between atoms: C_25  and  N_31
REMARK   11  A    between atoms: N_31  and  C_32
REMARK   12  A    between atoms: N_31  and  C_33
REMARK                            x       y       z     vdW  Elec       q    Type
REMARK                         _______ _______ _______ _____ _____    ______ ____
ROOT
ATOM      1  C   UNL     1       0.817   1.822  -0.203  0.00  0.00    -0.032 A 
ATOM      2  C   UNL     1      -0.291   0.995  -0.256  0.00  0.00    +0.006 A 
ATOM      3  C   UNL     1      -0.132  -0.373  -0.327  0.00  0.00    +0.013 A 
ATOM      4  C   UNL     1       1.151  -0.923  -0.345  0.00  0.00    +0.037 A 
ATOM      5  C   UNL     1       2.264  -0.084  -0.291  0.00  0.00    +0.013 A 
ATOM      6  C   UNL     1       2.091   1.283  -0.220  0.00  0.00    +0.006 A 
ENDROOT
BRANCH   4   7
ATOM      7  C   UNL     1       1.329  -2.389  -0.421  0.00  0.00    +0.244 C 
ATOM      8  O   UNL     1       0.357  -3.118  -0.468  0.00  0.00    -0.270 OA
ATOM      9  N   UNL     1       2.569  -2.917  -0.438  0.00  0.00    -0.313 N 
ATOM     10  H   UNL     1       3.448  -2.258  -0.396  0.00  0.00    +0.149 HD
BRANCH   9  11
ATOM     11  C   UNL     1       2.745  -4.370  -0.513  0.00  0.00    +0.092 C 
BRANCH  11  12
ATOM     12  C   UNL     1       4.228  -4.712  -0.355  0.00  0.00    -0.050 C 
ATOM     13  C   UNL     1       5.046  -3.920  -1.377  0.00  0.00    -0.010 C 
ATOM     14  C   UNL     1       4.587  -4.283  -2.790  0.00  0.00    -0.001 C 
ATOM     15  C   UNL     1       4.792  -5.781  -3.023  0.00  0.00    -0.000 C 
ATOM     16  C   UNL     1       3.974  -6.574  -2.002  0.00  0.00    -0.001 C 
ATOM     17  C   UNL     1       4.433  -6.210  -0.588  0.00  0.00    -0.010 C 
BRANCH  12  18
ATOM     18  N   UNL     1       4.669  -4.363   1.002  0.00  0.00    +0.381 N 
ATOM     19  C   UNL     1       4.575  -2.914   1.230  0.00  0.00    -0.096 C 
ATOM     20  C   UNL     1       3.903  -5.105   2.012  0.00  0.00    -0.096 C 
ATOM     21  H   UNL     1       5.726  -4.652   1.099  0.00  0.00    -0.082 HD
ENDBRANCH  12  18
ENDBRANCH  11  12
ENDBRANCH   9  11
ENDBRANCH   4   7
BRANCH   1  22
ATOM     22  C   UNL     1       0.635   3.316  -0.125  0.00  0.00    +0.141 C 
BRANCH  22  23
ATOM     23  N   UNL     1       0.564   3.728   1.279  0.00  0.00    -0.186 NA
ATOM     24  H   UNL     1       0.233   3.012   2.046  0.00  0.00    +0.148 HD
BRANCH  23  25
ATOM     25  S   UNL     1       0.739   5.324   1.684  0.00  0.00    +0.059 S 
ATOM     26  O   UNL     1       0.595   5.402   3.096  0.00  0.00    -0.153 OA
ATOM     27  O   UNL     1       1.899   5.789   1.009  0.00  0.00    -0.153 OA
BRANCH  25  31
ATOM     28  C   UNL     1      -2.780   7.553  -0.102  0.00  0.00    +0.017 A 
ATOM     29  C   UNL     1      -2.867   7.019   1.188  0.00  0.00    +0.013 A 
ATOM     30  C   UNL     1      -1.792   6.342   1.724  0.00  0.00    +0.029 A 
ATOM     31  C   UNL     1      -0.629   6.190   0.990  0.00  0.00    +0.105 A 
ATOM     32  C   UNL     1      -0.533   6.720  -0.285  0.00  0.00    +0.029 A 
ATOM     33  C   UNL     1      -1.601   7.396  -0.838  0.00  0.00    +0.013 A 
BRANCH  28  35
ATOM     34  C   UNL     1      -3.824   8.850  -2.072  0.00  0.00    +0.091 C 
ATOM     35  C   UNL     1      -3.922   8.277  -0.682  0.00  0.00    +0.160 C 
ATOM     36  O   UNL     1      -4.943   8.411  -0.042  0.00  0.00    -0.292 OA
ENDBRANCH  28  35
ENDBRANCH  25  31
ENDBRANCH  23  25
ENDBRANCH  22  23
ENDBRANCH   1  22
TORSDOF 9
