REMARK  Name = ZINC40118707
REMARK  7 active torsions:
REMARK  status: ('A' for Active; 'I' for Inactive)
REMARK    1  A    between atoms: C_1  and  O_2
REMARK    2  A    between atoms: O_2  and  C_3
REMARK    3  A    between atoms: C_6  and  C_9
REMARK    4  A    between atoms: C_9  and  C_10
REMARK    5  A    between atoms: N_12  and  C_16
REMARK    6  A    between atoms: C_16  and  N_17
REMARK    7  A    between atoms: C_21  and  C_23
REMARK                            x       y       z     vdW  Elec       q    Type
REMARK                         _______ _______ _______ _____ _____    ______ ____
ROOT
ATOM      1  C   UNL     1       6.937  -2.569  -2.053  0.00  0.00    +0.235 C 
ENDROOT
BRANCH   1   4
ATOM      2  C   UNL     1       3.963  -2.719  -4.071  0.00  0.00    +0.221 A 
ATOM      3  N   UNL     1       4.550  -2.389  -2.968  0.00  0.00    -0.133 NA
ATOM      4  N   UNL     1       5.900  -2.756  -3.071  0.00  0.00    -0.209 N 
ATOM      5  C   UNL     1       6.059  -3.315  -4.290  0.00  0.00    +0.268 A 
ATOM      6  S   UNL     1       7.514  -3.942  -4.938  0.00  0.00    +0.011 S 
ATOM      7  O   UNL     1       4.860  -3.293  -4.898  0.00  0.00    -0.416 OA
BRANCH   2   8
ATOM      8  C   UNL     1       2.505  -2.503  -4.381  0.00  0.00    +0.132 C 
BRANCH   8  12
ATOM      9  C   UNL     1       0.606  -0.607  -1.056  0.00  0.00    +0.120 A 
ATOM     10  C   UNL     1       1.173   0.161  -2.062  0.00  0.00    +0.046 A 
ATOM     11  C   UNL     1       1.786  -0.455  -3.136  0.00  0.00    +0.007 A 
ATOM     12  C   UNL     1       1.835  -1.835  -3.209  0.00  0.00    -0.038 A 
ATOM     13  C   UNL     1       1.270  -2.602  -2.207  0.00  0.00    +0.007 A 
ATOM     14  C   UNL     1       0.661  -1.992  -1.128  0.00  0.00    +0.046 A 
BRANCH   9  16
ATOM     15  C   UNL     1      -0.017   1.425   0.010  0.00  0.00    +0.277 C 
ATOM     16  O   UNL     1       0.002  -0.004   0.002  0.00  0.00    -0.495 OA
ENDBRANCH   9  16
ENDBRANCH   8  12
ENDBRANCH   2   8
ENDBRANCH   1   4
BRANCH   1  17
ATOM     17  N   UNL     1       6.755  -3.557  -0.982  0.00  0.00    -0.274 NA
ATOM     18  C   UNL     1       5.764  -3.090   0.005  0.00  0.00    +0.087 C 
ATOM     19  C   UNL     1       6.457  -3.088   1.384  0.00  0.00    +0.017 C 
ATOM     20  C   UNL     1       7.624  -4.092   1.189  0.00  0.00    +0.028 C 
ATOM     21  C   UNL     1       8.030  -3.820  -0.281  0.00  0.00    +0.126 C 
BRANCH  21  22
ATOM     22  C   UNL     1       8.713  -5.027  -0.869  0.00  0.00    +0.151 A 
ATOM     23  N   UNL     1       8.148  -6.165  -1.176  0.00  0.00    -0.133 NA
ATOM     24  N   UNL     1       9.029  -6.969  -1.663  0.00  0.00    -0.134 NA
ATOM     25  C   UNL     1      10.190  -6.378  -1.691  0.00  0.00    +0.133 A 
ATOM     26  N   UNL     1      10.023  -5.135  -1.183  0.00  0.00    -0.314 N 
ATOM     27  C   UNL     1      11.063  -4.123  -0.997  0.00  0.00    +0.125 C 
ATOM     28  C   UNL     1      12.168  -4.333  -2.036  0.00  0.00    +0.022 C 
ATOM     29  C   UNL     1      13.219  -5.295  -1.484  0.00  0.00    +0.002 C 
ATOM     30  C   UNL     1      12.595  -6.656  -1.189  0.00  0.00    +0.008 C 
ATOM     31  C   UNL     1      11.489  -6.947  -2.200  0.00  0.00    +0.076 C 
ENDBRANCH  21  22
ENDBRANCH   1  17
TORSDOF 6
