REMARK  Name = ZINC05642271
REMARK  6 active torsions:
REMARK  status: ('A' for Active; 'I' for Inactive)
REMARK    1  A    between atoms: C_3  and  N_12
REMARK    2  A    between atoms: C_4  and  C_8
REMARK    3  A    between atoms: C_13  and  C_15
REMARK    4  A    between atoms: C_15  and  S_16
REMARK    5  A    between atoms: S_16  and  C_17
REMARK    6  A    between atoms: C_23  and  N_25
REMARK                            x       y       z     vdW  Elec       q    Type
REMARK                         _______ _______ _______ _____ _____    ______ ____
ROOT
ATOM      1  N   UNL     1      -1.238   2.069   0.019  0.00  0.00    -0.284 N 
ATOM      2  C   UNL     1      -2.395   1.385  -0.081  0.00  0.00    +0.227 C 
ATOM      3  O   UNL     1      -2.383   0.172  -0.088  0.00  0.00    -0.275 OA
ATOM      4  H   UNL     1      -1.253   3.164   0.117  0.00  0.00    +0.155 HD
ENDROOT
BRANCH   1   7
ATOM      5  C   UNL     1       1.283  -0.526  -0.641  0.00  0.00    +0.022 A 
ATOM      6  C   UNL     1       0.076   0.144  -0.617  0.00  0.00    +0.025 A 
ATOM      7  C   UNL     1      -0.016   1.385  -0.001  0.00  0.00    +0.045 A 
ATOM      8  C   UNL     1       1.107   1.950   0.589  0.00  0.00    +0.077 A 
ATOM      9  C   UNL     1       2.312   1.276   0.562  0.00  0.00    +0.034 A 
ATOM     10  C   UNL     1       2.401   0.039  -0.052  0.00  0.00    +0.042 A 
ATOM     11 CL   UNL     1       3.917  -0.805  -0.085  0.00  0.00    -0.084 Cl
BRANCH   8  12
ATOM     12  C   UNL     1       1.011   3.297   1.257  0.00  0.00    +0.419 C 
ATOM     13  F   UNL     1       2.262   3.652   1.773  0.00  0.00    -0.166 F 
ATOM     14  F   UNL     1       0.604   4.254   0.321  0.00  0.00    -0.166 F 
ATOM     15  F   UNL     1       0.077   3.236   2.298  0.00  0.00    -0.166 F 
ENDBRANCH   8  12
ENDBRANCH   1   7
BRANCH   2  16
ATOM     16  C   UNL     1      -3.702   2.127  -0.184  0.00  0.00    +0.173 C 
BRANCH  16  17
ATOM     17  S   UNL     1      -5.062   0.939  -0.304  0.00  0.00    -0.078 S 
BRANCH  17  18
ATOM     18  C   UNL     1      -6.428   2.046  -0.410  0.00  0.00    +0.171 A 
ATOM     19  N   UNL     1      -7.689   1.543  -0.517  0.00  0.00    -0.302 N 
ATOM     20  H   UNL     1      -7.847   0.455  -0.537  0.00  0.00    +0.171 HD
ATOM     21  C   UNL     1      -8.747   2.377  -0.599  0.00  0.00    +0.254 A 
ATOM     22  O   UNL     1      -9.881   1.934  -0.695  0.00  0.00    -0.268 OA
ATOM     23  C   UNL     1      -8.523   3.757  -0.572  0.00  0.00    +0.113 A 
ATOM     24  C   UNL     1      -7.219   4.219  -0.461  0.00  0.00    +0.124 A 
ATOM     25  N   UNL     1      -6.210   3.345  -0.378  0.00  0.00    -0.209 NA
BRANCH  24  26
ATOM     26  N   UNL     1      -6.965   5.576  -0.432  0.00  0.00    -0.343 N 
ATOM     27  H   UNL     1      -5.931   5.940  -0.344  0.00  0.00    +0.144 HD
ATOM     28  H   UNL     1      -7.797   6.292  -0.495  0.00  0.00    +0.144 HD
ENDBRANCH  24  26
ENDBRANCH  17  18
ENDBRANCH  16  17
ENDBRANCH   2  16
TORSDOF 6
