REMARK  Name = ZINC48361328
REMARK  5 active torsions:
REMARK  status: ('A' for Active; 'I' for Inactive)
REMARK    1  A    between atoms: C_6  and  C_7
REMARK    2  A    between atoms: C_7  and  N_8
REMARK    3  A    between atoms: N_8  and  S_9
REMARK    4  A    between atoms: S_9  and  C_12
REMARK    5  A    between atoms: C_17  and  N_18
REMARK                            x       y       z     vdW  Elec       q    Type
REMARK                         _______ _______ _______ _____ _____    ______ ____
ROOT
ATOM      1  S   UNL     1      -2.835  -2.267  -1.732  0.00  0.00    +0.061 S 
ATOM      2  O   UNL     1      -3.036  -2.427  -3.129  0.00  0.00    -0.153 OA
ATOM      3  O   UNL     1      -2.366  -3.322  -0.904  0.00  0.00    -0.153 OA
ENDROOT
BRANCH   1   4
ATOM      4  C   UNL     1      -4.377  -1.744  -1.058  0.00  0.00    +0.128 A 
ATOM      5  C   UNL     1      -4.902  -2.387   0.046  0.00  0.00    +0.068 A 
ATOM      6  C   UNL     1      -6.113  -1.977   0.576  0.00  0.00    +0.125 A 
ATOM      7  C   UNL     1      -6.801  -0.921   0.002  0.00  0.00    +0.040 A 
ATOM      8  C   UNL     1      -6.279  -0.275  -1.102  0.00  0.00    +0.027 A 
ATOM      9  C   UNL     1      -5.061  -0.681  -1.632  0.00  0.00    +0.051 A 
ATOM     10  F   UNL     1      -6.625  -2.607   1.656  0.00  0.00    -0.205 F 
BRANCH   9  11
ATOM     11  N   UNL     1      -4.529  -0.025  -2.746  0.00  0.00    -0.356 N 
ATOM     12  H   UNL     1      -3.640  -0.251  -3.063  0.00  0.00    +0.142 HD
ATOM     13  H   UNL     1      -5.048   0.656  -3.202  0.00  0.00    +0.142 HD
ENDBRANCH   9  11
ENDBRANCH   1   4
BRANCH   1  14
ATOM     14  N   UNL     1      -1.769  -1.012  -1.547  0.00  0.00    -0.186 NA
ATOM     15  H   UNL     1      -1.405  -0.567  -2.328  0.00  0.00    +0.148 HD
BRANCH  14  16
ATOM     16  C   UNL     1      -1.378  -0.575  -0.205  0.00  0.00    +0.141 C 
BRANCH  16  22
ATOM     17  C   UNL     1      -0.282   1.662  -0.454  0.00  0.00    +0.006 A 
ATOM     18  C   UNL     1       0.844   2.459  -0.539  0.00  0.00    +0.015 A 
ATOM     19  C   UNL     1       2.102   1.889  -0.469  0.00  0.00    +0.018 A 
ATOM     20  C   UNL     1       2.233   0.521  -0.314  0.00  0.00    +0.015 A 
ATOM     21  C   UNL     1       1.107  -0.276  -0.228  0.00  0.00    +0.006 A 
ATOM     22  C   UNL     1      -0.150   0.294  -0.298  0.00  0.00    -0.032 A 
ATOM     23 BR   UNL     1       3.642   2.980  -0.586  0.00  0.00    -0.050 Br
ENDBRANCH  16  22
ENDBRANCH  14  16
ENDBRANCH   1  14
TORSDOF 5
