REMARK  Name = ZINC10048642
REMARK  11 active torsions:
REMARK  status: ('A' for Active; 'I' for Inactive)
REMARK    1  A    between atoms: C_1  and  C_2
REMARK    2  A    between atoms: C_5  and  N_9
REMARK    3  A    between atoms: C_6  and  C_8
REMARK    4  A    between atoms: N_9  and  C_10
REMARK    5  A    between atoms: C_10  and  C_11
REMARK    6  A    between atoms: C_11  and  C_12
REMARK    7  A    between atoms: C_12  and  N_13
REMARK    8  A    between atoms: C_21  and  C_31
REMARK    9  A    between atoms: C_22  and  C_30
REMARK   10  A    between atoms: N_23  and  C_24
REMARK   11  A    between atoms: N_32  and  C_35
REMARK                            x       y       z     vdW  Elec       q    Type
REMARK                         _______ _______ _______ _____ _____    ______ ____
ROOT
ATOM      1  N   UNL     1      -0.045  -6.877   2.941  0.00  0.00    -0.259 N 
ATOM      2  C   UNL     1       0.470  -6.391   1.793  0.00  0.00    +0.283 A 
ATOM      3  O   UNL     1       0.874  -7.150   0.929  0.00  0.00    -0.265 OA
ATOM      4  C   UNL     1       0.538  -5.001   1.603  0.00  0.00    +0.157 A 
ATOM      5  C   UNL     1       0.070  -4.154   2.607  0.00  0.00    +0.170 A 
ATOM      6  N   UNL     1       0.243  -2.903   2.189  0.00  0.00    -0.193 NA
ATOM      7  C   UNL     1       0.797  -2.902   0.985  0.00  0.00    +0.223 A 
ATOM      8  N   UNL     1       0.992  -4.180   0.582  0.00  0.00    -0.274 N 
ATOM      9  C   UNL     1       1.564  -4.152  -0.678  0.00  0.00    +0.044 A 
ATOM     10  C   UNL     1       1.713  -2.882  -1.044  0.00  0.00    +0.043 A 
ATOM     11  N   UNL     1       1.237  -2.080  -0.021  0.00  0.00    -0.282 N 
ATOM     12  C   UNL     1       2.298  -2.400  -2.346  0.00  0.00    +0.066 C 
ATOM     13  C   UNL     1       1.954  -5.356  -1.496  0.00  0.00    +0.066 C 
ATOM     14  N   UNL     1      -0.449  -4.714   3.765  0.00  0.00    -0.279 N 
ATOM     15  C   UNL     1      -0.494  -6.053   3.904  0.00  0.00    +0.333 A 
ATOM     16  O   UNL     1      -0.952  -6.528   4.925  0.00  0.00    -0.246 OA
ATOM     17  C   UNL     1      -0.949  -3.850   4.837  0.00  0.00    +0.155 C 
ENDROOT
BRANCH  11  18
ATOM     18  C   UNL     1       1.215  -0.680  -0.013  0.00  0.00    +0.050 A 
ATOM     19  C   UNL     1       0.002  -0.004   0.002  0.00  0.00    +0.026 A 
ATOM     20  C   UNL     1      -0.017   1.377   0.010  0.00  0.00    +0.002 A 
ATOM     21  C   UNL     1       1.171   2.086   0.002  0.00  0.00    +0.000 A 
ATOM     22  C   UNL     1       2.380   1.415  -0.013  0.00  0.00    +0.002 A 
ATOM     23  C   UNL     1       2.405   0.035  -0.021  0.00  0.00    +0.026 A 
ENDBRANCH  11  18
BRANCH   1  24
ATOM     24  C   UNL     1      -0.117  -8.326   3.142  0.00  0.00    +0.131 C 
BRANCH  24  25
ATOM     25  C   UNL     1      -1.454  -8.849   2.615  0.00  0.00    +0.040 C 
BRANCH  25  26
ATOM     26  C   UNL     1      -1.529 -10.362   2.825  0.00  0.00    +0.103 C 
BRANCH  26  27
ATOM     27  N   UNL     1      -2.810 -10.863   2.320  0.00  0.00    -0.344 N 
ATOM     28  H   UNL     1      -3.450 -10.248   1.929  0.00  0.00    +0.146 HD
BRANCH  27  33
ATOM     29  C   UNL     1      -4.027 -16.391   2.659  0.00  0.00    +0.044 C 
ATOM     30  C   UNL     1      -3.703 -14.922   2.568  0.00  0.00    -0.050 A 
ATOM     31  C   UNL     1      -2.493 -14.452   3.044  0.00  0.00    +0.005 A 
ATOM     32  C   UNL     1      -2.193 -13.106   2.963  0.00  0.00    +0.023 A 
ATOM     33  C   UNL     1      -3.110 -12.225   2.403  0.00  0.00    +0.030 A 
ATOM     34  C   UNL     1      -4.326 -12.700   1.930  0.00  0.00    -0.029 A 
ATOM     35  C   UNL     1      -4.617 -14.048   2.009  0.00  0.00    +0.008 A 
ATOM     36  C   UNL     1      -5.325 -11.747   1.327  0.00  0.00    +0.045 C 
ENDBRANCH  27  33
ENDBRANCH  26  27
ENDBRANCH  25  26
ENDBRANCH  24  25
ENDBRANCH   1  24
TORSDOF 6
