REMARK  Name = ZINC35778873
REMARK  16 active torsions:
REMARK  status: ('A' for Active; 'I' for Inactive)
REMARK    1  A    between atoms: C_1  and  O_2
REMARK    2  A    between atoms: O_2  and  C_3
REMARK    3  A    between atoms: C_8  and  O_9
REMARK    4  A    between atoms: O_9  and  C_10
REMARK    5  A    between atoms: C_10  and  C_11
REMARK    6  A    between atoms: C_21  and  C_23
REMARK    7  A    between atoms: C_23  and  N_24
REMARK    8  A    between atoms: N_24  and  C_25
REMARK    9  A    between atoms: N_24  and  C_28
REMARK   10  A    between atoms: C_25  and  C_26
REMARK   11  A    between atoms: C_28  and  C_29
REMARK   12  A    between atoms: C_29  and  C_31
REMARK   13  A    between atoms: C_29  and  O_36
REMARK   14  A    between atoms: C_31  and  O_32
REMARK   15  A    between atoms: O_32  and  C_33
REMARK   16  A    between atoms: C_33  and  C_34
REMARK                            x       y       z     vdW  Elec       q    Type
REMARK                         _______ _______ _______ _____ _____    ______ ____
ROOT
ATOM      1  C   UNL     1      -0.865  -4.180   0.042  0.00  0.00    +0.144 C 
ATOM      2  C   UNL     1      -0.178  -3.446   1.193  0.00  0.00    -0.014 A 
ATOM      3  C   UNL     1       1.188  -3.545   1.455  0.00  0.00    +0.013 A 
ATOM      4  C   UNL     1       1.729  -2.863   2.490  0.00  0.00    +0.046 A 
ATOM      5  S   UNL     1       0.303  -2.025   3.164  0.00  0.00    -0.101 S 
ATOM      6  C   UNL     1      -0.903  -2.647   2.022  0.00  0.00    -0.004 A 
ATOM      7  C   UNL     1      -2.370  -2.368   1.977  0.00  0.00    +0.061 C 
ATOM      8  C   UNL     1      -2.911  -2.796   0.605  0.00  0.00    +0.113 C 
ATOM      9  N   UNL     1      -2.316  -4.096   0.257  0.00  0.00    -0.292 N 
ATOM     10  C   UNL     1      -3.089  -5.193   0.138  0.00  0.00    +0.200 C 
ATOM     11  O   UNL     1      -2.587  -6.260  -0.148  0.00  0.00    -0.278 OA
ENDROOT
BRANCH   1  12
ATOM     12  C   UNL     1      -0.498  -3.517  -1.287  0.00  0.00    +0.256 C 
BRANCH  12  13
ATOM     13  O   UNL     1      -0.804  -2.122  -1.224  0.00  0.00    -0.486 OA
BRANCH  13  19
ATOM     14  C   UNL     1      -0.809  -0.016  -2.341  0.00  0.00    +0.161 A 
ATOM     15  C   UNL     1      -0.529   0.736  -3.471  0.00  0.00    +0.049 A 
ATOM     16  C   UNL     1       0.014   0.129  -4.588  0.00  0.00    +0.004 A 
ATOM     17  C   UNL     1       0.279  -1.228  -4.582  0.00  0.00    +0.004 A 
ATOM     18  C   UNL     1       0.002  -1.984  -3.458  0.00  0.00    +0.049 A 
ATOM     19  C   UNL     1      -0.536  -1.381  -2.333  0.00  0.00    +0.162 A 
BRANCH  14  21
ATOM     20  C   UNL     1      -1.596   1.983  -1.322  0.00  0.00    +0.277 C 
ATOM     21  O   UNL     1      -1.343   0.579  -1.241  0.00  0.00    -0.491 OA
ENDBRANCH  14  21
ENDBRANCH  13  19
ENDBRANCH  12  13
ENDBRANCH   1  12
BRANCH  10  22
ATOM     22  C   UNL     1      -4.576  -5.095   0.361  0.00  0.00    +0.019 C 
BRANCH  22  23
ATOM     23  N   UNL     1      -5.187  -6.418   0.174  0.00  0.00    +0.389 N 
ATOM     24  H   UNL     1      -4.939  -6.777  -0.736  0.00  0.00    -0.081 HD
BRANCH  23  25
ATOM     25  C   UNL     1      -4.699  -7.334   1.212  0.00  0.00    -0.051 C 
BRANCH  25  26
ATOM     26  C   UNL     1      -5.009  -6.764   2.572  0.00  0.00    -0.053 C 
ATOM     27  C   UNL     1      -5.711  -7.461   3.431  0.00  0.00    +0.002 C 
ENDBRANCH  25  26
ENDBRANCH  23  25
BRANCH  23  28
ATOM     28  C   UNL     1      -6.648  -6.300   0.273  0.00  0.00    -0.044 C 
BRANCH  28  29
ATOM     29  C   UNL     1      -7.293  -7.642  -0.082  0.00  0.00    +0.124 C 
BRANCH  29  30
ATOM     30  O   UNL     1      -7.012  -7.959  -1.447  0.00  0.00    -0.391 OA
ATOM     31  H   UNL     1      -7.345  -7.307  -2.079  0.00  0.00    +0.210 HD
ENDBRANCH  29  30
BRANCH  29  32
ATOM     32  C   UNL     1      -8.807  -7.549   0.119  0.00  0.00    +0.189 C 
BRANCH  32  33
ATOM     33  O   UNL     1      -9.396  -8.832  -0.099  0.00  0.00    -0.373 OA
BRANCH  33  34
ATOM     34  C   UNL     1     -10.815  -8.856   0.065  0.00  0.00    +0.186 C 
BRANCH  34  35
ATOM     35  C   UNL     1     -11.327 -10.251  -0.188  0.00  0.00    -0.007 C 
ATOM     36  C   UNL     1     -12.206 -10.783   0.625  0.00  0.00    +0.006 C 
ENDBRANCH  34  35
ENDBRANCH  33  34
ENDBRANCH  32  33
ENDBRANCH  29  32
ENDBRANCH  28  29
ENDBRANCH  23  28
ENDBRANCH  22  23
ENDBRANCH  10  22
TORSDOF 15
