REMARK  Name = ZINC09270647
REMARK  15 active torsions:
REMARK  status: ('A' for Active; 'I' for Inactive)
REMARK    1  A    between atoms: C_1  and  C_2
REMARK    2  A    between atoms: C_2  and  N_64
REMARK    3  A    between atoms: C_3  and  C_4
REMARK    4  A    between atoms: C_3  and  N_64
REMARK    5  A    between atoms: C_5  and  C_6
REMARK    6  A    between atoms: C_5  and  N_64
REMARK    7  A    between atoms: C_6  and  N_7
REMARK    8  A    between atoms: C_8  and  C_23
REMARK    9  A    between atoms: C_11  and  C_12
REMARK   10  A    between atoms: C_11  and  O_18
REMARK   11  A    between atoms: C_15  and  C_17
REMARK   12  A    between atoms: C_26  and  O_29
REMARK   13  A    between atoms: O_29  and  C_30
REMARK   14  A    between atoms: C_30  and  C_31
REMARK   15  A    between atoms: C_30  and  C_32
REMARK                            x       y       z     vdW  Elec       q    Type
REMARK                         _______ _______ _______ _____ _____    ______ ____
ROOT
ATOM      1  N   UNL     1       3.681  -0.705  -0.249  0.00  0.00    -0.285 N 
ATOM      2  C   UNL     1       2.311  -0.274   0.044  0.00  0.00    +0.144 C 
ATOM      3  C   UNL     1       2.382   1.200   0.369  0.00  0.00    +0.074 C 
ATOM      4  C   UNL     1       1.323   2.030   0.708  0.00  0.00    +0.168 C 
ATOM      5  C   UNL     1       3.728   1.560   0.253  0.00  0.00    +0.249 C 
ATOM      6  O   UNL     1       4.187   2.675   0.434  0.00  0.00    -0.282 OA
ATOM      7  C   UNL     1       4.504   0.350  -0.126  0.00  0.00    +0.288 C 
ATOM      8  O   UNL     1       5.705   0.321  -0.303  0.00  0.00    -0.266 OA
ENDROOT
BRANCH   4   9
ATOM      9  C   UNL     1       1.573   3.355   1.141  0.00  0.00    +0.170 A 
ATOM     10  C   UNL     1       0.970   4.498   0.652  0.00  0.00    +0.053 A 
ATOM     11  C   UNL     1       1.517   5.573   1.366  0.00  0.00    +0.045 A 
ATOM     12  C   UNL     1       2.412   5.059   2.241  0.00  0.00    +0.103 A 
ATOM     13  O   UNL     1       2.438   3.727   2.107  0.00  0.00    -0.457 OA
ATOM     14  C   UNL     1       3.240   5.857   3.215  0.00  0.00    +0.086 C 
ENDBRANCH   4   9
BRANCH   2  15
ATOM     15  C   UNL     1       1.770  -1.038   1.225  0.00  0.00    -0.022 A 
ATOM     16  C   UNL     1       2.596  -1.332   2.294  0.00  0.00    +0.009 A 
ATOM     17  C   UNL     1       2.101  -2.027   3.380  0.00  0.00    +0.046 A 
ATOM     18  C   UNL     1       0.777  -2.440   3.393  0.00  0.00    +0.121 A 
ATOM     19  C   UNL     1      -0.049  -2.149   2.317  0.00  0.00    +0.046 A 
ATOM     20  C   UNL     1       0.449  -1.448   1.236  0.00  0.00    +0.009 A 
BRANCH  18  21
ATOM     21  O   UNL     1       0.289  -3.130   4.458  0.00  0.00    -0.489 OA
BRANCH  21  22
ATOM     22  C   UNL     1      -1.042  -3.636   4.348  0.00  0.00    +0.167 C 
ATOM     23  C   UNL     1      -1.188  -4.883   5.223  0.00  0.00    +0.051 C 
ATOM     24  C   UNL     1      -2.034  -2.568   4.814  0.00  0.00    +0.051 C 
ENDBRANCH  21  22
ENDBRANCH  18  21
ENDBRANCH   2  15
BRANCH   4  25
ATOM     25  O   UNL     1       0.053   1.574   0.626  0.00  0.00    -0.503 OA
ATOM     26  H   UNL     1      -0.579   2.296   0.905  0.00  0.00    +0.292 HD
ENDBRANCH   4  25
BRANCH   1  27
ATOM     27  C   UNL     1       4.088  -2.064  -0.615  0.00  0.00    +0.090 C 
BRANCH  27  28
ATOM     28  C   UNL     1       4.031  -2.221  -2.136  0.00  0.00    -0.060 C 
BRANCH  28  29
ATOM     29  N   UNL     1       4.463  -3.589  -2.490  0.00  0.00    +0.380 N 
ATOM     30  H   UNL     1       5.366  -3.781  -2.039  0.00  0.00    -0.082 HD
BRANCH  29  32
ATOM     31  C   UNL     1       2.131  -4.373  -2.726  0.00  0.00    -0.017 C 
ATOM     32  C   UNL     1       3.469  -4.573  -2.013  0.00  0.00    -0.082 C 
ENDBRANCH  29  32
BRANCH  29  33
ATOM     33  C   UNL     1       4.625  -3.704  -3.955  0.00  0.00    -0.082 C 
ATOM     34  C   UNL     1       5.237  -5.068  -4.279  0.00  0.00    -0.017 C 
ENDBRANCH  29  33
ENDBRANCH  28  29
ENDBRANCH  27  28
ENDBRANCH   1  27
TORSDOF 10
