REMARK  Name = ZINC00879018
REMARK  9 active torsions:
REMARK  status: ('A' for Active; 'I' for Inactive)
REMARK    1  A    between atoms: C_1  and  C_2
REMARK    2  A    between atoms: C_6  and  C_15
REMARK    3  A    between atoms: C_13  and  C_14
REMARK    4  A    between atoms: C_15  and  N_16
REMARK    5  A    between atoms: N_16  and  C_17
REMARK    6  A    between atoms: N_16  and  C_22
REMARK    7  A    between atoms: C_22  and  N_24
REMARK    8  A    between atoms: N_24  and  C_25
REMARK    9  A    between atoms: C_25  and  C_26
REMARK                            x       y       z     vdW  Elec       q    Type
REMARK                         _______ _______ _______ _____ _____    ______ ____
ROOT
ATOM      1  N   UNL     1       1.433  -5.324  -4.039  0.00  0.00    -0.305 N 
ENDROOT
BRANCH   1   2
ATOM      2  C   UNL     1       1.984  -6.586  -3.537  0.00  0.00    +0.075 C 
ATOM      3  C   UNL     1       3.345  -6.333  -2.854  0.00  0.00    +0.022 C 
ATOM      4  C   UNL     1       4.196  -7.571  -3.235  0.00  0.00    +0.002 C 
ATOM      5  C   UNL     1       3.766  -7.845  -4.697  0.00  0.00    +0.002 C 
ATOM      6  C   UNL     1       2.252  -7.546  -4.709  0.00  0.00    +0.022 C 
ENDBRANCH   1   2
BRANCH   1   7
ATOM      7  C   UNL     1       2.191  -4.515  -4.805  0.00  0.00    +0.133 C 
ATOM      8  S   UNL     1       1.587  -2.991  -5.298  0.00  0.00    -0.019 S 
BRANCH   7   9
ATOM      9  N   UNL     1       3.424  -4.906  -5.184  0.00  0.00    -0.324 N 
ATOM     10  H   UNL     1       3.739  -5.797  -4.964  0.00  0.00    +0.148 HD
BRANCH   9  11
ATOM     11  C   UNL     1       4.287  -3.986  -5.929  0.00  0.00    +0.134 C 
BRANCH  11  12
ATOM     12  C   UNL     1       5.621  -4.672  -6.233  0.00  0.00    +0.135 C 
ATOM     13  C   UNL     1       6.582  -3.672  -6.910  0.00  0.00    +0.035 C 
ATOM     14  C   UNL     1       7.282  -4.558  -7.976  0.00  0.00    +0.031 C 
ATOM     15  C   UNL     1       6.128  -5.516  -8.366  0.00  0.00    +0.160 C 
ATOM     16  O   UNL     1       5.412  -5.758  -7.143  0.00  0.00    -0.375 OA
ENDBRANCH  11  12
ENDBRANCH   9  11
ENDBRANCH   7   9
ENDBRANCH   1   7
BRANCH   1  17
ATOM     17  C   UNL     1       0.058  -4.942  -3.707  0.00  0.00    +0.147 C 
BRANCH  17  23
ATOM     18  C   UNL     1       0.109   1.527   0.003  0.00  0.00    +0.044 C 
ATOM     19  C   UNL     1       0.085   0.020  -0.011  0.00  0.00    -0.047 A 
ATOM     20  C   UNL     1       0.091  -0.646  -1.204  0.00  0.00    +0.013 A 
ATOM     21  C   UNL     1       0.069  -2.044  -1.217  0.00  0.00    -0.001 A 
ATOM     22  C   UNL     1       0.075  -2.790  -2.477  0.00  0.00    +0.020 A 
ATOM     23  C   UNL     1       0.053  -4.145  -2.428  0.00  0.00    +0.035 A 
ATOM     24  C   UNL     1       0.026  -4.811  -1.184  0.00  0.00    +0.254 A 
ATOM     25  O   UNL     1       0.007  -6.029  -1.163  0.00  0.00    -0.268 OA
ATOM     26  N   UNL     1       0.021  -4.135  -0.022  0.00  0.00    -0.322 N 
ATOM     27  H   UNL     1       0.002  -4.624   0.816  0.00  0.00    +0.169 HD
ATOM     28  C   UNL     1       0.041  -2.756  -0.003  0.00  0.00    +0.049 A 
ATOM     29  C   UNL     1       0.036  -2.056   1.199  0.00  0.00    +0.030 A 
ATOM     30  C   UNL     1       0.064  -0.678   1.188  0.00  0.00    -0.046 A 
ATOM     31  C   UNL     1       0.064   0.078   2.492  0.00  0.00    +0.044 C 
ENDBRANCH  17  23
ENDBRANCH   1  17
TORSDOF 7
