REMARK  Name = ZINC35327420
REMARK  5 active torsions:
REMARK  status: ('A' for Active; 'I' for Inactive)
REMARK    1  A    between atoms: C_1  and  C_2
REMARK    2  A    between atoms: C_4  and  C_12
REMARK    3  A    between atoms: C_8  and  C_9
REMARK    4  A    between atoms: C_16  and  O_19
REMARK    5  A    between atoms: O_19  and  C_20
REMARK                            x       y       z     vdW  Elec       q    Type
REMARK                         _______ _______ _______ _____ _____    ______ ____
ROOT
ATOM      1  C   UNL     1       0.995   0.538  -2.341  0.00  0.00    +0.031 A 
ATOM      2  C   UNL     1       0.110   0.492  -3.404  0.00  0.00    +0.071 A 
ATOM      3  C   UNL     1       0.205   1.422  -4.428  0.00  0.00    +0.184 A 
ATOM      4  C   UNL     1       1.191   2.402  -4.386  0.00  0.00    +0.210 A 
ATOM      5  C   UNL     1       2.078   2.444  -3.317  0.00  0.00    +0.180 A 
ATOM      6  C   UNL     1       1.973   1.514  -2.293  0.00  0.00    +0.071 A 
ATOM      7 BR   UNL     1       3.175   1.576  -0.834  0.00  0.00    -0.046 Br
ATOM      8  O   UNL     1       1.076   3.187  -5.498  0.00  0.00    -0.449 OA
ATOM      9  C   UNL     1       0.270   2.429  -6.420  0.00  0.00    +0.467 C 
ATOM     10  O   UNL     1      -0.531   1.591  -5.566  0.00  0.00    -0.451 OA
ATOM     11 BR   UNL     1      -1.230  -0.841  -3.459  0.00  0.00    -0.046 Br
ENDROOT
BRANCH   1  14
ATOM     12  C   UNL     1       1.665  -1.949  -3.138  0.00  0.00    +0.018 C 
ATOM     13  C   UNL     1       1.591  -1.798  -1.617  0.00  0.00    +0.093 C 
ATOM     14  C   UNL     1       0.888  -0.475  -1.230  0.00  0.00    +0.246 C 
ATOM     15  O   UNL     1      -0.476  -0.908  -1.055  0.00  0.00    -0.385 OA
ATOM     16  N   UNL     1      -0.449  -2.282  -0.725  0.00  0.00    -0.081 NA
ATOM     17  C   UNL     1       0.679  -2.850  -1.015  0.00  0.00    +0.174 C 
BRANCH  17  18
ATOM     18  C   UNL     1       1.020  -4.267  -0.800  0.00  0.00    +0.404 C 
ATOM     19  O   UNL     1       0.198  -5.025  -0.304  0.00  0.00    -0.239 OA
ATOM     20  O   UNL     1       2.124  -4.685  -1.118  0.00  0.00    -0.239 OA
ENDBRANCH  17  18
ENDBRANCH   1  14
BRANCH   5  21
ATOM     21  O   UNL     1       3.044   3.400  -3.272  0.00  0.00    -0.490 OA
ATOM     22  C   UNL     1       2.712   4.629  -2.623  0.00  0.00    +0.277 C 
ENDBRANCH   5  21
TORSDOF 3
