REMARK  Name = ZINC58990465
REMARK  11 active torsions:
REMARK  status: ('A' for Active; 'I' for Inactive)
REMARK    1  A    between atoms: C_1  and  C_2
REMARK    2  A    between atoms: C_5  and  C_8
REMARK    3  A    between atoms: N_9  and  N_10
REMARK    4  A    between atoms: C_11  and  C_13
REMARK    5  A    between atoms: C_13  and  C_14
REMARK    6  A    between atoms: C_14  and  C_15
REMARK    7  A    between atoms: C_15  and  S_16
REMARK    8  A    between atoms: S_16  and  C_17
REMARK    9  A    between atoms: C_20  and  C_23
REMARK   10  A    between atoms: N_21  and  N_22
REMARK   11  A    between atoms: C_27  and  N_29
REMARK                            x       y       z     vdW  Elec       q    Type
REMARK                         _______ _______ _______ _____ _____    ______ ____
ROOT
ATOM      1  S   UNL     1       0.175 -11.152   5.384  0.00  0.00    -0.084 S 
ENDROOT
BRANCH   1   2
ATOM      2  C   UNL     1       0.197 -12.905   5.207  0.00  0.00    +0.209 A 
ATOM      3  N   UNL     1       0.205 -13.574   4.075  0.00  0.00    -0.121 NA
ATOM      4  N   UNL     1       0.222 -14.838   4.310  0.00  0.00    -0.127 NA
ATOM      5  C   UNL     1       0.225 -15.053   5.605  0.00  0.00    +0.182 A 
ATOM      6  N   UNL     1       0.214 -13.822   6.219  0.00  0.00    -0.224 N 
BRANCH   5   7
ATOM      7  C   UNL     1       0.242 -16.370   6.276  0.00  0.00    +0.023 A 
ATOM      8  C   UNL     1      -0.076 -16.469   7.632  0.00  0.00    +0.012 A 
ATOM      9  C   UNL     1      -0.058 -17.701   8.253  0.00  0.00    +0.003 A 
ATOM     10  C   UNL     1       0.274 -18.837   7.535  0.00  0.00    +0.033 A 
ATOM     11  C   UNL     1       0.590 -18.745   6.191  0.00  0.00    +0.127 A 
ATOM     12  C   UNL     1       0.569 -17.520   5.556  0.00  0.00    +0.044 A 
BRANCH  11  13
ATOM     13  N   UNL     1       0.944 -19.964   5.430  0.00  0.00    +0.056 N 
ATOM     14  O   UNL     1       0.957 -21.039   5.984  0.00  0.00    -0.126 OA
ATOM     15  O   UNL     1       1.220 -19.886   4.256  0.00  0.00    -0.126 OA
ENDBRANCH  11  13
ENDBRANCH   5   7
BRANCH   6  16
ATOM     16  N   UNL     1       0.217 -13.569   7.561  0.00  0.00    -0.295 N 
ATOM     17  H   UNL     1      -0.724 -13.515   7.921  0.00  0.00    +0.163 HD
ATOM     18  H   UNL     1       0.755 -14.263   8.059  0.00  0.00    +0.163 HD
ENDBRANCH   6  16
ENDBRANCH   1   2
BRANCH   1  19
ATOM     19  C   UNL     1       0.158 -10.538   3.678  0.00  0.00    +0.078 C 
BRANCH  19  20
ATOM     20  C   UNL     1       0.139  -9.008   3.686  0.00  0.00    +0.020 C 
BRANCH  20  21
ATOM     21  C   UNL     1       0.125  -8.491   2.246  0.00  0.00    +0.098 C 
BRANCH  21  23
ATOM     22  N   UNL     1       0.090  -6.304   1.091  0.00  0.00    -0.207 N 
ATOM     23  C   UNL     1       0.105  -6.984   2.255  0.00  0.00    +0.232 C 
ATOM     24  O   UNL     1       0.103  -6.383   3.308  0.00  0.00    -0.274 OA
ATOM     25  H   UNL     1       0.092  -6.784   0.248  0.00  0.00    +0.177 HD
BRANCH  22  27
ATOM     26  C   UNL     1       0.058  -4.248  -0.021  0.00  0.00    +0.138 C 
ATOM     27  N   UNL     1       0.072  -4.903   1.099  0.00  0.00    -0.188 NA
BRANCH  26  32
ATOM     28  C   UNL     1      -0.018   1.503   0.010  0.00  0.00    +0.044 C 
ATOM     29  C   UNL     1       0.002  -0.004   0.002  0.00  0.00    -0.050 A 
ATOM     30  C   UNL     1       0.006  -0.686  -1.202  0.00  0.00    +0.004 A 
ATOM     31  C   UNL     1       0.024  -2.065  -1.217  0.00  0.00    +0.010 A 
ATOM     32  C   UNL     1       0.039  -2.773  -0.013  0.00  0.00    -0.005 A 
ATOM     33  C   UNL     1       0.036  -2.078   1.198  0.00  0.00    +0.010 A 
ATOM     34  C   UNL     1       0.023  -0.699   1.198  0.00  0.00    +0.004 A 
ENDBRANCH  26  32
ENDBRANCH  22  27
ENDBRANCH  21  23
ENDBRANCH  20  21
ENDBRANCH  19  20
ENDBRANCH   1  19
TORSDOF 10
