REMARK  Name = ZINC20886362
REMARK  7 active torsions:
REMARK  status: ('A' for Active; 'I' for Inactive)
REMARK    1  A    between atoms: C_1  and  C_2
REMARK    2  A    between atoms: C_5  and  C_9
REMARK    3  A    between atoms: C_20  and  C_23
REMARK    4  A    between atoms: C_26  and  O_29
REMARK    5  A    between atoms: O_29  and  C_30
REMARK    6  A    between atoms: C_30  and  C_31
REMARK    7  A    between atoms: C_30  and  C_32
REMARK                            x       y       z     vdW  Elec       q    Type
REMARK                         _______ _______ _______ _____ _____    ______ ____
ROOT
ATOM      1  C   UNL     1       5.451   6.806  -1.695  0.00  0.00    +0.063 C 
ATOM      2  C   UNL     1       6.214   6.214  -2.881  0.00  0.00    +0.109 C 
ATOM      3  C   UNL     1       5.253   5.979  -4.018  0.00  0.00    +0.218 C 
ATOM      4  O   UNL     1       5.629   6.109  -5.164  0.00  0.00    -0.275 OA
ATOM      5  N   UNL     1       3.981   5.626  -3.766  0.00  0.00    -0.289 N 
ATOM      6  C   UNL     1       3.534   5.449  -2.482  0.00  0.00    +0.018 C 
ATOM      7  C   UNL     1       4.204   5.992  -1.443  0.00  0.00    +0.020 C 
ATOM      8  C   UNL     1       3.768   5.816  -0.119  0.00  0.00    +0.162 C 
ATOM      9  O   UNL     1       4.389   6.332   0.788  0.00  0.00    -0.292 OA
ATOM     10  C   UNL     1       2.542   5.000   0.192  0.00  0.00    +0.088 C 
ATOM     11  C   UNL     1       2.363   3.937  -0.897  0.00  0.00    +0.032 C 
ATOM     12  C   UNL     1       2.283   4.638  -2.255  0.00  0.00    +0.059 C 
ATOM     13  H   UNL     1       3.277   5.475  -4.598  0.00  0.00    +0.155 HD
ENDROOT
BRANCH   1  18
ATOM     14  C   UNL     1       3.977  12.266  -2.886  0.00  0.00    +0.045 C 
ATOM     15  C   UNL     1       4.361  10.842  -2.576  0.00  0.00    -0.036 A 
ATOM     16  C   UNL     1       3.909   9.813  -3.379  0.00  0.00    +0.005 A 
ATOM     17  C   UNL     1       4.266   8.508  -3.098  0.00  0.00    +0.004 A 
ATOM     18  C   UNL     1       5.067   8.230  -2.006  0.00  0.00    -0.038 A 
ATOM     19  C   UNL     1       5.520   9.259  -1.201  0.00  0.00    +0.019 A 
ATOM     20  C   UNL     1       5.167  10.566  -1.486  0.00  0.00    +0.021 A 
ATOM     21 BR   UNL     1       5.786  11.974  -0.386  0.00  0.00    -0.050 Br
ENDBRANCH   1  18
BRANCH  11  22
ATOM     22  C   UNL     1       1.091   3.168  -0.649  0.00  0.00    -0.043 A 
ATOM     23  C   UNL     1       1.140   1.801  -0.443  0.00  0.00    +0.007 A 
ATOM     24  C   UNL     1      -0.024   1.094  -0.215  0.00  0.00    +0.046 A 
ATOM     25  C   UNL     1      -1.244   1.754  -0.199  0.00  0.00    +0.121 A 
ATOM     26  C   UNL     1      -1.290   3.126  -0.401  0.00  0.00    +0.046 A 
ATOM     27  C   UNL     1      -0.123   3.829  -0.628  0.00  0.00    +0.007 A 
BRANCH  25  28
ATOM     28  O   UNL     1      -2.392   1.060   0.020  0.00  0.00    -0.489 OA
BRANCH  28  29
ATOM     29  C   UNL     1      -3.596   1.819   0.140  0.00  0.00    +0.167 C 
ATOM     30  C   UNL     1      -4.165   2.099  -1.252  0.00  0.00    +0.051 C 
ATOM     31  C   UNL     1      -4.618   1.027   0.958  0.00  0.00    +0.051 C 
ENDBRANCH  28  29
ENDBRANCH  25  28
ENDBRANCH  11  22
TORSDOF 4
