REMARK  Name = ZINC32885683
REMARK  6 active torsions:
REMARK  status: ('A' for Active; 'I' for Inactive)
REMARK    1  A    between atoms: C_1  and  C_2
REMARK    2  A    between atoms: C_5  and  C_34
REMARK    3  A    between atoms: N_8  and  C_10
REMARK    4  A    between atoms: C_10  and  C_11
REMARK    5  A    between atoms: C_17  and  C_19
REMARK    6  A    between atoms: C_25  and  C_27
REMARK                            x       y       z     vdW  Elec       q    Type
REMARK                         _______ _______ _______ _____ _____    ______ ____
ROOT
ATOM      1  C   UNL     1       4.192  -1.249   1.487  0.00  0.00    +0.034 A 
ATOM      2  C   UNL     1       3.694  -2.507   1.409  0.00  0.00    +0.070 A 
ATOM      3  S   UNL     1       1.962  -2.162   1.133  0.00  0.00    -0.060 S 
ATOM      4  C   UNL     1       2.072  -0.429   1.148  0.00  0.00    +0.165 A 
ATOM      5  N   UNL     1       3.361  -0.234   1.347  0.00  0.00    -0.231 NA
ATOM      6  N   UNL     1       1.061   0.512   0.985  0.00  0.00    -0.264 N 
ATOM      7  C   UNL     1      -0.209   0.108   0.784  0.00  0.00    +0.222 C 
ATOM      8  O   UNL     1      -0.470  -1.076   0.745  0.00  0.00    -0.275 OA
ATOM      9  H   UNL     1       1.298   1.585   1.021  0.00  0.00    +0.157 HD
ENDROOT
BRANCH   7  10
ATOM     10  C   UNL     1      -1.303   1.128   0.602  0.00  0.00    +0.078 C 
ATOM     11  C   UNL     1      -1.393   2.008   1.850  0.00  0.00    +0.032 C 
ATOM     12  C   UNL     1      -2.483   3.065   1.647  0.00  0.00    +0.109 C 
ATOM     13  N   UNL     1      -3.739   2.388   1.295  0.00  0.00    -0.297 N 
ATOM     14  C   UNL     1      -3.742   1.449   0.165  0.00  0.00    +0.109 C 
ATOM     15  C   UNL     1      -2.637   0.410   0.384  0.00  0.00    +0.032 C 
ATOM     16  C   UNL     1      -4.866   2.624   1.995  0.00  0.00    +0.247 C 
ATOM     17  O   UNL     1      -5.913   2.111   1.651  0.00  0.00    -0.270 OA
BRANCH  16  18
ATOM     18  C   UNL     1      -4.829   3.506   3.180  0.00  0.00    +0.037 A 
ATOM     19  C   UNL     1      -5.382   3.079   4.389  0.00  0.00    +0.014 A 
ATOM     20  C   UNL     1      -5.339   3.904   5.493  0.00  0.00    +0.021 A 
ATOM     21  C   UNL     1      -4.760   5.159   5.401  0.00  0.00    +0.041 A 
ATOM     22  C   UNL     1      -4.215   5.591   4.202  0.00  0.00    +0.021 A 
ATOM     23  C   UNL     1      -4.247   4.772   3.093  0.00  0.00    +0.014 A 
ATOM     24 CL   UNL     1      -4.715   6.195   6.793  0.00  0.00    -0.084 Cl
ENDBRANCH  16  18
ENDBRANCH   7  10
BRANCH   1  25
ATOM     25  C   UNL     1       5.662  -1.014   1.720  0.00  0.00    -0.022 C 
BRANCH  25  31
ATOM     26  C   UNL     1       6.857  -3.055  -2.592  0.00  0.00    +0.005 C 
ATOM     27  C   UNL     1       6.879  -1.770  -1.762  0.00  0.00    -0.031 C 
ATOM     28  C   UNL     1       8.323  -1.280  -1.616  0.00  0.00    +0.003 C 
ATOM     29  C   UNL     1       8.342  -0.029  -0.734  0.00  0.00    -0.031 C 
ATOM     30  C   UNL     1       7.718  -0.358   0.624  0.00  0.00    -0.075 C 
ATOM     31  N   UNL     1       6.338  -0.821   0.431  0.00  0.00    +0.384 N 
ATOM     32  C   UNL     1       6.298  -2.049  -0.374  0.00  0.00    -0.075 C 
ATOM     33  C   UNL     1       7.538   1.085  -1.409  0.00  0.00    +0.005 C 
ATOM     34  H   UNL     1       5.796  -0.040  -0.123  0.00  0.00    -0.081 HD
ENDBRANCH  25  31
ENDBRANCH   1  25
TORSDOF 4
