REMARK  Name = ZINC40377190
REMARK  5 active torsions:
REMARK  status: ('A' for Active; 'I' for Inactive)
REMARK    1  A    between atoms: C_5  and  S_7
REMARK    2  A    between atoms: S_7  and  N_10
REMARK    3  A    between atoms: N_10  and  C_11
REMARK    4  A    between atoms: C_11  and  C_16
REMARK    5  A    between atoms: N_17  and  O_18
REMARK                            x       y       z     vdW  Elec       q    Type
REMARK                         _______ _______ _______ _____ _____    ______ ____
ROOT
ATOM      1  N   UNL     1       1.996  -2.523  -1.262  0.00  0.00    -0.177 NA
ATOM      2  H   UNL     1       1.328  -2.837  -1.891  0.00  0.00    +0.149 HD
ENDROOT
BRANCH   1   3
ATOM      3  C   UNL     1       3.409  -2.491  -1.647  0.00  0.00    +0.098 C 
ATOM      4  C   UNL     1       3.904  -1.028  -1.769  0.00  0.00    +0.031 C 
ATOM      5  C   UNL     1       3.399  -0.611  -3.172  0.00  0.00    +0.002 C 
ATOM      6  C   UNL     1       3.589  -1.877  -4.034  0.00  0.00    +0.002 C 
ATOM      7  C   UNL     1       3.595  -3.072  -3.064  0.00  0.00    +0.031 C 
BRANCH   3   8
ATOM      8  C   UNL     1       4.244  -3.253  -0.651  0.00  0.00    +0.153 C 
ATOM      9  N   UNL     1       4.034  -4.513  -0.461  0.00  0.00    -0.075 NA
ATOM     10  N   UNL     1       5.232  -2.605   0.057  0.00  0.00    -0.342 N 
ATOM     11  H   UNL     1       5.331  -1.643  -0.017  0.00  0.00    +0.144 HD
ATOM     12  H   UNL     1       5.829  -3.111   0.631  0.00  0.00    +0.144 HD
BRANCH   9  13
ATOM     13  O   UNL     1       3.104  -5.206  -1.274  0.00  0.00    -0.408 OA
ATOM     14  H   UNL     1       3.014  -6.144  -1.057  0.00  0.00    +0.328 HD
ENDBRANCH   9  13
ENDBRANCH   3   8
ENDBRANCH   1   3
BRANCH   1  15
ATOM     15  S   UNL     1       1.539  -2.024   0.250  0.00  0.00    +0.060 S 
ATOM     16  O   UNL     1       0.122  -2.123   0.299  0.00  0.00    -0.153 OA
ATOM     17  O   UNL     1       2.226  -0.806   0.500  0.00  0.00    -0.153 OA
BRANCH  15  22
ATOM     18  C   UNL     1       3.624  -3.751   3.219  0.00  0.00    +0.002 A 
ATOM     19  C   UNL     1       3.153  -5.051   3.204  0.00  0.00    +0.001 A 
ATOM     20  C   UNL     1       2.189  -5.427   2.288  0.00  0.00    +0.017 A 
ATOM     21  C   UNL     1       1.695  -4.502   1.385  0.00  0.00    +0.044 A 
ATOM     22  C   UNL     1       2.167  -3.202   1.400  0.00  0.00    +0.119 A 
ATOM     23  C   UNL     1       3.131  -2.827   2.317  0.00  0.00    +0.029 A 
ATOM     24 BR   UNL     1       0.377  -5.016   0.131  0.00  0.00    -0.048 Br
ENDBRANCH  15  22
ENDBRANCH   1  15
TORSDOF 5
