REMARK  Name = ZINC32223268
REMARK  8 active torsions:
REMARK  status: ('A' for Active; 'I' for Inactive)
REMARK    1  A    between atoms: C_1  and  C_2
REMARK    2  A    between atoms: C_5  and  S_8
REMARK    3  A    between atoms: S_8  and  N_11
REMARK    4  A    between atoms: N_11  and  C_12
REMARK    5  A    between atoms: C_12  and  C_13
REMARK    6  A    between atoms: C_13  and  C_15
REMARK    7  A    between atoms: C_13  and  N_21
REMARK    8  A    between atoms: N_21  and  C_22
REMARK                            x       y       z     vdW  Elec       q    Type
REMARK                         _______ _______ _______ _____ _____    ______ ____
ROOT
ATOM      1  C   UNL     1       3.737  -5.611   0.987  0.00  0.00    -0.025 C 
ENDROOT
BRANCH   1   2
ATOM      2  C   UNL     1       4.582  -5.163   2.152  0.00  0.00    -0.060 A 
ATOM      3  C   UNL     1       5.276  -3.969   2.084  0.00  0.00    +0.002 A 
ATOM      4  C   UNL     1       6.051  -3.557   3.152  0.00  0.00    +0.000 A 
ATOM      5  C   UNL     1       6.132  -4.340   4.288  0.00  0.00    +0.000 A 
ATOM      6  C   UNL     1       5.438  -5.534   4.357  0.00  0.00    +0.000 A 
ATOM      7  C   UNL     1       4.660  -5.943   3.290  0.00  0.00    +0.002 A 
ENDBRANCH   1   2
BRANCH   1   8
ATOM      8  N   UNL     1       4.438  -5.313  -0.269  0.00  0.00    +0.386 N 
ATOM      9  H   UNL     1       3.837  -5.533  -1.050  0.00  0.00    -0.085 HD
ATOM     10  H   UNL     1       4.679  -4.333  -0.296  0.00  0.00    -0.085 HD
BRANCH   8  11
ATOM     11  C   UNL     1       5.662  -6.121  -0.351  0.00  0.00    -0.071 C 
ATOM     12  C   UNL     1       6.468  -5.703  -1.583  0.00  0.00    -0.016 C 
ATOM     13  C   UNL     1       7.743  -6.544  -1.667  0.00  0.00    -0.002 C 
ATOM     14  C   UNL     1       7.371  -8.024  -1.780  0.00  0.00    -0.000 C 
ATOM     15  C   UNL     1       6.565  -8.442  -0.548  0.00  0.00    -0.002 C 
ATOM     16  C   UNL     1       5.290  -7.601  -0.463  0.00  0.00    -0.016 C 
ENDBRANCH   8  11
ENDBRANCH   1   8
BRANCH   1  17
ATOM     17  C   UNL     1       2.399  -4.870   1.013  0.00  0.00    +0.095 C 
BRANCH  17  18
ATOM     18  N   UNL     1       1.627  -5.215  -0.183  0.00  0.00    -0.191 NA
ATOM     19  H   UNL     1       2.062  -5.647  -0.934  0.00  0.00    +0.148 HD
BRANCH  18  20
ATOM     20  S   UNL     1       0.009  -4.868  -0.252  0.00  0.00    +0.058 S 
ATOM     21  O   UNL     1      -0.562  -5.348   0.957  0.00  0.00    -0.153 OA
ATOM     22  O   UNL     1      -0.444  -5.294  -1.530  0.00  0.00    -0.153 OA
BRANCH  20  27
ATOM     23  C   UNL     1      -0.535   1.140  -0.148  0.00  0.00    +0.044 C 
ATOM     24  C   UNL     1      -0.399  -0.360  -0.174  0.00  0.00    -0.050 A 
ATOM     25  C   UNL     1      -0.279  -1.022  -1.381  0.00  0.00    +0.005 A 
ATOM     26  C   UNL     1      -0.154  -2.399  -1.405  0.00  0.00    +0.029 A 
ATOM     27  C   UNL     1      -0.149  -3.113  -0.222  0.00  0.00    +0.105 A 
ATOM     28  C   UNL     1      -0.268  -2.451   0.986  0.00  0.00    +0.029 A 
ATOM     29  C   UNL     1      -0.389  -1.074   1.010  0.00  0.00    +0.005 A 
ENDBRANCH  20  27
ENDBRANCH  18  20
ENDBRANCH  17  18
ENDBRANCH   1  17
TORSDOF 7
