REMARK  Name = ZINC25520724
REMARK  7 active torsions:
REMARK  status: ('A' for Active; 'I' for Inactive)
REMARK    1  A    between atoms: C_1  and  C_2
REMARK    2  A    between atoms: C_2  and  C_4
REMARK    3  A    between atoms: C_2  and  N_19
REMARK    4  A    between atoms: N_6  and  C_7
REMARK    5  A    between atoms: C_7  and  C_8
REMARK    6  A    between atoms: N_22  and  C_25
REMARK    7  A    between atoms: C_30  and  O_31
REMARK                            x       y       z     vdW  Elec       q    Type
REMARK                         _______ _______ _______ _____ _____    ______ ____
ROOT
ATOM      1  C   UNL     1       5.149   5.246  -1.633  0.00  0.00    -0.004 C 
ATOM      2  C   UNL     1       4.310   5.737  -0.452  0.00  0.00    +0.016 C 
ENDROOT
BRANCH   2   3
ATOM      3  N   UNL     1       4.327   7.206  -0.416  0.00  0.00    +0.389 N 
ATOM      4  C   UNL     1       3.799   7.770  -1.666  0.00  0.00    -0.059 C 
ATOM      5  C   UNL     1       3.760   9.296  -1.558  0.00  0.00    +0.086 C 
ATOM      6  N   UNL     1       5.114   9.800  -1.286  0.00  0.00    -0.331 N 
ATOM      7  C   UNL     1       5.642   9.236  -0.036  0.00  0.00    +0.086 C 
ATOM      8  C   UNL     1       5.681   7.710  -0.144  0.00  0.00    -0.059 C 
ATOM      9  H   UNL     1       3.673   7.530   0.407  0.00  0.00    -0.081 HD
BRANCH   6  10
ATOM     10  C   UNL     1       5.130  11.199  -1.252  0.00  0.00    +0.072 A 
ATOM     11  C   UNL     1       3.938  11.909  -1.251  0.00  0.00    +0.027 A 
ATOM     12  C   UNL     1       3.957  13.291  -1.217  0.00  0.00    +0.002 A 
ATOM     13  C   UNL     1       5.162  13.968  -1.184  0.00  0.00    +0.004 A 
ATOM     14  C   UNL     1       6.354  13.267  -1.184  0.00  0.00    +0.047 A 
ATOM     15  C   UNL     1       6.343  11.883  -1.212  0.00  0.00    +0.138 A 
BRANCH  15  16
ATOM     16  O   UNL     1       7.515  11.192  -1.207  0.00  0.00    -0.505 OA
ATOM     17  H   UNL     1       8.472  11.733  -1.176  0.00  0.00    +0.292 HD
ENDBRANCH  15  16
ENDBRANCH   6  10
ENDBRANCH   2   3
BRANCH   2  18
ATOM     18  C   UNL     1       2.891   5.255  -0.609  0.00  0.00    +0.199 C 
ATOM     19  O   UNL     1       1.983   6.056  -0.684  0.00  0.00    -0.278 OA
ATOM     20  N   UNL     1       2.630   3.934  -0.667  0.00  0.00    -0.313 N 
ATOM     21  H   UNL     1       3.453   3.208  -0.599  0.00  0.00    +0.149 HD
BRANCH  20  22
ATOM     22  C   UNL     1       1.251   3.466  -0.820  0.00  0.00    +0.152 C 
BRANCH  22  23
ATOM     23  C   UNL     1       1.232   1.937  -0.857  0.00  0.00    +0.228 C 
ATOM     24  C   UNL     1      -0.192   1.443  -1.142  0.00  0.00    +0.275 C 
ATOM     25  O   UNL     1      -0.176   0.011  -1.157  0.00  0.00    -0.485 OA
ATOM     26  C   UNL     1       0.489  -0.604  -0.142  0.00  0.00    +0.162 A 
ATOM     27  C   UNL     1       0.255  -1.948   0.111  0.00  0.00    +0.049 A 
ATOM     28  C   UNL     1       0.925  -2.587   1.136  0.00  0.00    +0.004 A 
ATOM     29  C   UNL     1       1.832  -1.889   1.913  0.00  0.00    +0.004 A 
ATOM     30  C   UNL     1       2.070  -0.550   1.667  0.00  0.00    +0.049 A 
ATOM     31  C   UNL     1       1.399   0.098   0.640  0.00  0.00    +0.163 A 
ATOM     32  O   UNL     1       1.641   1.417   0.413  0.00  0.00    -0.480 OA
ENDBRANCH  22  23
ENDBRANCH  20  22
ENDBRANCH   2  18
TORSDOF 6
