REMARK  Name = ZINC38612446
REMARK  9 active torsions:
REMARK  status: ('A' for Active; 'I' for Inactive)
REMARK    1  A    between atoms: C_1  and  C_2
REMARK    2  A    between atoms: C_2  and  O_3
REMARK    3  A    between atoms: O_3  and  C_4
REMARK    4  A    between atoms: C_4  and  C_6
REMARK    5  A    between atoms: C_8  and  N_17
REMARK    6  A    between atoms: C_18  and  C_20
REMARK    7  A    between atoms: C_20  and  C_21
REMARK    8  A    between atoms: C_21  and  C_22
REMARK    9  A    between atoms: C_21  and  C_28
REMARK                            x       y       z     vdW  Elec       q    Type
REMARK                         _______ _______ _______ _____ _____    ______ ____
ROOT
ATOM      1  N   UNL     1       3.761  -1.294  -2.142  0.00  0.00    -0.286 N 
ATOM      2  C   UNL     1       5.077  -1.422  -1.883  0.00  0.00    +0.218 C 
ATOM      3  O   UNL     1       5.598  -2.517  -1.917  0.00  0.00    -0.275 OA
ATOM      4  H   UNL     1       3.350  -0.416  -2.145  0.00  0.00    +0.155 HD
ENDROOT
BRANCH   1   6
ATOM      5  C   UNL     1       1.543  -2.602  -2.073  0.00  0.00    +0.234 C 
ATOM      6  C   UNL     1       3.006  -2.400  -2.399  0.00  0.00    +0.053 C 
ATOM      7  C   UNL     1       3.420  -3.569  -3.013  0.00  0.00    +0.019 A 
ATOM      8  C   UNL     1       4.668  -3.982  -3.540  0.00  0.00    +0.026 A 
ATOM      9  C   UNL     1       4.788  -5.212  -4.097  0.00  0.00    +0.019 A 
ATOM     10  C   UNL     1       3.705  -6.094  -4.167  0.00  0.00    +0.017 A 
ATOM     11  C   UNL     1       2.483  -5.766  -3.683  0.00  0.00    +0.027 A 
ATOM     12  C   UNL     1       2.278  -4.496  -3.085  0.00  0.00    +0.045 A 
ATOM     13  N   UNL     1       1.204  -3.947  -2.550  0.00  0.00    -0.367 N 
ATOM     14 BR   UNL     1       6.461  -5.748  -4.797  0.00  0.00    -0.050 Br
ATOM     15  H   UNL     1       0.331  -4.364  -2.482  0.00  0.00    +0.161 HD
BRANCH   5  16
ATOM     16  C   UNL     1       1.325  -2.510  -0.585  0.00  0.00    +0.336 C 
ATOM     17  O   UNL     1       1.238  -3.517   0.077  0.00  0.00    -0.248 OA
BRANCH  16  18
ATOM     18  O   UNL     1       1.228  -1.308   0.006  0.00  0.00    -0.463 OA
BRANCH  18  20
ATOM     19  C   UNL     1       0.937   0.152   1.909  0.00  0.00    +0.048 C 
ATOM     20  C   UNL     1       1.022  -1.295   1.420  0.00  0.00    +0.229 C 
ENDBRANCH  18  20
ENDBRANCH  16  18
ENDBRANCH   5  16
ENDBRANCH   1   6
BRANCH   2  21
ATOM     21  C   UNL     1       5.902  -0.205  -1.552  0.00  0.00    +0.109 C 
BRANCH  21  22
ATOM     22  C   UNL     1       7.352  -0.624  -1.304  0.00  0.00    +0.058 C 
BRANCH  22  23
ATOM     23  C   UNL     1       7.943  -1.171  -2.578  0.00  0.00    -0.040 A 
ATOM     24  C   UNL     1       8.832  -2.228  -2.529  0.00  0.00    +0.004 A 
ATOM     25  C   UNL     1       9.374  -2.729  -3.698  0.00  0.00    +0.000 A 
ATOM     26  C   UNL     1       9.025  -2.174  -4.915  0.00  0.00    +0.000 A 
ATOM     27  C   UNL     1       8.135  -1.118  -4.964  0.00  0.00    +0.000 A 
ATOM     28  C   UNL     1       7.590  -0.619  -3.795  0.00  0.00    +0.004 A 
ENDBRANCH  22  23
BRANCH  22  29
ATOM     29  C   UNL     1       8.150   0.573  -0.853  0.00  0.00    -0.040 A 
ATOM     30  C   UNL     1       8.337   1.641  -1.710  0.00  0.00    +0.004 A 
ATOM     31  C   UNL     1       9.069   2.738  -1.297  0.00  0.00    +0.000 A 
ATOM     32  C   UNL     1       9.614   2.767  -0.027  0.00  0.00    +0.000 A 
ATOM     33  C   UNL     1       9.427   1.699   0.830  0.00  0.00    +0.000 A 
ATOM     34  C   UNL     1       8.691   0.604   0.419  0.00  0.00    +0.004 A 
ENDBRANCH  22  29
ENDBRANCH  21  22
ENDBRANCH   2  21
TORSDOF 8
