REMARK  Name = ZINC67481947
REMARK  6 active torsions:
REMARK  status: ('A' for Active; 'I' for Inactive)
REMARK    1  A    between atoms: C_1  and  C_2
REMARK    2  A    between atoms: N_4  and  C_5
REMARK    3  A    between atoms: N_13  and  C_14
REMARK    4  A    between atoms: C_14  and  C_15
REMARK    5  A    between atoms: N_20  and  C_21
REMARK    6  A    between atoms: C_21  and  C_22
REMARK                            x       y       z     vdW  Elec       q    Type
REMARK                         _______ _______ _______ _____ _____    ______ ____
ROOT
ATOM      1  C   UNL     1       0.153  -4.312  -0.549  0.00  0.00    +0.076 C 
ATOM      2  C   UNL     1      -1.074  -4.863  -1.279  0.00  0.00    +0.041 C 
ATOM      3  C   UNL     1      -2.328  -4.584  -0.445  0.00  0.00    +0.111 C 
ATOM      4  N   UNL     1      -2.130  -5.134   0.903  0.00  0.00    -0.286 N 
ATOM      5  C   UNL     1      -0.933  -4.740   1.659  0.00  0.00    +0.111 C 
ATOM      6  C   UNL     1       0.305  -5.017   0.801  0.00  0.00    +0.041 C 
ATOM      7  C   UNL     1      -3.031  -5.983   1.437  0.00  0.00    +0.302 C 
ATOM      8  O   UNL     1      -2.815  -6.499   2.517  0.00  0.00    -0.253 OA
ATOM      9  N   UNL     1      -4.170  -6.262   0.773  0.00  0.00    -0.301 N 
ATOM     10  H   UNL     1      -4.310  -5.909  -0.119  0.00  0.00    +0.150 HD
ENDROOT
BRANCH   1  14
ATOM     11  C   UNL     1       2.924  -3.916  -3.161  0.00  0.00    +0.109 C 
ATOM     12  C   UNL     1       1.692  -3.673  -2.327  0.00  0.00    +0.210 C 
ATOM     13  O   UNL     1       1.009  -2.691  -2.526  0.00  0.00    -0.276 OA
ATOM     14  N   UNL     1       1.350  -4.548  -1.360  0.00  0.00    -0.313 N 
ATOM     15  H   UNL     1       1.897  -5.333  -1.201  0.00  0.00    +0.149 HD
ENDBRANCH   1  14
BRANCH   9  16
ATOM     16  C   UNL     1      -5.198  -7.097   1.400  0.00  0.00    +0.090 C 
BRANCH  16  17
ATOM     17  C   UNL     1      -6.380  -7.257   0.442  0.00  0.00    -0.051 C 
ATOM     18  C   UNL     1      -7.536  -7.991   1.153  0.00  0.00    -0.016 C 
ATOM     19  C   UNL     1      -8.453  -6.830   1.619  0.00  0.00    -0.020 C 
ATOM     20  C   UNL     1      -8.301  -5.823   0.452  0.00  0.00    -0.078 C 
ATOM     21  N   UNL     1      -6.882  -5.930   0.039  0.00  0.00    +0.383 N 
ATOM     22  H   UNL     1      -6.340  -5.210   0.493  0.00  0.00    -0.081 HD
BRANCH  21  23
ATOM     23  C   UNL     1      -6.774  -5.783  -1.418  0.00  0.00    -0.075 C 
BRANCH  23  24
ATOM     24  C   UNL     1      -7.190  -4.366  -1.819  0.00  0.00    -0.028 C 
ATOM     25  C   UNL     1      -7.146  -4.234  -3.343  0.00  0.00    +0.002 C 
ATOM     26  C   UNL     1      -7.562  -2.817  -3.744  0.00  0.00    +0.000 C 
ATOM     27  C   UNL     1      -6.599  -1.807  -3.117  0.00  0.00    +0.000 C 
ATOM     28  C   UNL     1      -6.642  -1.939  -1.594  0.00  0.00    +0.000 C 
ATOM     29  C   UNL     1      -6.227  -3.356  -1.192  0.00  0.00    +0.002 C 
ENDBRANCH  23  24
ENDBRANCH  21  23
ENDBRANCH  16  17
ENDBRANCH   9  16
TORSDOF 5
