REMARK  Name = ZINC12487311
REMARK  9 active torsions:
REMARK  status: ('A' for Active; 'I' for Inactive)
REMARK    1  A    between atoms: C_4  and  C_7
REMARK    2  A    between atoms: C_7  and  C_9
REMARK    3  A    between atoms: C_7  and  N_18
REMARK    4  A    between atoms: N_11  and  C_12
REMARK    5  A    between atoms: C_12  and  C_13
REMARK    6  A    between atoms: N_18  and  C_19
REMARK    7  A    between atoms: C_26  and  C_28
REMARK    8  A    between atoms: C_28  and  N_29
REMARK    9  A    between atoms: C_30  and  C_32
REMARK                            x       y       z     vdW  Elec       q    Type
REMARK                         _______ _______ _______ _____ _____    ______ ____
ROOT
ATOM      1  N   UNL     1       2.342   3.987  -0.303  0.00  0.00    -0.253 N 
ATOM      2  C   UNL     1       2.618   4.897   0.651  0.00  0.00    +0.238 C 
ATOM      3  O   UNL     1       1.963   5.916   0.725  0.00  0.00    -0.274 OA
ENDROOT
BRANCH   1   4
ATOM      4  C   UNL     1       3.098   2.811  -0.388  0.00  0.00    +0.056 A 
ATOM      5  C   UNL     1       2.681   1.666   0.277  0.00  0.00    +0.025 A 
ATOM      6  C   UNL     1       3.428   0.508   0.191  0.00  0.00    +0.002 A 
ATOM      7  C   UNL     1       4.592   0.488  -0.557  0.00  0.00    +0.002 A 
ATOM      8  C   UNL     1       5.011   1.626  -1.220  0.00  0.00    +0.022 A 
ATOM      9  C   UNL     1       4.268   2.789  -1.138  0.00  0.00    +0.062 A 
ATOM     10 CL   UNL     1       4.795   4.218  -1.970  0.00  0.00    -0.082 Cl
ENDBRANCH   1   4
BRANCH   1  11
ATOM     11  C   UNL     1       1.252   4.226  -1.251  0.00  0.00    +0.197 C 
BRANCH  11  15
ATOM     12  C   UNL     1      -2.428   4.623   0.882  0.00  0.00    +0.000 A 
ATOM     13  C   UNL     1      -2.095   5.540  -0.098  0.00  0.00    +0.000 A 
ATOM     14  C   UNL     1      -0.904   5.411  -0.788  0.00  0.00    +0.006 A 
ATOM     15  C   UNL     1      -0.047   4.367  -0.499  0.00  0.00    -0.018 A 
ATOM     16  C   UNL     1      -0.383   3.447   0.477  0.00  0.00    +0.006 A 
ATOM     17  C   UNL     1      -1.571   3.578   1.171  0.00  0.00    +0.000 A 
ENDBRANCH  11  15
BRANCH  11  18
ATOM     18  C   UNL     1       1.154   3.067  -2.209  0.00  0.00    +0.239 C 
ATOM     19  O   UNL     1       1.248   1.930  -1.796  0.00  0.00    -0.273 OA
ATOM     20  N   UNL     1       0.964   3.293  -3.524  0.00  0.00    -0.306 N 
ATOM     21  H   UNL     1       0.889   4.202  -3.854  0.00  0.00    +0.149 HD
BRANCH  20  22
ATOM     22  C   UNL     1       0.870   2.166  -4.455  0.00  0.00    +0.178 C 
BRANCH  22  23
ATOM     23  C   UNL     1       0.658   2.686  -5.853  0.00  0.00    +0.122 A 
ATOM     24  C   UNL     1       1.628   2.991  -6.734  0.00  0.00    +0.046 A 
ATOM     25  C   UNL     1       0.986   3.439  -7.912  0.00  0.00    +0.041 A 
ATOM     26  C   UNL     1      -0.338   3.380  -7.680  0.00  0.00    +0.195 A 
ATOM     27  O   UNL     1      -0.531   2.918  -6.434  0.00  0.00    -0.466 OA
ENDBRANCH  22  23
ENDBRANCH  20  22
ENDBRANCH  11  18
ENDBRANCH   1  11
BRANCH   2  28
ATOM     28  C   UNL     1       3.740   4.651   1.627  0.00  0.00    +0.201 C 
BRANCH  28  29
ATOM     29  N   UNL     1       3.836   5.779   2.556  0.00  0.00    -0.300 N 
ATOM     30  C   UNL     1       4.775   5.778   3.523  0.00  0.00    +0.280 C 
ATOM     31  O   UNL     1       5.543   4.839   3.624  0.00  0.00    -0.267 OA
ATOM     32  H   UNL     1       3.224   6.527   2.475  0.00  0.00    +0.150 HD
BRANCH  30  33
ATOM     33  C   UNL     1       4.871   6.907   4.453  0.00  0.00    +0.189 A 
ATOM     34  C   UNL     1       5.771   7.033   5.473  0.00  0.00    +0.054 A 
ATOM     35  C   UNL     1       5.503   8.260   6.099  0.00  0.00    +0.042 A 
ATOM     36  C   UNL     1       4.465   8.823   5.442  0.00  0.00    +0.196 A 
ATOM     37  O   UNL     1       4.091   8.008   4.448  0.00  0.00    -0.458 OA
ENDBRANCH  30  33
ENDBRANCH  28  29
ENDBRANCH   2  28
TORSDOF 9
