REMARK  Name = ZINC29698331
REMARK  10 active torsions:
REMARK  status: ('A' for Active; 'I' for Inactive)
REMARK    1  A    between atoms: C_1  and  C_2
REMARK    2  A    between atoms: C_8  and  N_10
REMARK    3  A    between atoms: C_14  and  C_16
REMARK    4  A    between atoms: C_16  and  N_17
REMARK    5  A    between atoms: N_17  and  C_18
REMARK    6  A    between atoms: N_17  and  C_33
REMARK    7  A    between atoms: C_18  and  C_19
REMARK    8  A    between atoms: C_22  and  C_25
REMARK    9  A    between atoms: N_27  and  C_28
REMARK   10  A    between atoms: C_28  and  C_29
REMARK                            x       y       z     vdW  Elec       q    Type
REMARK                         _______ _______ _______ _____ _____    ______ ____
ROOT
ATOM      1  N   UNL     1      -7.665   1.216  -3.286  0.00  0.00    +0.390 N 
ATOM      2  H   UNL     1      -7.935   0.257  -2.819  0.00  0.00    -0.080 HD
ENDROOT
BRANCH   1   3
ATOM      3  C   UNL     1      -8.014   2.289  -2.346  0.00  0.00    -0.068 C 
ATOM      4  C   UNL     1      -6.910   3.275  -1.958  0.00  0.00    -0.017 C 
ATOM      5  C   UNL     1      -7.395   2.233  -0.948  0.00  0.00    -0.017 C 
ENDBRANCH   1   3
BRANCH   1   6
ATOM      6  C   UNL     1      -6.220   1.197  -3.550  0.00  0.00    +0.020 C 
BRANCH   6  11
ATOM      7  N   UNL     1      -2.988  -1.687  -5.636  0.00  0.00    -0.296 N 
ATOM      8  C   UNL     1      -4.247  -1.487  -5.199  0.00  0.00    +0.306 C 
ATOM      9  O   UNL     1      -5.079  -2.365  -5.320  0.00  0.00    -0.252 OA
ATOM     10  N   UNL     1      -4.584  -0.314  -4.627  0.00  0.00    -0.242 N 
ATOM     11  C   UNL     1      -5.843  -0.115  -4.190  0.00  0.00    +0.204 C 
ATOM     12  O   UNL     1      -6.673  -0.990  -4.311  0.00  0.00    -0.277 OA
ATOM     13  H   UNL     1      -2.235  -0.892  -5.526  0.00  0.00    +0.151 HD
ATOM     14  H   UNL     1      -3.831   0.480  -4.517  0.00  0.00    +0.159 HD
BRANCH   7  21
ATOM     15  C   UNL     1      -0.764  -3.232  -4.609  0.00  0.00    +0.009 C 
ATOM     16  C   UNL     1      -1.118  -3.194  -6.097  0.00  0.00    +0.006 C 
ATOM     17  C   UNL     1      -0.736  -4.526  -6.745  0.00  0.00    +0.005 C 
ATOM     18  C   UNL     1      -1.090  -4.489  -8.233  0.00  0.00    +0.000 C 
ATOM     19  C   UNL     1      -2.594  -4.256  -8.394  0.00  0.00    +0.002 C 
ATOM     20  C   UNL     1      -2.976  -2.925  -7.745  0.00  0.00    +0.022 C 
ATOM     21  C   UNL     1      -2.622  -2.962  -6.257  0.00  0.00    +0.077 C 
ENDBRANCH   7  21
ENDBRANCH   6  11
ENDBRANCH   1   6
BRANCH   1  22
ATOM     22  C   UNL     1      -8.427   1.341  -4.535  0.00  0.00    -0.042 C 
BRANCH  22  23
ATOM     23  C   UNL     1      -9.890   1.111  -4.255  0.00  0.00    -0.064 A 
ATOM     24  C   UNL     1     -10.415  -0.167  -4.339  0.00  0.00    +0.002 A 
ATOM     25  C   UNL     1     -11.752  -0.384  -4.080  0.00  0.00    +0.013 A 
ATOM     26  C   UNL     1     -12.579   0.689  -3.743  0.00  0.00    +0.037 A 
ATOM     27  C   UNL     1     -12.044   1.976  -3.665  0.00  0.00    +0.013 A 
ATOM     28  C   UNL     1     -10.704   2.179  -3.922  0.00  0.00    +0.002 A 
BRANCH  26  29
ATOM     29  C   UNL     1     -14.014   0.464  -3.470  0.00  0.00    +0.244 C 
ATOM     30  O   UNL     1     -14.731   1.400  -3.177  0.00  0.00    -0.270 OA
ATOM     31  N   UNL     1     -14.527  -0.780  -3.546  0.00  0.00    -0.303 N 
ATOM     32  H   UNL     1     -13.878  -1.628  -3.811  0.00  0.00    +0.149 HD
BRANCH  31  33
ATOM     33  C   UNL     1     -15.950  -1.004  -3.275  0.00  0.00    +0.217 C 
BRANCH  33  34
ATOM     34  C   UNL     1     -16.271  -2.492  -3.428  0.00  0.00    +0.405 C 
ATOM     35  F   UNL     1     -15.502  -3.230  -2.522  0.00  0.00    -0.169 F 
ATOM     36  F   UNL     1     -17.629  -2.705  -3.170  0.00  0.00    -0.169 F 
ATOM     37  F   UNL     1     -15.975  -2.901  -4.733  0.00  0.00    -0.169 F 
ENDBRANCH  33  34
ENDBRANCH  31  33
ENDBRANCH  26  29
ENDBRANCH  22  23
ENDBRANCH   1  22
TORSDOF 9
