REMARK  Name = ZINC02834247
REMARK  10 active torsions:
REMARK  status: ('A' for Active; 'I' for Inactive)
REMARK    1  A    between atoms: C_1  and  C_2
REMARK    2  A    between atoms: C_2  and  O_3
REMARK    3  A    between atoms: O_3  and  C_4
REMARK    4  A    between atoms: C_7  and  C_10
REMARK    5  A    between atoms: C_10  and  C_12
REMARK    6  A    between atoms: C_10  and  N_24
REMARK    7  A    between atoms: C_18  and  C_23
REMARK    8  A    between atoms: C_21  and  O_22
REMARK    9  A    between atoms: N_24  and  C_25
REMARK   10  A    between atoms: C_29  and  C_30
REMARK                            x       y       z     vdW  Elec       q    Type
REMARK                         _______ _______ _______ _____ _____    ______ ____
ROOT
ATOM      1  C   UNL     1       4.797   4.114  -0.022  0.00  0.00    +0.136 C 
ENDROOT
BRANCH   1   2
ATOM      2  C   UNL     1       3.570   3.240   0.016  0.00  0.00    +0.021 A 
ATOM      3  C   UNL     1       3.705   1.861  -0.121  0.00  0.00    +0.010 A 
ATOM      4  C   UNL     1       2.617   1.044  -0.090  0.00  0.00    +0.010 A 
ATOM      5  C   UNL     1       1.336   1.596   0.081  0.00  0.00    +0.004 A 
ATOM      6  C   UNL     1       0.187   0.783   0.117  0.00  0.00    +0.012 A 
ATOM      7  C   UNL     1      -1.025   1.390   0.281  0.00  0.00    +0.023 A 
ATOM      8  C   UNL     1      -1.097   2.775   0.417  0.00  0.00    +0.039 A 
ATOM      9  N   UNL     1      -0.025   3.527   0.383  0.00  0.00    -0.248 NA
ATOM     10  C   UNL     1       1.191   2.998   0.221  0.00  0.00    +0.113 A 
ATOM     11  C   UNL     1       2.342   3.813   0.184  0.00  0.00    +0.148 A 
ATOM     12  C   UNL     1      -2.445   3.425   0.602  0.00  0.00    +0.065 C 
BRANCH  11  13
ATOM     13  O   UNL     1       2.229   5.160   0.316  0.00  0.00    -0.504 OA
ATOM     14  H   UNL     1       2.113   5.629  -0.521  0.00  0.00    +0.292 HD
ENDBRANCH  11  13
ENDBRANCH   1   2
BRANCH   1  18
ATOM     15  C   UNL     1       5.437   5.499  -4.014  0.00  0.00    +0.121 A 
ATOM     16  C   UNL     1       4.953   6.367  -3.046  0.00  0.00    +0.046 A 
ATOM     17  C   UNL     1       4.747   5.917  -1.756  0.00  0.00    +0.009 A 
ATOM     18  C   UNL     1       5.023   4.602  -1.430  0.00  0.00    -0.023 A 
ATOM     19  C   UNL     1       5.511   3.736  -2.391  0.00  0.00    +0.009 A 
ATOM     20  C   UNL     1       5.713   4.180  -3.683  0.00  0.00    +0.046 A 
BRANCH  15  21
ATOM     21  O   UNL     1       5.641   5.940  -5.283  0.00  0.00    -0.492 OA
BRANCH  21  23
ATOM     22  C   UNL     1       6.306   5.665  -7.590  0.00  0.00    +0.048 C 
ATOM     23  C   UNL     1       6.141   4.990  -6.227  0.00  0.00    +0.225 C 
ENDBRANCH  21  23
ENDBRANCH  15  21
ENDBRANCH   1  18
BRANCH   1  24
ATOM     24  N   UNL     1       5.961   3.341   0.419  0.00  0.00    -0.320 N 
ATOM     25  H   UNL     1       6.564   2.955  -0.236  0.00  0.00    +0.148 HD
BRANCH  24  26
ATOM     26  C   UNL     1       6.201   3.160   1.776  0.00  0.00    +0.097 A 
ATOM     27  C   UNL     1       5.395   3.801   2.711  0.00  0.00    +0.041 A 
ATOM     28  C   UNL     1       5.646   3.612   4.058  0.00  0.00    +0.005 A 
ATOM     29  C   UNL     1       6.698   2.785   4.426  0.00  0.00    +0.021 A 
ATOM     30  C   UNL     1       7.458   2.180   3.446  0.00  0.00    +0.014 A 
ATOM     31  C   UNL     1       8.602   1.281   3.840  0.00  0.00    +0.063 C 
ATOM     32  N   UNL     1       7.237   2.338   2.113  0.00  0.00    -0.347 N 
ATOM     33  H   UNL     1       7.813   1.868   1.405  0.00  0.00    +0.167 HD
ENDBRANCH  24  26
ENDBRANCH   1  24
TORSDOF 7
