REMARK  Name = ZINC36530950
REMARK  9 active torsions:
REMARK  status: ('A' for Active; 'I' for Inactive)
REMARK    1  A    between atoms: C_1  and  N_2
REMARK    2  A    between atoms: N_2  and  C_3
REMARK    3  A    between atoms: C_3  and  C_5
REMARK    4  A    between atoms: C_3  and  C_12
REMARK    5  A    between atoms: C_8  and  O_11
REMARK    6  A    between atoms: N_14  and  C_15
REMARK    7  A    between atoms: C_21  and  C_23
REMARK    8  A    between atoms: C_24  and  O_30
REMARK    9  A    between atoms: C_28  and  O_29
REMARK                            x       y       z     vdW  Elec       q    Type
REMARK                         _______ _______ _______ _____ _____    ______ ____
ROOT
ATOM      1  C   UNL     1       0.135  -0.742   1.261  0.00  0.00    +0.192 C 
ENDROOT
BRANCH   1   2
ATOM      2  C   UNL     1       1.368  -0.274   1.989  0.00  0.00    -0.018 A 
ATOM      3  C   UNL     1       2.425  -1.144   2.186  0.00  0.00    +0.009 A 
ATOM      4  C   UNL     1       3.557  -0.718   2.854  0.00  0.00    +0.046 A 
ATOM      5  C   UNL     1       3.632   0.583   3.327  0.00  0.00    +0.117 A 
ATOM      6  C   UNL     1       2.571   1.454   3.128  0.00  0.00    +0.046 A 
ATOM      7  C   UNL     1       1.444   1.025   2.455  0.00  0.00    +0.009 A 
BRANCH   5   8
ATOM      8  O   UNL     1       4.745   1.005   3.985  0.00  0.00    -0.507 OA
ATOM      9  H   UNL     1       5.422   1.384   3.409  0.00  0.00    +0.292 HD
ENDBRANCH   5   8
ENDBRANCH   1   2
BRANCH   1  11
ATOM     10  C   UNL     1      -0.523   1.586   0.494  0.00  0.00    +0.133 C 
ATOM     11  N   UNL     1      -0.179   0.197   0.181  0.00  0.00    -0.285 N 
ATOM     12  C   UNL     1      -0.152  -0.218  -1.101  0.00  0.00    +0.254 C 
ATOM     13  O   UNL     1       0.133  -1.371  -1.362  0.00  0.00    -0.270 OA
BRANCH  12  14
ATOM     14  C   UNL     1      -0.468   0.726  -2.187  0.00  0.00    +0.119 A 
ATOM     15  C   UNL     1       0.551   1.480  -2.786  0.00  0.00    +0.133 A 
ATOM     16  C   UNL     1       0.243   2.364  -3.807  0.00  0.00    +0.046 A 
ATOM     17  C   UNL     1      -1.064   2.504  -4.236  0.00  0.00    +0.007 A 
ATOM     18  C   UNL     1      -2.076   1.766  -3.652  0.00  0.00    +0.046 A 
ATOM     19  C   UNL     1      -1.790   0.872  -2.634  0.00  0.00    +0.133 A 
BRANCH  19  20
ATOM     20  O   UNL     1      -2.784   0.144  -2.067  0.00  0.00    -0.506 OA
ATOM     21  H   UNL     1      -3.203   0.574  -1.308  0.00  0.00    +0.292 HD
ENDBRANCH  19  20
BRANCH  15  22
ATOM     22  O   UNL     1       1.834   1.344  -2.367  0.00  0.00    -0.506 OA
ATOM     23  H   UNL     1       2.333   0.663  -2.839  0.00  0.00    +0.292 HD
ENDBRANCH  15  22
ENDBRANCH  12  14
ENDBRANCH   1  11
BRANCH   1  24
ATOM     24  C   UNL     1      -1.023  -0.806   2.223  0.00  0.00    +0.238 C 
ATOM     25  O   UNL     1      -2.013  -0.134   2.026  0.00  0.00    -0.273 OA
ATOM     26  N   UNL     1      -0.959  -1.610   3.303  0.00  0.00    -0.311 N 
ATOM     27  H   UNL     1      -0.167  -2.148   3.460  0.00  0.00    +0.149 HD
BRANCH  26  28
ATOM     28  C   UNL     1      -2.084  -1.672   4.238  0.00  0.00    +0.073 C 
ATOM     29  C   UNL     1      -1.963  -0.538   5.258  0.00  0.00    +0.022 C 
ATOM     30  C   UNL     1      -3.138  -0.603   6.235  0.00  0.00    +0.002 C 
ATOM     31  C   UNL     1      -3.122  -1.949   6.964  0.00  0.00    +0.000 C 
ATOM     32  C   UNL     1      -3.243  -3.083   5.944  0.00  0.00    +0.002 C 
ATOM     33  C   UNL     1      -2.068  -3.018   4.967  0.00  0.00    +0.022 C 
ENDBRANCH  26  28
ENDBRANCH   1  24
TORSDOF 8
