REMARK  Name = ZINC60928878
REMARK  13 active torsions:
REMARK  status: ('A' for Active; 'I' for Inactive)
REMARK    1  A    between atoms: C_1  and  C_2
REMARK    2  A    between atoms: C_3  and  C_23
REMARK    3  A    between atoms: C_4  and  C_22
REMARK    4  A    between atoms: C_5  and  S_10
REMARK    5  A    between atoms: C_6  and  C_9
REMARK    6  A    between atoms: C_7  and  C_8
REMARK    7  A    between atoms: S_10  and  C_13
REMARK    8  A    between atoms: C_13  and  C_14
REMARK    9  A    between atoms: C_13  and  C_15
REMARK   10  A    between atoms: N_17  and  C_18
REMARK   11  A    between atoms: C_18  and  C_19
REMARK   12  A    between atoms: C_18  and  C_20
REMARK   13  A    between atoms: C_18  and  C_21
REMARK                            x       y       z     vdW  Elec       q    Type
REMARK                         _______ _______ _______ _____ _____    ______ ____
ROOT
ATOM      1  S   UNL     1      -0.939  -4.380   0.028  0.00  0.00    +0.008 S 
ATOM      2  O   UNL     1      -1.685  -4.508   1.230  0.00  0.00    -0.169 OA
ATOM      3  O   UNL     1      -1.560  -4.575  -1.235  0.00  0.00    -0.169 OA
ENDROOT
BRANCH   1   8
ATOM      4  C   UNL     1       0.908   1.364  -0.036  0.00  0.00    +0.044 C 
ATOM      5  C   UNL     1       0.447  -0.071  -0.020  0.00  0.00    -0.044 A 
ATOM      6  C   UNL     1       0.126  -0.680   1.179  0.00  0.00    -0.043 A 
ATOM      7  C   UNL     1      -0.297  -1.996   1.193  0.00  0.00    -0.022 A 
ATOM      8  C   UNL     1      -0.400  -2.702   0.009  0.00  0.00    +0.095 A 
ATOM      9  C   UNL     1      -0.080  -2.092  -1.190  0.00  0.00    -0.022 A 
ATOM     10  C   UNL     1       0.339  -0.775  -1.204  0.00  0.00    -0.043 A 
ATOM     11  C   UNL     1       0.682  -0.108  -2.511  0.00  0.00    +0.044 C 
ATOM     12  C   UNL     1      -0.192  -2.862  -2.480  0.00  0.00    +0.046 C 
ATOM     13  C   UNL     1      -0.646  -2.661   2.500  0.00  0.00    +0.046 C 
ATOM     14  C   UNL     1       0.238   0.089   2.469  0.00  0.00    +0.044 C 
ENDBRANCH   1   8
BRANCH   1  15
ATOM     15  C   UNL     1       0.586  -5.358   0.131  0.00  0.00    +0.218 C 
ATOM     16  C   UNL     1       1.341  -4.991   1.411  0.00  0.00    +0.042 C 
BRANCH  15  17
ATOM     17  C   UNL     1       0.241  -6.825   0.154  0.00  0.00    +0.238 C 
ATOM     18  O   UNL     1      -0.875  -7.181   0.467  0.00  0.00    -0.274 OA
ATOM     19  N   UNL     1       1.173  -7.741  -0.174  0.00  0.00    -0.309 N 
ATOM     20  H   UNL     1       2.066  -7.456  -0.424  0.00  0.00    +0.149 HD
BRANCH  19  21
ATOM     21  C   UNL     1       0.839  -9.167  -0.152  0.00  0.00    +0.026 C 
ATOM     22  C   UNL     1      -0.306  -9.437  -1.131  0.00  0.00    +0.031 C 
ATOM     23  C   UNL     1       2.064  -9.985  -0.562  0.00  0.00    +0.031 C 
ATOM     24  C   UNL     1       0.407  -9.568   1.260  0.00  0.00    +0.031 C 
ENDBRANCH  19  21
ENDBRANCH  15  17
ENDBRANCH   1  15
TORSDOF 4
