REMARK  Name = ZINC36602547
REMARK  14 active torsions:
REMARK  status: ('A' for Active; 'I' for Inactive)
REMARK    1  A    between atoms: C_1  and  C_2
REMARK    2  A    between atoms: C_2  and  C_3
REMARK    3  A    between atoms: C_3  and  C_4
REMARK    4  A    between atoms: C_4  and  N_5
REMARK    5  A    between atoms: C_6  and  C_8
REMARK    6  A    between atoms: C_8  and  C_10
REMARK    7  A    between atoms: C_8  and  N_19
REMARK    8  A    between atoms: C_11  and  O_18
REMARK    9  A    between atoms: C_13  and  O_17
REMARK   10  A    between atoms: C_15  and  O_16
REMARK   11  A    between atoms: N_19  and  C_20
REMARK   12  A    between atoms: C_20  and  C_21
REMARK   13  A    between atoms: C_24  and  C_26
REMARK   14  A    between atoms: C_27  and  C_29
REMARK                            x       y       z     vdW  Elec       q    Type
REMARK                         _______ _______ _______ _____ _____    ______ ____
ROOT
ATOM      1  C   UNL     1      -4.551  -4.341   0.271  0.00  0.00    +0.200 C 
ENDROOT
BRANCH   1   2
ATOM      2  C   UNL     1      -4.670  -3.626  -1.051  0.00  0.00    +0.065 A 
ATOM      3  C   UNL     1      -3.883  -4.016  -2.124  0.00  0.00    +0.129 A 
ATOM      4  C   UNL     1      -3.993  -3.359  -3.340  0.00  0.00    +0.091 A 
ATOM      5  C   UNL     1      -4.891  -2.311  -3.483  0.00  0.00    +0.124 A 
ATOM      6  C   UNL     1      -5.679  -1.922  -2.410  0.00  0.00    +0.091 A 
ATOM      7  C   UNL     1      -5.572  -2.582  -1.195  0.00  0.00    +0.129 A 
BRANCH   7   8
ATOM      8  O   UNL     1      -6.347  -2.204  -0.145  0.00  0.00    -0.506 OA
ATOM      9  H   UNL     1      -5.949  -1.521   0.412  0.00  0.00    +0.292 HD
ENDBRANCH   7   8
BRANCH   5  10
ATOM     10  O   UNL     1      -4.998  -1.667  -4.674  0.00  0.00    -0.507 OA
ATOM     11  H   UNL     1      -5.655  -2.050  -5.271  0.00  0.00    +0.292 HD
ENDBRANCH   5  10
BRANCH   3  12
ATOM     12  O   UNL     1      -3.004  -5.043  -1.983  0.00  0.00    -0.506 OA
ATOM     13  H   UNL     1      -3.384  -5.914  -2.160  0.00  0.00    +0.292 HD
ENDBRANCH   3  12
ENDBRANCH   1   2
BRANCH   1  15
ATOM     14  N   UNL     1      -3.922  -2.161   1.256  0.00  0.00    -0.313 N 
ATOM     15  C   UNL     1      -3.748  -3.497   1.227  0.00  0.00    +0.238 C 
ATOM     16  O   UNL     1      -2.945  -4.020   1.970  0.00  0.00    -0.273 OA
ATOM     17  H   UNL     1      -4.564  -1.742   0.662  0.00  0.00    +0.149 HD
BRANCH  14  18
ATOM     18  C   UNL     1      -3.142  -1.340   2.186  0.00  0.00    +0.104 C 
BRANCH  18  19
ATOM     19  C   UNL     1      -3.529   0.130   2.018  0.00  0.00    +0.018 C 
BRANCH  19  21
ATOM     20  C   UNL     1      -3.102   2.457   2.820  0.00  0.00    +0.004 C 
ATOM     21  C   UNL     1      -2.714   0.987   2.989  0.00  0.00    -0.002 C 
ENDBRANCH  19  21
ENDBRANCH  18  19
ENDBRANCH  14  18
ENDBRANCH   1  15
BRANCH   1  22
ATOM     22  N   UNL     1      -3.878  -5.627   0.071  0.00  0.00    -0.274 N 
ATOM     23  C   UNL     1      -4.605  -6.742  -0.135  0.00  0.00    +0.249 C 
ATOM     24  O   UNL     1      -4.048  -7.795  -0.376  0.00  0.00    -0.270 OA
BRANCH  23  25
ATOM     25  C   UNL     1      -6.080  -6.686  -0.068  0.00  0.00    +0.055 A 
ATOM     26  C   UNL     1      -6.753  -5.511  -0.408  0.00  0.00    +0.014 A 
ATOM     27  C   UNL     1      -8.130  -5.465  -0.344  0.00  0.00    +0.001 A 
ATOM     28  C   UNL     1      -8.846  -6.580   0.056  0.00  0.00    +0.001 A 
ATOM     29  C   UNL     1      -8.187  -7.748   0.395  0.00  0.00    +0.021 A 
ATOM     30  C   UNL     1      -6.808  -7.810   0.329  0.00  0.00    +0.053 A 
ATOM     31 CL   UNL     1      -5.983  -9.279   0.747  0.00  0.00    -0.083 Cl
ENDBRANCH  23  25
BRANCH  22  32
ATOM     32  C   UNL     1      -2.415  -5.700   0.096  0.00  0.00    +0.183 C 
BRANCH  32  33
ATOM     33  C   UNL     1      -1.978  -6.653   1.179  0.00  0.00    +0.122 A 
ATOM     34  C   UNL     1      -1.774  -7.974   1.029  0.00  0.00    +0.046 A 
ATOM     35  C   UNL     1      -1.376  -8.473   2.291  0.00  0.00    +0.045 A 
ATOM     36  C   UNL     1      -1.361  -7.426   3.136  0.00  0.00    +0.102 A 
ATOM     37  O   UNL     1      -1.721  -6.326   2.456  0.00  0.00    -0.463 OA
ATOM     38  C   UNL     1      -0.997  -7.480   4.598  0.00  0.00    +0.086 C 
ENDBRANCH  32  33
ENDBRANCH  22  32
ENDBRANCH   1  22
TORSDOF 12
