REMARK  Name = ZINC40853229
REMARK  11 active torsions:
REMARK  status: ('A' for Active; 'I' for Inactive)
REMARK    1  A    between atoms: C_1  and  O_2
REMARK    2  A    between atoms: O_2  and  C_3
REMARK    3  A    between atoms: C_5  and  C_18
REMARK    4  A    between atoms: C_8  and  O_9
REMARK    5  A    between atoms: O_9  and  C_10
REMARK    6  A    between atoms: C_10  and  C_11
REMARK    7  A    between atoms: N_19  and  N_20
REMARK    8  A    between atoms: C_21  and  C_23
REMARK    9  A    between atoms: C_23  and  O_24
REMARK   10  A    between atoms: O_24  and  C_25
REMARK   11  A    between atoms: C_30  and  N_31
REMARK                            x       y       z     vdW  Elec       q    Type
REMARK                         _______ _______ _______ _____ _____    ______ ____
ROOT
ATOM      1  C   UNL     1       1.160  -0.551  -0.779  0.00  0.00    +0.162 A 
ATOM      2  C   UNL     1       1.318   0.111  -1.982  0.00  0.00    +0.059 A 
ATOM      3  C   UNL     1       2.248  -0.354  -2.915  0.00  0.00    -0.002 A 
ATOM      4  C   UNL     1       3.013  -1.487  -2.627  0.00  0.00    +0.013 A 
ATOM      5  C   UNL     1       2.850  -2.142  -1.425  0.00  0.00    +0.050 A 
ATOM      6  C   UNL     1       1.931  -1.676  -0.497  0.00  0.00    +0.162 A 
ENDROOT
BRANCH   1   8
ATOM      7  C   UNL     1      -0.500   1.059  -0.224  0.00  0.00    +0.277 C 
ATOM      8  O   UNL     1       0.256  -0.100   0.132  0.00  0.00    -0.491 OA
ENDBRANCH   1   8
BRANCH   3   9
ATOM      9  C   UNL     1       2.420   0.347  -4.200  0.00  0.00    +0.138 C 
ATOM     10  N   UNL     1       3.055  -0.229  -5.174  0.00  0.00    -0.188 NA
BRANCH  10  11
ATOM     11  N   UNL     1       3.105  -1.627  -5.247  0.00  0.00    -0.204 N 
ATOM     12  C   UNL     1       3.871  -2.227  -6.180  0.00  0.00    +0.270 C 
ATOM     13  O   UNL     1       4.518  -1.555  -6.957  0.00  0.00    -0.270 OA
ATOM     14  H   UNL     1       2.588  -2.164  -4.626  0.00  0.00    +0.177 HD
BRANCH  12  15
ATOM     15  C   UNL     1       3.926  -3.731  -6.258  0.00  0.00    +0.326 C 
BRANCH  15  16
ATOM     16  O   UNL     1       4.799  -4.121  -7.319  0.00  0.00    -0.480 OA
BRANCH  16  17
ATOM     17  C   UNL     1       4.961  -5.455  -7.527  0.00  0.00    +0.151 A 
ATOM     18  C   UNL     1       4.288  -6.368  -6.728  0.00  0.00    +0.048 A 
ATOM     19  C   UNL     1       4.453  -7.723  -6.941  0.00  0.00    +0.004 A 
ATOM     20  C   UNL     1       5.289  -8.169  -7.949  0.00  0.00    +0.002 A 
ATOM     21  C   UNL     1       5.962  -7.260  -8.745  0.00  0.00    +0.036 A 
ATOM     22  C   UNL     1       5.795  -5.904  -8.540  0.00  0.00    +0.168 A 
BRANCH  22  23
ATOM     23  N   UNL     1       6.510  -4.932  -9.396  0.00  0.00    +0.060 N 
ATOM     24  O   UNL     1       7.237  -5.325 -10.280  0.00  0.00    -0.126 OA
ATOM     25  O   UNL     1       6.368  -3.746  -9.213  0.00  0.00    -0.126 OA
ENDBRANCH  22  23
ENDBRANCH  16  17
ENDBRANCH  15  16
ENDBRANCH  12  15
ENDBRANCH  10  11
ENDBRANCH   3   9
BRANCH   6  26
ATOM     26  O   UNL     1       1.778  -2.323   0.689  0.00  0.00    -0.484 OA
BRANCH  26  27
ATOM     27  C   UNL     1       2.600  -3.470   0.914  0.00  0.00    +0.266 C 
BRANCH  27  28
ATOM     28  C   UNL     1       2.293  -4.050   2.270  0.00  0.00    +0.008 A 
ATOM     29  C   UNL     1       1.332  -3.463   3.072  0.00  0.00    +0.008 A 
ATOM     30  C   UNL     1       1.050  -3.996   4.316  0.00  0.00    +0.000 A 
ATOM     31  C   UNL     1       1.730  -5.115   4.760  0.00  0.00    +0.001 A 
ATOM     32  C   UNL     1       2.692  -5.702   3.959  0.00  0.00    +0.020 A 
ATOM     33  C   UNL     1       2.970  -5.173   2.711  0.00  0.00    +0.047 A 
ATOM     34 CL   UNL     1       4.173  -5.914   1.703  0.00  0.00    -0.083 Cl
ENDBRANCH  27  28
ENDBRANCH  26  27
ENDBRANCH   6  26
TORSDOF 10
