REMARK  Name = ZINC08838284
REMARK  11 active torsions:
REMARK  status: ('A' for Active; 'I' for Inactive)
REMARK    1  A    between atoms: C_1  and  C_2
REMARK    2  A    between atoms: C_2  and  N_56
REMARK    3  A    between atoms: C_3  and  C_4
REMARK    4  A    between atoms: C_3  and  N_56
REMARK    5  A    between atoms: C_5  and  C_6
REMARK    6  A    between atoms: C_5  and  N_56
REMARK    7  A    between atoms: C_6  and  N_7
REMARK    8  A    between atoms: C_8  and  C_24
REMARK    9  A    between atoms: C_11  and  C_12
REMARK   10  A    between atoms: C_11  and  O_19
REMARK   11  A    between atoms: C_27  and  N_30
REMARK                            x       y       z     vdW  Elec       q    Type
REMARK                         _______ _______ _______ _____ _____    ______ ____
ROOT
ATOM      1  N   UNL     1       0.970   2.210  -0.888  0.00  0.00    -0.285 N 
ATOM      2  C   UNL     1       1.942   1.113  -0.906  0.00  0.00    +0.144 C 
ATOM      3  C   UNL     1       1.148  -0.170  -0.814  0.00  0.00    +0.071 C 
ATOM      4  C   UNL     1       1.649  -1.455  -0.797  0.00  0.00    +0.133 C 
ATOM      5  C   UNL     1      -0.202   0.210  -0.747  0.00  0.00    +0.249 C 
ATOM      6  O   UNL     1      -1.153  -0.545  -0.663  0.00  0.00    -0.282 OA
ATOM      7  C   UNL     1      -0.268   1.696  -0.796  0.00  0.00    +0.288 C 
ATOM      8  O   UNL     1      -1.292   2.348  -0.764  0.00  0.00    -0.266 OA
ENDROOT
BRANCH   4   9
ATOM      9  C   UNL     1       0.743  -2.597  -0.586  0.00  0.00    +0.017 A 
ATOM     10  C   UNL     1      -0.174  -2.580   0.471  0.00  0.00    +0.013 A 
ATOM     11  C   UNL     1      -1.023  -3.649   0.659  0.00  0.00    +0.021 A 
ATOM     12  C   UNL     1      -0.963  -4.744  -0.189  0.00  0.00    +0.041 A 
ATOM     13  C   UNL     1      -0.053  -4.770  -1.234  0.00  0.00    +0.021 A 
ATOM     14  C   UNL     1       0.798  -3.705  -1.437  0.00  0.00    +0.013 A 
ATOM     15 CL   UNL     1      -2.031  -6.089   0.060  0.00  0.00    -0.084 Cl
ENDBRANCH   4   9
BRANCH   2  16
ATOM     16  C   UNL     1       2.728   1.142  -2.192  0.00  0.00    -0.022 A 
ATOM     17  C   UNL     1       2.097   1.456  -3.381  0.00  0.00    +0.008 A 
ATOM     18  C   UNL     1       2.819   1.486  -4.559  0.00  0.00    +0.033 A 
ATOM     19  C   UNL     1       4.170   1.194  -4.550  0.00  0.00    +0.126 A 
ATOM     20  C   UNL     1       4.800   0.875  -3.362  0.00  0.00    +0.033 A 
ATOM     21  C   UNL     1       4.079   0.849  -2.183  0.00  0.00    +0.008 A 
BRANCH  19  22
ATOM     22  N   UNL     1       4.942   1.222  -5.812  0.00  0.00    +0.056 N 
ATOM     23  O   UNL     1       6.132   0.964  -5.804  0.00  0.00    -0.126 OA
ATOM     24  O   UNL     1       4.387   1.503  -6.860  0.00  0.00    -0.126 OA
ENDBRANCH  19  22
ENDBRANCH   2  16
BRANCH   4  25
ATOM     25  O   UNL     1       2.971  -1.667  -0.974  0.00  0.00    -0.506 OA
ATOM     26  H   UNL     1       3.160  -2.648  -0.933  0.00  0.00    +0.292 HD
ENDBRANCH   4  25
BRANCH   1  27
ATOM     27  C   UNL     1       1.295   3.637  -0.959  0.00  0.00    +0.090 C 
BRANCH  27  28
ATOM     28  C   UNL     1       1.494   4.186   0.455  0.00  0.00    -0.060 C 
BRANCH  28  29
ATOM     29  N   UNL     1       1.801   5.629   0.367  0.00  0.00    +0.380 N 
ATOM     30  H   UNL     1       1.086   6.087  -0.210  0.00  0.00    -0.082 HD
BRANCH  29  32
ATOM     31  C   UNL     1       0.332   6.448   2.141  0.00  0.00    -0.017 C 
ATOM     32  C   UNL     1       1.786   6.231   1.717  0.00  0.00    -0.082 C 
ENDBRANCH  29  32
BRANCH  29  33
ATOM     33  C   UNL     1       3.125   5.827  -0.260  0.00  0.00    -0.082 C 
ATOM     34  C   UNL     1       3.259   7.294  -0.673  0.00  0.00    -0.017 C 
ENDBRANCH  29  33
ENDBRANCH  28  29
ENDBRANCH  27  28
ENDBRANCH   1  27
TORSDOF 9
