REMARK  Name = ZINC59384896
REMARK  6 active torsions:
REMARK  status: ('A' for Active; 'I' for Inactive)
REMARK    1  A    between atoms: C_1  and  C_2
REMARK    2  A    between atoms: C_3  and  C_17
REMARK    3  A    between atoms: C_4  and  C_10
REMARK    4  A    between atoms: N_19  and  N_20
REMARK    5  A    between atoms: C_21  and  C_22
REMARK    6  A    between atoms: C_27  and  N_28
REMARK                            x       y       z     vdW  Elec       q    Type
REMARK                         _______ _______ _______ _____ _____    ______ ____
ROOT
ATOM      1  C   UNL     1       0.746   1.299  -0.103  0.00  0.00    +0.061 C 
ATOM      2  C   UNL     1       0.495  -0.186  -0.043  0.00  0.00    +0.017 C 
ATOM      3  C   UNL     1      -0.769  -0.650  -0.131  0.00  0.00    +0.057 C 
ATOM      4  C   UNL     1      -0.977  -2.149  -0.066  0.00  0.00    +0.141 C 
ATOM      5  N   UNL     1       0.227  -2.983   0.089  0.00  0.00    -0.315 N 
ATOM      6  C   UNL     1       1.426  -2.372   0.163  0.00  0.00    +0.135 C 
ATOM      7  S   UNL     1       2.834  -3.329   0.343  0.00  0.00    -0.019 S 
ATOM      8  N   UNL     1       1.552  -1.040   0.095  0.00  0.00    -0.300 N 
ATOM      9  H   UNL     1       0.159  -3.950   0.137  0.00  0.00    +0.149 HD
ATOM     10  H   UNL     1       2.443  -0.662   0.151  0.00  0.00    +0.154 HD
ENDROOT
BRANCH   4  11
ATOM     11  C   UNL     1      -1.677  -2.576  -1.331  0.00  0.00    -0.004 A 
ATOM     12  C   UNL     1      -0.939  -2.979  -2.428  0.00  0.00    +0.007 A 
ATOM     13  C   UNL     1      -1.581  -3.371  -3.587  0.00  0.00    +0.000 A 
ATOM     14  C   UNL     1      -2.962  -3.360  -3.651  0.00  0.00    +0.001 A 
ATOM     15  C   UNL     1      -3.701  -2.958  -2.554  0.00  0.00    +0.020 A 
ATOM     16  C   UNL     1      -3.059  -2.571  -1.391  0.00  0.00    +0.046 A 
ATOM     17 CL   UNL     1      -3.987  -2.072  -0.012  0.00  0.00    -0.083 Cl
ENDBRANCH   4  11
BRANCH   3  18
ATOM     18  C   UNL     1      -1.865   0.235  -0.279  0.00  0.00    +0.263 C 
ATOM     19  O   UNL     1      -2.572   0.494   0.678  0.00  0.00    -0.269 OA
ATOM     20  N   UNL     1      -2.125   0.791  -1.479  0.00  0.00    -0.203 N 
ATOM     21  H   UNL     1      -1.607   0.531  -2.257  0.00  0.00    +0.178 HD
BRANCH  20  22
ATOM     22  N   UNL     1      -3.143   1.746  -1.603  0.00  0.00    -0.187 NA
ATOM     23  C   UNL     1      -3.330   2.352  -2.735  0.00  0.00    +0.140 C 
BRANCH  23  24
ATOM     24  C   UNL     1      -4.327   3.434  -2.836  0.00  0.00    +0.025 A 
ATOM     25  C   UNL     1      -4.966   3.909  -1.688  0.00  0.00    +0.012 A 
ATOM     26  C   UNL     1      -5.897   4.921  -1.791  0.00  0.00    +0.001 A 
ATOM     27  C   UNL     1      -6.198   5.467  -3.026  0.00  0.00    +0.002 A 
ATOM     28  C   UNL     1      -5.569   5.001  -4.167  0.00  0.00    +0.033 A 
ATOM     29  C   UNL     1      -4.632   3.993  -4.080  0.00  0.00    +0.135 A 
BRANCH  29  30
ATOM     30  N   UNL     1      -3.955   3.500  -5.301  0.00  0.00    +0.057 N 
ATOM     31  O   UNL     1      -4.132   4.060  -6.357  0.00  0.00    -0.126 OA
ATOM     32  O   UNL     1      -3.226   2.538  -5.241  0.00  0.00    -0.126 OA
ENDBRANCH  29  30
ENDBRANCH  23  24
ENDBRANCH  20  22
ENDBRANCH   3  18
TORSDOF 5
