REMARK  Name = ZINC16902094
REMARK  7 active torsions:
REMARK  status: ('A' for Active; 'I' for Inactive)
REMARK    1  A    between atoms: C_1  and  C_2
REMARK    2  A    between atoms: C_2  and  C_3
REMARK    3  A    between atoms: C_8  and  N_9
REMARK    4  A    between atoms: N_9  and  C_10
REMARK    5  A    between atoms: N_15  and  C_18
REMARK    6  A    between atoms: C_20  and  C_27
REMARK    7  A    between atoms: C_22  and  C_24
REMARK                            x       y       z     vdW  Elec       q    Type
REMARK                         _______ _______ _______ _____ _____    ______ ____
ROOT
ATOM      1  C   UNL     1      -2.347  -0.549  -3.741  0.00  0.00    +0.166 C 
ATOM      2  C   UNL     1      -1.175  -0.490  -4.742  0.00  0.00    +0.128 C 
ATOM      3  C   UNL     1      -1.463   0.756  -5.552  0.00  0.00    +0.228 C 
ATOM      4  O   UNL     1      -0.779   1.177  -6.460  0.00  0.00    -0.275 OA
ATOM      5  N   UNL     1      -2.593   1.319  -5.106  0.00  0.00    -0.209 N 
ATOM      6  C   UNL     1      -3.177   0.667  -4.089  0.00  0.00    +0.247 C 
ATOM      7  O   UNL     1      -4.204   0.998  -3.536  0.00  0.00    -0.273 OA
ENDROOT
BRANCH   5   8
ATOM      8  C   UNL     1      -3.124   2.493  -5.659  0.00  0.00    +0.045 A 
ATOM      9  C   UNL     1      -3.148   3.660  -4.910  0.00  0.00    +0.039 A 
ATOM     10  C   UNL     1      -3.678   4.833  -5.457  0.00  0.00    +0.066 A 
ATOM     11  C   UNL     1      -4.182   4.828  -6.757  0.00  0.00    +0.030 A 
ATOM     12  C   UNL     1      -4.155   3.652  -7.506  0.00  0.00    +0.066 A 
ATOM     13  C   UNL     1      -3.619   2.486  -6.954  0.00  0.00    +0.039 A 
BRANCH  12  14
ATOM     14  C   UNL     1      -4.687   3.641  -8.883  0.00  0.00    +0.387 C 
ATOM     15  O   UNL     1      -5.151   4.664  -9.367  0.00  0.00    -0.241 OA
ATOM     16  O   UNL     1      -4.663   2.610  -9.540  0.00  0.00    -0.241 OA
ENDBRANCH  12  14
BRANCH  10  17
ATOM     17  C   UNL     1      -3.704   6.074  -4.659  0.00  0.00    +0.387 C 
ATOM     18  O   UNL     1      -3.262   6.077  -3.519  0.00  0.00    -0.241 OA
ATOM     19  O   UNL     1      -4.167   7.099  -5.138  0.00  0.00    -0.241 OA
ENDBRANCH  10  17
ENDBRANCH   5   8
BRANCH   1  20
ATOM     20  N   UNL     1      -1.854  -0.460  -2.364  0.00  0.00    -0.332 N 
ATOM     21  H   UNL     1      -0.991  -0.056  -2.183  0.00  0.00    +0.147 HD
BRANCH  20  27
ATOM     22  C   UNL     1      -2.161  -0.874  -0.007  0.00  0.00    -0.027 A 
ATOM     23  C   UNL     1      -2.930  -1.361   1.032  0.00  0.00    +0.005 A 
ATOM     24  C   UNL     1      -4.160  -1.937   0.772  0.00  0.00    +0.000 A 
ATOM     25  C   UNL     1      -4.624  -2.027  -0.528  0.00  0.00    +0.002 A 
ATOM     26  C   UNL     1      -3.860  -1.542  -1.571  0.00  0.00    +0.023 A 
ATOM     27  C   UNL     1      -2.627  -0.957  -1.312  0.00  0.00    +0.031 A 
BRANCH  22  29
ATOM     28  C   UNL     1      -0.981   1.270   0.394  0.00  0.00    +0.009 C 
ATOM     29  C   UNL     1      -0.820  -0.247   0.278  0.00  0.00    +0.033 C 
ENDBRANCH  22  29
ENDBRANCH  20  27
ENDBRANCH   1  20
TORSDOF 6
