REMARK  Name = ZINC04943229
REMARK  8 active torsions:
REMARK  status: ('A' for Active; 'I' for Inactive)
REMARK    1  A    between atoms: C_1  and  O_2
REMARK    2  A    between atoms: O_2  and  C_3
REMARK    3  A    between atoms: C_5  and  C_13
REMARK    4  A    between atoms: C_7  and  O_11
REMARK    5  A    between atoms: C_8  and  O_9
REMARK    6  A    between atoms: O_9  and  C_10
REMARK    7  A    between atoms: O_11  and  C_12
REMARK    8  A    between atoms: C_13  and  N_60
REMARK                            x       y       z     vdW  Elec       q    Type
REMARK                         _______ _______ _______ _____ _____    ______ ____
ROOT
ATOM      1  C   UNL     1      -0.439   6.945   2.338  0.00  0.00    -0.076 C 
ATOM      2  C   UNL     1       0.837   6.147   2.055  0.00  0.00    +0.013 C 
ATOM      3  C   UNL     1       1.029   6.018   0.545  0.00  0.00    +0.069 C 
ATOM      4  C   UNL     1       1.077   7.408  -0.089  0.00  0.00    +0.013 C 
ATOM      5  C   UNL     1      -0.206   8.167   0.258  0.00  0.00    -0.076 C 
ATOM      6  C   UNL     1       2.311   5.279   0.254  0.00  0.00    +0.047 A 
ATOM      7  C   UNL     1       3.565   5.739   0.189  0.00  0.00    +0.025 A 
ATOM      8  C   UNL     1       4.406   4.636  -0.075  0.00  0.00    +0.020 A 
ATOM      9  C   UNL     1       3.621   3.538  -0.167  0.00  0.00    +0.092 A 
ATOM     10  N   UNL     1       2.336   3.921   0.017  0.00  0.00    -0.316 N 
ATOM     11  C   UNL     1       1.155   3.163   0.006  0.00  0.00    +0.067 A 
ATOM     12  C   UNL     1       1.177   1.783   0.000  0.00  0.00    +0.028 A 
ATOM     13  C   UNL     1      -0.013   1.076   0.008  0.00  0.00    +0.002 A 
ATOM     14  C   UNL     1      -1.220   1.750   0.017  0.00  0.00    +0.002 A 
ATOM     15  C   UNL     1      -1.250   3.131   0.020  0.00  0.00    +0.025 A 
ATOM     16  C   UNL     1      -0.064   3.850   0.003  0.00  0.00    +0.052 A 
ATOM     17  N   UNL     1      -0.083   5.249  -0.031  0.00  0.00    -0.331 N 
ATOM     18  H   UNL     1      -0.832   5.713  -0.437  0.00  0.00    +0.147 HD
ATOM     19  N   UNL     1      -0.310   8.286   1.728  0.00  0.00    +0.382 N 
ATOM     20  H   UNL     1       0.541   8.734   2.087  0.00  0.00    -0.081 HD
ENDROOT
BRANCH  19  21
ATOM     21  C   UNL     1      -1.478   9.117   2.087  0.00  0.00    -0.043 C 
BRANCH  21  24
ATOM     22  C   UNL     1      -1.384  12.245  -0.032  0.00  0.00    +0.165 A 
ATOM     23  C   UNL     1      -1.619  10.943   0.382  0.00  0.00    +0.051 A 
ATOM     24  C   UNL     1      -1.220  10.533   1.641  0.00  0.00    -0.057 A 
ATOM     25  C   UNL     1      -0.591  11.420   2.494  0.00  0.00    +0.051 A 
ATOM     26  C   UNL     1      -0.347  12.723   2.085  0.00  0.00    +0.165 A 
ATOM     27  C   UNL     1      -0.747  13.139   0.821  0.00  0.00    +0.204 A 
BRANCH  22  29
ATOM     28  C   UNL     1      -2.426  11.676  -2.092  0.00  0.00    +0.277 C 
ATOM     29  O   UNL     1      -1.777  12.648  -1.270  0.00  0.00    -0.491 OA
ENDBRANCH  22  29
BRANCH  27  30
ATOM     30  O   UNL     1      -0.514  14.418   0.418  0.00  0.00    -0.488 OA
ATOM     31  C   UNL     1      -1.531  15.382   0.699  0.00  0.00    +0.277 C 
ENDBRANCH  27  30
BRANCH  26  32
ATOM     32  O   UNL     1       0.277  13.594   2.923  0.00  0.00    -0.491 OA
ATOM     33  C   UNL     1       0.659  13.097   4.207  0.00  0.00    +0.277 C 
ENDBRANCH  26  32
ENDBRANCH  21  24
ENDBRANCH  19  21
TORSDOF 5
