REMARK  Name = ZINC20710063
REMARK  9 active torsions:
REMARK  status: ('A' for Active; 'I' for Inactive)
REMARK    1  A    between atoms: C_1  and  C_2
REMARK    2  A    between atoms: C_2  and  C_3
REMARK    3  A    between atoms: C_3  and  C_5
REMARK    4  A    between atoms: C_3  and  N_6
REMARK    5  A    between atoms: N_6  and  S_7
REMARK    6  A    between atoms: S_7  and  C_10
REMARK    7  A    between atoms: C_23  and  C_26
REMARK    8  A    between atoms: C_28  and  N_33
REMARK    9  A    between atoms: C_31  and  O_32
REMARK                            x       y       z     vdW  Elec       q    Type
REMARK                         _______ _______ _______ _____ _____    ______ ____
ROOT
ATOM      1  C   UNL     1      -0.104   1.597  -0.078  0.00  0.00    +0.106 A 
ATOM      2  C   UNL     1      -1.410   2.051  -0.075  0.00  0.00    +0.030 A 
ATOM      3  C   UNL     1      -1.664   3.406  -0.159  0.00  0.00    +0.025 A 
ATOM      4  C   UNL     1      -0.608   4.305  -0.257  0.00  0.00    +0.031 A 
ATOM      5  C   UNL     1       0.700   3.854  -0.268  0.00  0.00    -0.018 A 
ATOM      6  C   UNL     1       0.943   2.490  -0.176  0.00  0.00    +0.034 A 
ATOM      7  C   UNL     1       1.883   4.777  -0.383  0.00  0.00    +0.049 C 
ATOM      8  C   UNL     1       2.650   4.379  -1.637  0.00  0.00    -0.023 C 
ATOM      9  C   UNL     1       2.298   5.135  -2.646  0.00  0.00    -0.030 C 
ATOM     10  C   UNL     1       1.252   6.146  -2.213  0.00  0.00    +0.033 C 
ATOM     11  C   UNL     1       1.465   6.228  -0.683  0.00  0.00    +0.029 C 
ATOM     12  C   UNL     1       0.180   6.612   0.028  0.00  0.00    +0.108 C 
ATOM     13  N   UNL     1      -0.885   5.674  -0.343  0.00  0.00    -0.336 N 
ATOM     14  H   UNL     1      -1.862   6.055  -0.675  0.00  0.00    +0.147 HD
ENDROOT
BRANCH  12  15
ATOM     15  C   UNL     1       0.397   6.562   1.518  0.00  0.00    +0.017 A 
ATOM     16  C   UNL     1       1.681   6.540   2.030  0.00  0.00    +0.041 A 
ATOM     17  C   UNL     1       1.880   6.494   3.397  0.00  0.00    +0.127 A 
ATOM     18  C   UNL     1       0.796   6.471   4.256  0.00  0.00    +0.036 A 
ATOM     19  C   UNL     1      -0.488   6.493   3.749  0.00  0.00    +0.048 A 
ATOM     20  C   UNL     1      -0.691   6.545   2.378  0.00  0.00    +0.122 A 
BRANCH  17  21
ATOM     21  N   UNL     1       3.256   6.469   3.942  0.00  0.00    +0.056 N 
ATOM     22  O   UNL     1       4.210   6.585   3.194  0.00  0.00    -0.126 OA
ATOM     23  O   UNL     1       3.434   6.333   5.140  0.00  0.00    -0.126 OA
ENDBRANCH  17  21
BRANCH  20  24
ATOM     24  O   UNL     1      -1.954   6.573   1.877  0.00  0.00    -0.506 OA
ATOM     25  H   UNL     1      -2.817   6.559   2.560  0.00  0.00    +0.292 HD
ENDBRANCH  20  24
ENDBRANCH  12  15
BRANCH   1  26
ATOM     26  S   UNL     1       0.224  -0.131   0.037  0.00  0.00    +0.059 S 
ATOM     27  O   UNL     1      -0.982  -0.797  -0.312  0.00  0.00    -0.153 OA
ATOM     28  O   UNL     1       1.447  -0.359  -0.649  0.00  0.00    -0.153 OA
BRANCH  26  29
ATOM     29  N   UNL     1       0.506  -0.471   1.633  0.00  0.00    -0.187 NA
ATOM     30  H   UNL     1       1.533  -0.689   1.963  0.00  0.00    +0.148 HD
BRANCH  29  31
ATOM     31  C   UNL     1      -0.553  -0.267   2.624  0.00  0.00    +0.073 C 
ATOM     32  C   UNL     1      -1.291  -1.586   2.861  0.00  0.00    +0.025 C 
BRANCH  31  34
ATOM     33  C   UNL     1       0.705   1.588   3.728  0.00  0.00    +0.005 C 
ATOM     34  C   UNL     1       0.064   0.215   3.939  0.00  0.00    +0.017 C 
ENDBRANCH  31  34
ENDBRANCH  29  31
ENDBRANCH  26  29
ENDBRANCH   1  26
TORSDOF 7
