REMARK  Name = ZINC06138981
REMARK  12 active torsions:
REMARK  status: ('A' for Active; 'I' for Inactive)
REMARK    1  A    between atoms: C_1  and  C_2
REMARK    2  A    between atoms: C_2  and  C_3
REMARK    3  A    between atoms: C_3  and  C_4
REMARK    4  A    between atoms: C_5  and  C_27
REMARK    5  A    between atoms: C_6  and  C_11
REMARK    6  A    between atoms: C_8  and  C_10
REMARK    7  A    between atoms: C_17  and  C_20
REMARK    8  A    between atoms: C_21  and  C_23
REMARK    9  A    between atoms: C_23  and  C_25
REMARK   10  A    between atoms: C_27  and  O_29
REMARK   11  A    between atoms: O_29  and  C_30
REMARK   12  A    between atoms: C_30  and  C_31
REMARK                            x       y       z     vdW  Elec       q    Type
REMARK                         _______ _______ _______ _____ _____    ______ ____
ROOT
ATOM      1  C   UNL     1       0.432  -1.952  -0.857  0.00  0.00    +0.060 A 
ATOM      2  C   UNL     1       1.523  -2.643  -0.315  0.00  0.00    +0.111 A 
ATOM      3  C   UNL     1       1.546  -4.044  -0.442  0.00  0.00    +0.143 A 
ATOM      4  N   UNL     1       0.541  -4.646  -1.067  0.00  0.00    -0.227 NA
ATOM      5  C   UNL     1      -0.462  -3.950  -1.560  0.00  0.00    +0.127 A 
ATOM      6  N   UNL     1      -0.524  -2.636  -1.457  0.00  0.00    -0.236 NA
ATOM      7  C   UNL     1      -1.580  -4.678  -2.261  0.00  0.00    +0.088 C 
ENDROOT
BRANCH   3   8
ATOM      8  C   UNL     1       2.676  -4.836   0.111  0.00  0.00    +0.266 C 
ATOM      9  O   UNL     1       3.645  -4.269   0.574  0.00  0.00    -0.268 OA
ATOM     10  N   UNL     1       2.624  -6.182   0.100  0.00  0.00    -0.293 N 
ATOM     11  C   UNL     1       1.516  -6.883  -0.564  0.00  0.00    +0.127 C 
ATOM     12  C   UNL     1       0.859  -7.830   0.447  0.00  0.00    +0.127 C 
ATOM     13  N   UNL     1       1.909  -8.624   1.098  0.00  0.00    -0.295 N 
ATOM     14  C   UNL     1       3.017  -7.924   1.763  0.00  0.00    +0.090 C 
ATOM     15  C   UNL     1       3.678  -6.977   0.747  0.00  0.00    +0.130 C 
ATOM     16  C   UNL     1       2.479  -7.121   2.949  0.00  0.00    +0.029 C 
ATOM     17  C   UNL     1       1.858  -9.971   1.087  0.00  0.00    +0.233 C 
ATOM     18  O   UNL     1       2.687 -10.615   1.694  0.00  0.00    -0.274 OA
BRANCH  17  19
ATOM     19  C   UNL     1       0.769 -10.677   0.321  0.00  0.00    +0.163 C 
ATOM     20  C   UNL     1       0.212 -11.825   1.165  0.00  0.00    +0.034 C 
ATOM     21 CL   UNL     1       1.446 -11.335  -1.216  0.00  0.00    -0.112 Cl
ENDBRANCH  17  19
ENDBRANCH   3   8
BRANCH   2  22
ATOM     22  C   UNL     1       2.616  -1.923   0.371  0.00  0.00    +0.343 C 
ATOM     23  O   UNL     1       2.553  -1.718   1.567  0.00  0.00    -0.245 OA
BRANCH  22  24
ATOM     24  O   UNL     1       3.683  -1.493  -0.330  0.00  0.00    -0.461 OA
BRANCH  24  25
ATOM     25  C   UNL     1       4.702  -0.804   0.397  0.00  0.00    +0.229 C 
ATOM     26  C   UNL     1       5.824  -0.396  -0.560  0.00  0.00    +0.048 C 
ENDBRANCH  24  25
ENDBRANCH  22  24
ENDBRANCH   2  22
BRANCH   1  27
ATOM     27  C   UNL     1       0.349  -0.451  -0.752  0.00  0.00    +0.056 C 
BRANCH  27  29
ATOM     28  C   UNL     1      -0.460   1.455   0.647  0.00  0.00    +0.004 C 
ATOM     29  C   UNL     1      -0.376  -0.069   0.540  0.00  0.00    +0.003 C 
ENDBRANCH  27  29
ENDBRANCH   1  27
TORSDOF 7
