REMARK  Name = ZINC03978283
REMARK  10 active torsions:
REMARK  status: ('A' for Active; 'I' for Inactive)
REMARK    1  A    between atoms: C_1  and  C_2
REMARK    2  A    between atoms: C_2  and  O_4
REMARK    3  A    between atoms: O_4  and  C_5
REMARK    4  A    between atoms: C_10  and  C_41
REMARK    5  A    between atoms: C_13  and  O_18
REMARK    6  A    between atoms: C_15  and  C_16
REMARK    7  A    between atoms: C_15  and  C_17
REMARK    8  A    between atoms: C_21  and  C_40
REMARK    9  A    between atoms: C_29  and  C_35
REMARK   10  A    between atoms: C_31  and  C_34
REMARK                            x       y       z     vdW  Elec       q    Type
REMARK                         _______ _______ _______ _____ _____    ______ ____
ROOT
ATOM      1  C   UNL     1      -1.032  -1.958   0.056  0.00  0.00    +0.186 C 
ATOM      2  C   UNL     1      -1.073  -2.443  -1.388  0.00  0.00    +0.050 C 
ATOM      3  C   UNL     1      -0.660  -3.960  -1.476  0.00  0.00    +0.011 C 
ATOM      4  C   UNL     1      -1.579  -4.782  -0.507  0.00  0.00    -0.007 C 
ATOM      5  C   UNL     1      -2.715  -5.448  -1.244  0.00  0.00    -0.021 C 
ATOM      6  C   UNL     1      -2.946  -5.343  -2.548  0.00  0.00    +0.001 C 
ATOM      7  C   UNL     1      -2.030  -4.543  -3.477  0.00  0.00    +0.143 C 
ATOM      8  C   UNL     1      -0.695  -4.433  -2.866  0.00  0.00    -0.002 C 
ATOM      9  C   UNL     1       0.101  -3.423  -3.780  0.00  0.00    +0.014 C 
ATOM     10  C   UNL     1       0.105  -5.718  -3.021  0.00  0.00    +0.014 C 
ATOM     11  C   UNL     1      -2.035  -4.135   0.721  0.00  0.00    +0.011 C 
ATOM     12  C   UNL     1      -2.205  -2.615   0.777  0.00  0.00    +0.041 C 
ATOM     13  C   UNL     1      -3.558  -2.207   0.218  0.00  0.00    +0.125 C 
ATOM     14  C   UNL     1      -3.836  -0.636   0.343  0.00  0.00    +0.260 C 
ATOM     15  O   UNL     1      -3.599  -1.307  -0.970  0.00  0.00    -0.352 OA
ATOM     16  C   UNL     1      -5.241  -0.227   0.640  0.00  0.00    +0.340 C 
ATOM     17  O   UNL     1      -5.484   0.848   0.909  0.00  0.00    -0.248 OA
ATOM     18  O   UNL     1      -6.240  -1.118   0.693  0.00  0.00    -0.454 OA
ATOM     19  C   UNL     1      -5.995  -2.507   1.121  0.00  0.00    +0.218 C 
ATOM     20  C   UNL     1      -4.722  -3.054   0.385  0.00  0.00    +0.042 C 
ATOM     21  C   UNL     1      -4.552  -4.519   0.749  0.00  0.00    +0.014 C 
ATOM     22  C   UNL     1      -3.218  -4.892   1.373  0.00  0.00    +0.006 C 
ATOM     23  C   UNL     1      -5.273  -3.237  -1.029  0.00  0.00    +0.018 C 
ATOM     24  C   UNL     1      -2.141  -2.132   2.288  0.00  0.00    +0.018 C 
ATOM     25  C   UNL     1      -0.697  -5.961  -0.011  0.00  0.00    +0.016 C 
ENDROOT
BRANCH  19  26
ATOM     26  C   UNL     1      -7.211  -3.343   0.819  0.00  0.00    +0.031 A 
ATOM     27  C   UNL     1      -7.766  -4.351   1.641  0.00  0.00    +0.048 A 
ATOM     28  C   UNL     1      -8.839  -4.837   0.991  0.00  0.00    +0.195 A 
ATOM     29  O   UNL     1      -8.962  -4.181  -0.175  0.00  0.00    -0.471 OA
ATOM     30  C   UNL     1      -7.981  -3.271  -0.282  0.00  0.00    +0.202 A 
ENDBRANCH  19  26
BRANCH   7  31
ATOM     31  O   UNL     1      -2.567  -3.289  -3.699  0.00  0.00    -0.387 OA
ATOM     32  H   UNL     1      -3.443  -3.303  -4.109  0.00  0.00    +0.210 HD
ENDBRANCH   7  31
BRANCH   1  33
ATOM     33  O   UNL     1      -1.147  -0.595   0.027  0.00  0.00    -0.461 OA
BRANCH  33  35
ATOM     34  C   UNL     1      -0.054   1.618  -0.055  0.00  0.00    +0.136 C 
ATOM     35  C   UNL     1      -0.006   0.112  -0.021  0.00  0.00    +0.304 C 
ATOM     36  O   UNL     1       1.058  -0.459  -0.036  0.00  0.00    -0.251 OA
ENDBRANCH  33  35
ENDBRANCH   1  33
TORSDOF 4
