REMARK  Name = ZINC36490799
REMARK  13 active torsions:
REMARK  status: ('A' for Active; 'I' for Inactive)
REMARK    1  A    between atoms: C_1  and  C_2
REMARK    2  A    between atoms: C_2  and  C_3
REMARK    3  A    between atoms: C_7  and  O_17
REMARK    4  A    between atoms: C_8  and  O_15
REMARK    5  A    between atoms: N_13  and  C_14
REMARK    6  A    between atoms: O_15  and  C_16
REMARK    7  A    between atoms: O_17  and  C_18
REMARK    8  A    between atoms: C_22  and  O_25
REMARK    9  A    between atoms: C_23  and  O_24
REMARK   10  A    between atoms: O_25  and  C_26
REMARK   11  A    between atoms: N_29  and  C_34
REMARK   12  A    between atoms: C_30  and  C_32
REMARK   13  A    between atoms: C_32  and  C_33
REMARK                            x       y       z     vdW  Elec       q    Type
REMARK                         _______ _______ _______ _____ _____    ______ ____
ROOT
ATOM      1  C   UNL     1       2.312  -3.328  -1.266  0.00  0.00    +0.178 A 
ATOM      2  C   UNL     1       1.619  -3.102  -2.452  0.00  0.00    +0.019 A 
ATOM      3  C   UNL     1       2.182  -2.318  -3.436  0.00  0.00    -0.034 A 
ATOM      4  C   UNL     1       3.438  -1.761  -3.244  0.00  0.00    +0.053 A 
ATOM      5  C   UNL     1       4.133  -1.983  -2.068  0.00  0.00    +0.165 A 
ATOM      6  C   UNL     1       3.565  -2.765  -1.069  0.00  0.00    +0.202 A 
ATOM      7  C   UNL     1       1.463  -2.036  -4.731  0.00  0.00    +0.051 C 
ATOM      8  C   UNL     1       0.327  -3.040  -4.926  0.00  0.00    +0.089 C 
ATOM      9  N   UNL     1      -0.482  -3.075  -3.697  0.00  0.00    -0.298 NA
ATOM     10  C   UNL     1       0.262  -3.733  -2.618  0.00  0.00    +0.090 C 
ATOM     11  C   UNL     1      -1.769  -3.742  -3.933  0.00  0.00    +0.105 C 
ENDROOT
BRANCH   6  12
ATOM     12  O   UNL     1       4.237  -2.983   0.095  0.00  0.00    -0.501 OA
ATOM     13  H   UNL     1       4.809  -3.763   0.079  0.00  0.00    +0.292 HD
ENDBRANCH   6  12
BRANCH   5  14
ATOM     14  O   UNL     1       5.364  -1.433  -1.887  0.00  0.00    -0.491 OA
ATOM     15  C   UNL     1       5.881  -0.637  -2.955  0.00  0.00    +0.277 C 
ENDBRANCH   5  14
BRANCH  10  16
ATOM     16  C   UNL     1      -0.521  -3.599  -1.311  0.00  0.00    +0.020 C 
ATOM     17  C   UNL     1      -0.644  -2.121  -0.938  0.00  0.00    +0.006 C 
ENDBRANCH  10  16
BRANCH   1  18
ATOM     18  O   UNL     1       1.756  -4.099  -0.294  0.00  0.00    -0.448 OA
BRANCH  18  22
ATOM     19  C   UNL     1       2.181  -0.237   2.630  0.00  0.00    +0.087 C 
ATOM     20  C   UNL     1       1.690  -1.643   2.400  0.00  0.00    -0.023 A 
ATOM     21  C   UNL     1       1.938  -2.234   1.170  0.00  0.00    +0.055 A 
ATOM     22  C   UNL     1       1.510  -3.525   0.914  0.00  0.00    +0.170 A 
ATOM     23  C   UNL     1       0.827  -4.233   1.899  0.00  0.00    +0.162 A 
ATOM     24  C   UNL     1       0.580  -3.638   3.123  0.00  0.00    +0.053 A 
ATOM     25  C   UNL     1       1.009  -2.343   3.374  0.00  0.00    -0.038 A 
ATOM     26  C   UNL     1       0.706  -1.735   4.719  0.00  0.00    +0.051 C 
ATOM     27  C   UNL     1       1.591  -0.510   4.950  0.00  0.00    +0.089 C 
ATOM     28  N   UNL     1       1.490   0.367   3.773  0.00  0.00    -0.298 NA
ATOM     29  C   UNL     1       2.026   1.703   4.066  0.00  0.00    +0.105 C 
BRANCH  19  31
ATOM     30  C   UNL     1       0.408   0.815   1.218  0.00  0.00    +0.006 C 
ATOM     31  C   UNL     1       1.914   0.601   1.378  0.00  0.00    +0.020 C 
ENDBRANCH  19  31
BRANCH  23  32
ATOM     32  O   UNL     1       0.404  -5.503   1.658  0.00  0.00    -0.491 OA
ATOM     33  C   UNL     1      -0.291  -6.166   2.716  0.00  0.00    +0.277 C 
ENDBRANCH  23  32
ENDBRANCH  18  22
ENDBRANCH   1  18
TORSDOF 7
