REMARK  Name = ZINC20913772
REMARK  12 active torsions:
REMARK  status: ('A' for Active; 'I' for Inactive)
REMARK    1  A    between atoms: C_1  and  O_2
REMARK    2  A    between atoms: O_2  and  C_3
REMARK    3  A    between atoms: C_6  and  O_30
REMARK    4  A    between atoms: C_7  and  C_9
REMARK    5  A    between atoms: C_9  and  N_10
REMARK    6  A    between atoms: N_13  and  C_20
REMARK    7  A    between atoms: C_14  and  C_17
REMARK    8  A    between atoms: C_17  and  C_18
REMARK    9  A    between atoms: C_18  and  O_19
REMARK   10  A    between atoms: C_20  and  C_21
REMARK   11  A    between atoms: C_24  and  O_28
REMARK   12  A    between atoms: O_28  and  C_29
REMARK                            x       y       z     vdW  Elec       q    Type
REMARK                         _______ _______ _______ _____ _____    ______ ____
ROOT
ATOM      1  N   UNL     1      -3.083   0.953   1.526  0.00  0.00    +0.384 N 
ATOM      2  C   UNL     1      -3.069   2.289   2.138  0.00  0.00    -0.063 C 
ATOM      3  C   UNL     1      -3.717   2.220   3.523  0.00  0.00    +0.066 C 
ATOM      4  N   UNL     1      -5.092   1.718   3.393  0.00  0.00    -0.299 NA
ATOM      5  C   UNL     1      -5.106   0.382   2.781  0.00  0.00    +0.043 C 
ATOM      6  C   UNL     1      -4.458   0.451   1.396  0.00  0.00    -0.059 C 
ATOM      7  H   UNL     1      -2.533   0.270   2.190  0.00  0.00    -0.081 HD
ENDROOT
BRANCH   1   8
ATOM      8  C   UNL     1      -2.401   0.963   0.225  0.00  0.00    -0.039 C 
BRANCH   8  13
ATOM      9  C   UNL     1       1.299   1.688   0.486  0.00  0.00    +0.121 A 
ATOM     10  C   UNL     1       1.305   3.073   0.570  0.00  0.00    +0.049 A 
ATOM     11  C   UNL     1       0.114   3.772   0.545  0.00  0.00    +0.049 A 
ATOM     12  C   UNL     1      -1.089   3.089   0.437  0.00  0.00    +0.118 A 
ATOM     13  C   UNL     1      -1.095   1.705   0.349  0.00  0.00    -0.019 A 
ATOM     14  C   UNL     1       0.096   1.006   0.378  0.00  0.00    +0.051 A 
BRANCH   9  16
ATOM     15  C   UNL     1       3.671   1.768   0.623  0.00  0.00    +0.277 C 
ATOM     16  O   UNL     1       2.471   1.000   0.510  0.00  0.00    -0.495 OA
ENDBRANCH   9  16
BRANCH  12  17
ATOM     17  O   UNL     1      -2.262   3.776   0.413  0.00  0.00    -0.507 OA
ATOM     18  H   UNL     1      -3.215   3.235   0.327  0.00  0.00    +0.292 HD
ENDBRANCH  12  17
ENDBRANCH   8  13
ENDBRANCH   1   8
BRANCH   5  19
ATOM     19  C   UNL     1      -6.551  -0.102   2.645  0.00  0.00    +0.045 C 
BRANCH  19  20
ATOM     20  C   UNL     1      -6.561  -1.534   2.108  0.00  0.00    +0.157 C 
BRANCH  20  21
ATOM     21  O   UNL     1      -7.910  -1.952   1.889  0.00  0.00    -0.395 OA
ATOM     22  H   UNL     1      -8.118  -2.960   1.501  0.00  0.00    +0.209 HD
ENDBRANCH  20  21
ENDBRANCH  19  20
ENDBRANCH   5  19
BRANCH   4  23
ATOM     23  C   UNL     1      -5.774   1.708   4.694  0.00  0.00    +0.122 C 
BRANCH  23  24
ATOM     24  C   UNL     1      -5.646   3.064   5.339  0.00  0.00    +0.002 A 
ATOM     25  C   UNL     1      -6.730   3.921   5.366  0.00  0.00    +0.011 A 
ATOM     26  C   UNL     1      -6.615   5.165   5.956  0.00  0.00    +0.046 A 
ATOM     27  C   UNL     1      -5.410   5.555   6.523  0.00  0.00    +0.123 A 
ATOM     28  C   UNL     1      -4.322   4.696   6.495  0.00  0.00    +0.084 A 
ATOM     29  C   UNL     1      -4.443   3.448   5.908  0.00  0.00    +0.131 A 
ATOM     30  F   UNL     1      -3.386   2.607   5.885  0.00  0.00    -0.205 F 
BRANCH  27  31
ATOM     31  O   UNL     1      -5.296   6.779   7.104  0.00  0.00    -0.495 OA
ATOM     32  C   UNL     1      -4.026   7.113   7.666  0.00  0.00    +0.277 C 
ENDBRANCH  27  31
ENDBRANCH  23  24
ENDBRANCH   4  23
TORSDOF 10
