REMARK  Name = ZINC64789443
REMARK  5 active torsions:
REMARK  status: ('A' for Active; 'I' for Inactive)
REMARK    1  A    between atoms: C_1  and  C_2
REMARK    2  A    between atoms: C_2  and  C_3
REMARK    3  A    between atoms: C_6  and  C_27
REMARK    4  A    between atoms: N_16  and  C_19
REMARK    5  A    between atoms: C_28  and  C_32
REMARK                            x       y       z     vdW  Elec       q    Type
REMARK                         _______ _______ _______ _____ _____    ______ ____
ROOT
ATOM      1  C   UNL     1      -1.415  -1.554  -3.341  0.00  0.00    +0.232 C 
ATOM      2  O   UNL     1      -2.348  -0.909  -3.771  0.00  0.00    -0.274 OA
ATOM      3  N   UNL     1      -1.643  -2.648  -2.587  0.00  0.00    -0.214 N 
ATOM      4  C   UNL     1      -2.968  -3.167  -2.222  0.00  0.00    +0.139 C 
ATOM      5  C   UNL     1      -2.670  -4.414  -1.368  0.00  0.00    +0.082 C 
ATOM      6  C   UNL     1      -1.160  -4.487  -1.328  0.00  0.00    +0.041 C 
ATOM      7  N   UNL     1      -0.659  -3.467  -2.039  0.00  0.00    -0.264 N 
ATOM      8  C   UNL     1      -0.419  -5.452  -0.670  0.00  0.00    +0.118 C 
ATOM      9  C   UNL     1      -1.068  -6.544   0.077  0.00  0.00    +0.258 C 
ATOM     10  N   UNL     1      -0.281  -7.449   0.694  0.00  0.00    -0.235 N 
ATOM     11  C   UNL     1       1.056  -7.370   0.638  0.00  0.00    +0.320 C 
ATOM     12  O   UNL     1       1.708  -8.217   1.215  0.00  0.00    -0.251 OA
ATOM     13  N   UNL     1       1.712  -6.405  -0.023  0.00  0.00    -0.190 N 
ATOM     14  C   UNL     1       1.054  -5.436  -0.691  0.00  0.00    +0.265 C 
ATOM     15  O   UNL     1       1.661  -4.568  -1.291  0.00  0.00    -0.269 OA
ATOM     16  O   UNL     1      -2.280  -6.626   0.137  0.00  0.00    -0.270 OA
ATOM     17  H   UNL     1      -0.692  -8.174   1.190  0.00  0.00    +0.159 HD
ATOM     18  H   UNL     1       0.292  -3.314  -2.157  0.00  0.00    +0.170 HD
ENDROOT
BRANCH  13  19
ATOM     19  C   UNL     1       3.114  -6.408  -0.023  0.00  0.00    +0.047 A 
ATOM     20  C   UNL     1       3.811  -5.731   0.969  0.00  0.00    +0.024 A 
ATOM     21  C   UNL     1       5.192  -5.735   0.966  0.00  0.00    +0.003 A 
ATOM     22  C   UNL     1       5.881  -6.412  -0.024  0.00  0.00    +0.020 A 
ATOM     23  C   UNL     1       5.189  -7.087  -1.014  0.00  0.00    +0.043 A 
ATOM     24  C   UNL     1       3.807  -7.091  -1.012  0.00  0.00    +0.044 A 
ATOM     25 CL   UNL     1       6.059  -7.934  -2.255  0.00  0.00    -0.083 Cl
ENDBRANCH  13  19
BRANCH   4  26
ATOM     26  C   UNL     1      -3.744  -3.546  -3.457  0.00  0.00    +0.015 A 
ATOM     27  C   UNL     1      -5.043  -3.301  -3.757  0.00  0.00    -0.038 A 
ATOM     28  C   UNL     1      -5.547  -3.747  -4.964  0.00  0.00    +0.011 A 
ATOM     29  C   UNL     1      -4.729  -4.416  -5.812  0.00  0.00    +0.046 A 
ATOM     30  S   UNL     1      -3.189  -4.427  -4.907  0.00  0.00    -0.099 S 
ATOM     31  C   UNL     1      -5.924  -2.553  -2.789  0.00  0.00    +0.044 C 
ENDBRANCH   4  26
BRANCH   1  33
ATOM     32  C   UNL     1      -0.024   0.131  -4.513  0.00  0.00    +0.013 C 
ATOM     33  C   UNL     1      -0.002  -1.131  -3.648  0.00  0.00    +0.094 C 
ENDBRANCH   1  33
TORSDOF 3
