REMARK  Name = ZINC60399746
REMARK  6 active torsions:
REMARK  status: ('A' for Active; 'I' for Inactive)
REMARK    1  A    between atoms: C_3  and  S_24
REMARK    2  A    between atoms: C_6  and  C_7
REMARK    3  A    between atoms: C_8  and  C_9
REMARK    4  A    between atoms: N_11  and  C_12
REMARK    5  A    between atoms: C_12  and  C_13
REMARK    6  A    between atoms: S_24  and  N_27
REMARK                            x       y       z     vdW  Elec       q    Type
REMARK                         _______ _______ _______ _____ _____    ______ ____
ROOT
ATOM      1  C   UNL     1      -2.494  -2.862   0.011  0.00  0.00    +0.237 C 
ATOM      2  O   UNL     1      -3.558  -2.271   0.025  0.00  0.00    -0.271 OA
ATOM      3  N   UNL     1      -2.472  -4.210   0.004  0.00  0.00    -0.308 N 
ATOM      4  H   UNL     1      -1.624  -4.681  -0.007  0.00  0.00    +0.149 HD
ENDROOT
BRANCH   1   6
ATOM      5  C   UNL     1      -1.260  -0.761   0.011  0.00  0.00    +0.013 C 
ATOM      6  C   UNL     1      -1.238  -2.109   0.003  0.00  0.00    +0.068 C 
BRANCH   5  12
ATOM      7  C   UNL     1      -0.017   1.394   0.010  0.00  0.00    +0.010 A 
ATOM      8  C   UNL     1       1.170   2.096   0.002  0.00  0.00    +0.029 A 
ATOM      9  C   UNL     1       2.378   1.421  -0.013  0.00  0.00    +0.105 A 
ATOM     10  C   UNL     1       2.405   0.037  -0.021  0.00  0.00    +0.029 A 
ATOM     11  C   UNL     1       1.226  -0.679  -0.013  0.00  0.00    +0.010 A 
ATOM     12  C   UNL     1       0.002  -0.004   0.002  0.00  0.00    -0.025 A 
BRANCH   9  13
ATOM     13  S   UNL     1       3.889   2.327  -0.024  0.00  0.00    +0.056 S 
ATOM     14  O   UNL     1       4.872   1.470  -0.589  0.00  0.00    -0.153 OA
ATOM     15  O   UNL     1       3.591   3.606  -0.566  0.00  0.00    -0.153 OA
BRANCH  13  16
ATOM     16  N   UNL     1       4.325   2.571   1.555  0.00  0.00    -0.204 NA
ATOM     17  H   UNL     1       5.262   2.640   1.794  0.00  0.00    +0.144 HD
ATOM     18  H   UNL     1       3.643   2.644   2.240  0.00  0.00    +0.144 HD
ENDBRANCH  13  16
ENDBRANCH   9  13
ENDBRANCH   5  12
ENDBRANCH   1   6
BRANCH   3  19
ATOM     19  C   UNL     1      -3.728  -4.963   0.013  0.00  0.00    +0.141 C 
BRANCH  19  20
ATOM     20  C   UNL     1      -3.428  -6.440   0.002  0.00  0.00    -0.014 A 
ATOM     21  C   UNL     1      -3.295  -7.120  -1.202  0.00  0.00    +0.010 A 
ATOM     22  C   UNL     1      -3.020  -8.475  -1.168  0.00  0.00    +0.042 A 
ATOM     23  C   UNL     1      -2.887  -9.107   0.064  0.00  0.00    +0.099 A 
ATOM     24  N   UNL     1      -3.021  -8.424   1.190  0.00  0.00    -0.349 N 
ATOM     25  C   UNL     1      -3.278  -7.129   1.188  0.00  0.00    +0.089 A 
ATOM     26  N   UNL     1      -2.611 -10.469   0.113  0.00  0.00    -0.317 N 
ATOM     27  C   UNL     1      -2.430 -11.349  -1.050  0.00  0.00    +0.106 C 
ATOM     28  C   UNL     1      -2.169 -12.772  -0.513  0.00  0.00    +0.020 C 
ATOM     29  C   UNL     1      -2.778 -12.721   0.914  0.00  0.00    +0.020 C 
ATOM     30  C   UNL     1      -2.443 -11.268   1.341  0.00  0.00    +0.106 C 
ATOM     31  H   UNL     1      -2.924  -8.885   2.038  0.00  0.00    +0.167 HD
ENDBRANCH  19  20
ENDBRANCH   3  19
TORSDOF 6
