REMARK  Name = ZINC16382474
REMARK  6 active torsions:
REMARK  status: ('A' for Active; 'I' for Inactive)
REMARK    1  A    between atoms: C_4  and  C_7
REMARK    2  A    between atoms: C_8  and  C_26
REMARK    3  A    between atoms: C_9  and  C_15
REMARK    4  A    between atoms: C_20  and  O_21
REMARK    5  A    between atoms: O_21  and  C_22
REMARK    6  A    between atoms: C_22  and  C_23
REMARK                            x       y       z     vdW  Elec       q    Type
REMARK                         _______ _______ _______ _____ _____    ______ ____
ROOT
ATOM      1  C   UNL     1      -2.695   2.264  -2.068  0.00  0.00    +0.050 C 
ATOM      2  C   UNL     1      -1.468   2.486  -1.513  0.00  0.00    +0.060 C 
ATOM      3  C   UNL     1      -1.236   1.991  -0.100  0.00  0.00    +0.143 C 
ATOM      4  N   UNL     1      -2.360   1.308   0.562  0.00  0.00    -0.315 N 
ATOM      5  C   UNL     1      -3.516   1.162  -0.113  0.00  0.00    +0.135 C 
ATOM      6  S   UNL     1      -4.825   0.368   0.655  0.00  0.00    -0.019 S 
ATOM      7  N   UNL     1      -3.679   1.615  -1.362  0.00  0.00    -0.296 N 
ATOM      8  H   UNL     1      -2.269   0.970   1.467  0.00  0.00    +0.149 HD
ATOM      9  H   UNL     1      -4.538   1.477  -1.792  0.00  0.00    +0.154 HD
ENDROOT
BRANCH   3  10
ATOM     10  C   UNL     1      -0.067   1.041  -0.127  0.00  0.00    +0.020 A 
ATOM     11  C   UNL     1      -0.285  -0.323  -0.153  0.00  0.00    +0.024 A 
ATOM     12  C   UNL     1       0.788  -1.196  -0.183  0.00  0.00    +0.018 A 
ATOM     13  C   UNL     1       2.082  -0.704  -0.188  0.00  0.00    +0.019 A 
ATOM     14  C   UNL     1       2.304   0.659  -0.163  0.00  0.00    +0.047 A 
ATOM     15  C   UNL     1       1.229   1.535  -0.133  0.00  0.00    +0.127 A 
ATOM     16 BR   UNL     1       0.487  -3.062  -0.218  0.00  0.00    -0.050 Br
BRANCH  15  17
ATOM     17  O   UNL     1       1.446   2.877  -0.108  0.00  0.00    -0.477 OA
BRANCH  17  18
ATOM     18  C   UNL     1       2.800   3.318  -0.224  0.00  0.00    +0.346 C 
BRANCH  18  19
ATOM     19  C   UNL     1       2.843   4.788  -0.178  0.00  0.00    +0.104 C 
ATOM     20  N   UNL     1       2.876   5.923  -0.143  0.00  0.00    -0.193 NA
ENDBRANCH  18  19
ENDBRANCH  17  18
ENDBRANCH  15  17
ENDBRANCH   3  10
BRANCH   1  24
ATOM     21  C   UNL     1      -3.481   3.597  -6.023  0.00  0.00    +0.000 A 
ATOM     22  C   UNL     1      -2.915   4.463  -5.104  0.00  0.00    +0.001 A 
ATOM     23  C   UNL     1      -2.657   4.037  -3.818  0.00  0.00    +0.010 A 
ATOM     24  C   UNL     1      -2.969   2.728  -3.444  0.00  0.00    -0.003 A 
ATOM     25  C   UNL     1      -3.534   1.857  -4.378  0.00  0.00    +0.010 A 
ATOM     26  C   UNL     1      -3.793   2.299  -5.659  0.00  0.00    +0.001 A 
ENDBRANCH   1  24
BRANCH   2  27
ATOM     27  C   UNL     1      -0.452   3.153  -2.230  0.00  0.00    +0.241 C 
ATOM     28  O   UNL     1      -0.180   4.311  -1.967  0.00  0.00    -0.271 OA
ATOM     29  N   UNL     1       0.219   2.508  -3.205  0.00  0.00    -0.325 N 
ATOM     30  H   UNL     1      -0.044   1.611  -3.463  0.00  0.00    +0.145 HD
ATOM     31  H   UNL     1       0.966   2.941  -3.648  0.00  0.00    +0.145 HD
ENDBRANCH   2  27
TORSDOF 6
