REMARK  Name = ZINC39915884
REMARK  15 active torsions:
REMARK  status: ('A' for Active; 'I' for Inactive)
REMARK    1  A    between atoms: C_1  and  C_2
REMARK    2  A    between atoms: C_2  and  C_3
REMARK    3  A    between atoms: C_2  and  C_4
REMARK    4  A    between atoms: C_4  and  C_5
REMARK    5  A    between atoms: C_5  and  O_6
REMARK    6  A    between atoms: O_6  and  C_7
REMARK    7  A    between atoms: C_12  and  C_13
REMARK    8  A    between atoms: C_13  and  N_14
REMARK    9  A    between atoms: C_22  and  S_23
REMARK   10  A    between atoms: S_23  and  C_24
REMARK   11  A    between atoms: C_26  and  O_39
REMARK   12  A    between atoms: C_28  and  O_38
REMARK   13  A    between atoms: C_30  and  O_37
REMARK   14  A    between atoms: C_32  and  C_35
REMARK   15  A    between atoms: C_35  and  O_36
REMARK                            x       y       z     vdW  Elec       q    Type
REMARK                         _______ _______ _______ _____ _____    ______ ____
ROOT
ATOM      1  N   UNL     1      -5.772  -3.045  -1.417  0.00  0.00    -0.314 N 
ATOM      2  C   UNL     1      -5.308  -1.884  -2.014  0.00  0.00    +0.070 A 
ATOM      3  C   UNL     1      -4.424  -0.890  -1.624  0.00  0.00    +0.028 A 
ATOM      4  C   UNL     1      -4.165   0.169  -2.469  0.00  0.00    +0.002 A 
ATOM      5  C   UNL     1      -4.783   0.246  -3.708  0.00  0.00    +0.002 A 
ATOM      6  C   UNL     1      -5.664  -0.732  -4.112  0.00  0.00    +0.030 A 
ATOM      7  C   UNL     1      -5.937  -1.811  -3.268  0.00  0.00    +0.090 A 
ATOM      8  N   UNL     1      -6.737  -2.904  -3.379  0.00  0.00    -0.222 NA
ATOM      9  C   UNL     1      -6.637  -3.634  -2.295  0.00  0.00    +0.173 A 
ENDROOT
BRANCH   1  10
ATOM     10  C   UNL     1      -5.399  -3.551  -0.094  0.00  0.00    +0.163 C 
BRANCH  10  16
ATOM     11  C   UNL     1      -2.919  -3.897  -0.222  0.00  0.00    +0.125 A 
ATOM     12  C   UNL     1      -1.810  -4.724  -0.333  0.00  0.00    +0.046 A 
ATOM     13  C   UNL     1      -1.978  -6.090  -0.445  0.00  0.00    +0.004 A 
ATOM     14  C   UNL     1      -3.249  -6.634  -0.448  0.00  0.00    +0.001 A 
ATOM     15  C   UNL     1      -4.355  -5.812  -0.338  0.00  0.00    +0.009 A 
ATOM     16  C   UNL     1      -4.193  -4.446  -0.220  0.00  0.00    +0.014 A 
BRANCH  11  17
ATOM     17  O   UNL     1      -2.756  -2.552  -0.111  0.00  0.00    -0.492 OA
BRANCH  17  18
ATOM     18  C   UNL     1      -1.416  -2.058  -0.121  0.00  0.00    +0.229 C 
BRANCH  18  19
ATOM     19  C   UNL     1      -1.433  -0.534   0.013  0.00  0.00    +0.044 C 
BRANCH  19  21
ATOM     20  C   UNL     1      -0.019   1.526   0.010  0.00  0.00    +0.007 C 
ATOM     21  C   UNL     1       0.002  -0.004   0.002  0.00  0.00    -0.014 C 
ATOM     22  C   UNL     1       0.742  -0.511   1.242  0.00  0.00    +0.007 C 
ENDBRANCH  19  21
ENDBRANCH  18  19
ENDBRANCH  17  18
ENDBRANCH  11  17
ENDBRANCH  10  16
ENDBRANCH   1  10
BRANCH   9  23
ATOM     23  S   UNL     1      -7.496  -5.146  -2.011  0.00  0.00    -0.054 S 
BRANCH  23  24
ATOM     24  C   UNL     1      -8.470  -5.389  -3.522  0.00  0.00    +0.214 C 
ATOM     25  C   UNL     1      -9.457  -6.540  -3.313  0.00  0.00    +0.185 C 
ATOM     26  C   UNL     1     -10.233  -6.778  -4.612  0.00  0.00    +0.177 C 
ATOM     27  C   UNL     1      -9.240  -7.061  -5.743  0.00  0.00    +0.176 C 
ATOM     28  C   UNL     1      -8.261  -5.890  -5.858  0.00  0.00    +0.176 C 
ATOM     29  O   UNL     1      -7.595  -5.703  -4.607  0.00  0.00    -0.355 OA
BRANCH  27  30
ATOM     30  O   UNL     1      -8.519  -8.261  -5.456  0.00  0.00    -0.386 OA
ATOM     31  H   UNL     1      -9.079  -9.045  -5.366  0.00  0.00    +0.210 HD
ENDBRANCH  27  30
BRANCH  26  32
ATOM     32  O   UNL     1     -11.107  -7.897  -4.449  0.00  0.00    -0.386 OA
ATOM     33  H   UNL     1     -11.759  -7.788  -3.744  0.00  0.00    +0.210 HD
ENDBRANCH  26  32
BRANCH  25  34
ATOM     34  O   UNL     1      -8.741  -7.725  -2.960  0.00  0.00    -0.386 OA
ATOM     35  H   UNL     1      -8.223  -7.644  -2.147  0.00  0.00    +0.210 HD
ENDBRANCH  25  34
BRANCH  28  36
ATOM     36  C   UNL     1      -7.229  -6.192  -6.946  0.00  0.00    +0.190 C 
BRANCH  36  37
ATOM     37  O   UNL     1      -6.387  -5.053  -7.133  0.00  0.00    -0.392 OA
ATOM     38  H   UNL     1      -5.707  -5.173  -7.810  0.00  0.00    +0.210 HD
ENDBRANCH  36  37
ENDBRANCH  28  36
ENDBRANCH  23  24
ENDBRANCH   9  23
TORSDOF 13
