REMARK  Name = ZINC36588655
REMARK  17 active torsions:
REMARK  status: ('A' for Active; 'I' for Inactive)
REMARK    1  A    between atoms: C_1  and  C_2
REMARK    2  A    between atoms: C_2  and  C_4
REMARK    3  A    between atoms: C_2  and  C_10
REMARK    4  A    between atoms: C_10  and  C_12
REMARK    5  A    between atoms: C_10  and  N_19
REMARK    6  A    between atoms: N_14  and  C_15
REMARK    7  A    between atoms: C_15  and  C_16
REMARK    8  A    between atoms: C_15  and  C_17
REMARK    9  A    between atoms: C_15  and  C_18
REMARK   10  A    between atoms: N_19  and  C_36
REMARK   11  A    between atoms: C_20  and  C_22
REMARK   12  A    between atoms: C_22  and  C_23
REMARK   13  A    between atoms: C_22  and  C_29
REMARK   14  A    between atoms: C_22  and  O_35
REMARK   15  A    between atoms: C_36  and  C_37
REMARK   16  A    between atoms: C_36  and  C_38
REMARK   17  A    between atoms: C_36  and  C_39
REMARK                            x       y       z     vdW  Elec       q    Type
REMARK                         _______ _______ _______ _____ _____    ______ ____
ROOT
ATOM      1  N   UNL     1      -0.603   0.642  -2.414  0.00  0.00    -0.281 N 
ATOM      2  C   UNL     1      -1.009   1.316  -1.320  0.00  0.00    +0.258 C 
ATOM      3  O   UNL     1      -0.358   1.262  -0.298  0.00  0.00    -0.272 OA
ENDROOT
BRANCH   1   4
ATOM      4  C   UNL     1      -1.578   0.240  -3.431  0.00  0.00    +0.030 C 
ATOM      5  C   UNL     1      -2.478  -0.862  -2.868  0.00  0.00    +0.031 C 
ATOM      6  C   UNL     1      -2.433   1.446  -3.823  0.00  0.00    +0.031 C 
ATOM      7  C   UNL     1      -0.841  -0.285  -4.665  0.00  0.00    +0.031 C 
ENDBRANCH   1   4
BRANCH   1   8
ATOM      8  C   UNL     1       0.814   0.311  -2.587  0.00  0.00    +0.170 C 
BRANCH   8   9
ATOM      9  C   UNL     1       0.979  -1.186  -2.628  0.00  0.00    +0.235 C 
ATOM     10  O   UNL     1       0.010  -1.906  -2.516  0.00  0.00    -0.274 OA
ATOM     11  N   UNL     1       2.204  -1.724  -2.790  0.00  0.00    -0.309 N 
ATOM     12  H   UNL     1       2.979  -1.148  -2.880  0.00  0.00    +0.149 HD
BRANCH  11  13
ATOM     13  C   UNL     1       2.365  -3.180  -2.830  0.00  0.00    +0.026 C 
ATOM     14  C   UNL     1       1.553  -3.751  -3.995  0.00  0.00    +0.031 C 
ATOM     15  C   UNL     1       3.843  -3.525  -3.021  0.00  0.00    +0.031 C 
ATOM     16  C   UNL     1       1.865  -3.785  -1.517  0.00  0.00    +0.031 C 
ENDBRANCH  11  13
ENDBRANCH   8   9
BRANCH   8  18
ATOM     17  C   UNL     1       0.875   2.377  -3.991  0.00  0.00    +0.015 C 
ATOM     18  C   UNL     1       1.323   0.917  -3.896  0.00  0.00    +0.045 C 
BRANCH  18  19
ATOM     19  C   UNL     1       2.829   0.851  -3.928  0.00  0.00    -0.042 A 
ATOM     20  C   UNL     1       3.569   1.488  -2.950  0.00  0.00    +0.004 A 
ATOM     21  C   UNL     1       4.950   1.427  -2.979  0.00  0.00    +0.000 A 
ATOM     22  C   UNL     1       5.590   0.729  -3.987  0.00  0.00    +0.000 A 
ATOM     23  C   UNL     1       4.849   0.092  -4.965  0.00  0.00    +0.000 A 
ATOM     24  C   UNL     1       3.468   0.149  -4.933  0.00  0.00    +0.004 A 
ENDBRANCH  18  19
ENDBRANCH   8  18
ENDBRANCH   1   8
BRANCH   2  25
ATOM     25  C   UNL     1      -2.273   2.135  -1.366  0.00  0.00    +0.192 C 
BRANCH  25  26
ATOM     26  C   UNL     1      -3.468   1.221  -1.279  0.00  0.00    -0.003 A 
ATOM     27  C   UNL     1      -3.514   0.233  -0.313  0.00  0.00    +0.007 A 
ATOM     28  C   UNL     1      -4.610  -0.605  -0.234  0.00  0.00    +0.000 A 
ATOM     29  C   UNL     1      -5.660  -0.455  -1.119  0.00  0.00    +0.000 A 
ATOM     30  C   UNL     1      -5.615   0.533  -2.084  0.00  0.00    +0.000 A 
ATOM     31  C   UNL     1      -4.521   1.375  -2.161  0.00  0.00    +0.007 A 
ENDBRANCH  25  26
BRANCH  25  32
ATOM     32  C   UNL     1      -2.291   3.097  -0.206  0.00  0.00    -0.003 A 
ATOM     33  C   UNL     1      -1.887   2.676   1.047  0.00  0.00    +0.007 A 
ATOM     34  C   UNL     1      -1.903   3.558   2.111  0.00  0.00    +0.000 A 
ATOM     35  C   UNL     1      -2.323   4.861   1.922  0.00  0.00    +0.000 A 
ATOM     36  C   UNL     1      -2.725   5.283   0.669  0.00  0.00    +0.000 A 
ATOM     37  C   UNL     1      -2.705   4.402  -0.396  0.00  0.00    +0.007 A 
ENDBRANCH  25  32
BRANCH  25  38
ATOM     38  O   UNL     1      -2.321   2.867  -2.592  0.00  0.00    -0.371 OA
ATOM     39  H   UNL     1      -1.550   3.430  -2.746  0.00  0.00    +0.212 HD
ENDBRANCH  25  38
ENDBRANCH   2  25
TORSDOF 10
