REMARK  Name = ZINC19211161
REMARK  10 active torsions:
REMARK  status: ('A' for Active; 'I' for Inactive)
REMARK    1  A    between atoms: C_1  and  C_2
REMARK    2  A    between atoms: C_5  and  S_8
REMARK    3  A    between atoms: S_8  and  C_11
REMARK    4  A    between atoms: C_11  and  N_12
REMARK    5  A    between atoms: C_13  and  C_17
REMARK    6  A    between atoms: C_17  and  C_19
REMARK    7  A    between atoms: C_17  and  N_22
REMARK    8  A    between atoms: C_19  and  C_20
REMARK    9  A    between atoms: C_19  and  C_21
REMARK   10  A    between atoms: C_28  and  C_30
REMARK                            x       y       z     vdW  Elec       q    Type
REMARK                         _______ _______ _______ _____ _____    ______ ____
ROOT
ATOM      1  C   UNL     1       1.775  -6.772   2.466  0.00  0.00    +0.129 C 
ENDROOT
BRANCH   1   2
ATOM      2  N   UNL     1       2.777  -7.380   3.352  0.00  0.00    -0.289 NA
ATOM      3  C   UNL     1       2.521  -7.029   4.755  0.00  0.00    +0.104 C 
ATOM      4  C   UNL     1       3.470  -7.822   5.659  0.00  0.00    +0.123 C 
ATOM      5  N   UNL     1       4.850  -7.593   5.202  0.00  0.00    -0.293 N 
ATOM      6  C   UNL     1       5.153  -7.792   3.777  0.00  0.00    +0.123 C 
ATOM      7  C   UNL     1       4.137  -7.000   2.947  0.00  0.00    +0.104 C 
ATOM      8  C   UNL     1       5.810  -7.210   6.067  0.00  0.00    +0.282 C 
ATOM      9  O   UNL     1       5.568  -7.152   7.258  0.00  0.00    -0.267 OA
BRANCH   8  10
ATOM     10  C   UNL     1       7.147  -6.865   5.573  0.00  0.00    +0.189 A 
ATOM     11  C   UNL     1       8.242  -6.595   6.342  0.00  0.00    +0.054 A 
ATOM     12  C   UNL     1       9.298  -6.318   5.459  0.00  0.00    +0.042 A 
ATOM     13  C   UNL     1       8.807  -6.431   4.205  0.00  0.00    +0.196 A 
ATOM     14  O   UNL     1       7.512  -6.765   4.278  0.00  0.00    -0.458 OA
ENDBRANCH   8  10
ENDBRANCH   1   2
BRANCH   1  16
ATOM     15  N   UNL     1       2.276  -6.596  -0.029  0.00  0.00    -0.206 N 
ATOM     16  C   UNL     1       1.952  -7.306   1.067  0.00  0.00    +0.170 A 
ATOM     17  N   UNL     1       1.819  -8.552   0.683  0.00  0.00    -0.112 NA
ATOM     18  N   UNL     1       2.051  -8.605  -0.583  0.00  0.00    -0.023 NA
ATOM     19  N   UNL     1       2.322  -7.424  -1.018  0.00  0.00    -0.042 NA
BRANCH  15  20
ATOM     20  C   UNL     1       2.526  -5.154  -0.089  0.00  0.00    +0.318 C 
BRANCH  20  21
ATOM     21  S   UNL     1       1.052  -4.312  -0.731  0.00  0.00    +0.017 S 
ATOM     22  O   UNL     1      -0.039  -4.487   0.163  0.00  0.00    -0.168 OA
ATOM     23  O   UNL     1       0.902  -4.578  -2.119  0.00  0.00    -0.168 OA
BRANCH  21  28
ATOM     24  C   UNL     1       2.366   1.569  -0.425  0.00  0.00    +0.044 C 
ATOM     25  C   UNL     1       2.038   0.100  -0.502  0.00  0.00    -0.050 A 
ATOM     26  C   UNL     1       2.345  -0.619  -1.642  0.00  0.00    +0.005 A 
ATOM     27  C   UNL     1       2.044  -1.966  -1.712  0.00  0.00    +0.027 A 
ATOM     28  C   UNL     1       1.437  -2.595  -0.641  0.00  0.00    +0.090 A 
ATOM     29  C   UNL     1       1.131  -1.877   0.500  0.00  0.00    +0.027 A 
ATOM     30  C   UNL     1       1.436  -0.530   0.571  0.00  0.00    +0.005 A 
ENDBRANCH  21  28
ENDBRANCH  20  21
ENDBRANCH  15  20
ENDBRANCH   1  16
BRANCH   1  31
ATOM     31  C   UNL     1       0.372  -7.117   2.970  0.00  0.00    +0.008 C 
ATOM     32  C   UNL     1      -0.671  -6.477   2.053  0.00  0.00    +0.009 C 
ATOM     33  C   UNL     1       0.189  -8.636   2.968  0.00  0.00    +0.009 C 
ENDBRANCH   1  31
TORSDOF 7
