REMARK  Name = ZINC36546636
REMARK  10 active torsions:
REMARK  status: ('A' for Active; 'I' for Inactive)
REMARK    1  A    between atoms: C_1  and  C_2
REMARK    2  A    between atoms: C_2  and  C_3
REMARK    3  A    between atoms: C_2  and  C_4
REMARK    4  A    between atoms: C_2  and  N_5
REMARK    5  A    between atoms: C_6  and  C_8
REMARK    6  A    between atoms: C_8  and  C_10
REMARK    7  A    between atoms: C_8  and  N_19
REMARK    8  A    between atoms: C_13  and  N_16
REMARK    9  A    between atoms: N_19  and  C_20
REMARK   10  A    between atoms: C_27  and  C_29
REMARK                            x       y       z     vdW  Elec       q    Type
REMARK                         _______ _______ _______ _____ _____    ______ ____
ROOT
ATOM      1  C   UNL     1       2.944  -0.485  -2.320  0.00  0.00    +0.198 C 
ENDROOT
BRANCH   1   2
ATOM      2  C   UNL     1       3.214  -1.939  -2.030  0.00  0.00    -0.018 A 
ATOM      3  C   UNL     1       4.366  -2.309  -1.361  0.00  0.00    +0.008 A 
ATOM      4  C   UNL     1       4.614  -3.643  -1.095  0.00  0.00    +0.033 A 
ATOM      5  C   UNL     1       3.709  -4.607  -1.499  0.00  0.00    +0.126 A 
ATOM      6  C   UNL     1       2.557  -4.238  -2.168  0.00  0.00    +0.033 A 
ATOM      7  C   UNL     1       2.308  -2.904  -2.429  0.00  0.00    +0.008 A 
BRANCH   5   8
ATOM      8  N   UNL     1       3.975  -6.035  -1.216  0.00  0.00    +0.056 N 
ATOM      9  O   UNL     1       4.983  -6.358  -0.631  0.00  0.00    -0.126 OA
ATOM     10  O   UNL     1       3.184  -6.879  -1.569  0.00  0.00    -0.126 OA
ENDBRANCH   5   8
ENDBRANCH   1   2
BRANCH   1  12
ATOM     11  N   UNL     1       1.802   0.137  -0.216  0.00  0.00    -0.309 N 
ATOM     12  C   UNL     1       2.872   0.280  -1.024  0.00  0.00    +0.239 C 
ATOM     13  O   UNL     1       3.776   1.024  -0.707  0.00  0.00    -0.273 OA
ATOM     14  H   UNL     1       1.079  -0.458  -0.469  0.00  0.00    +0.149 HD
BRANCH  11  16
ATOM     15  C   UNL     1       1.778   2.382   0.754  0.00  0.00    +0.031 C 
ATOM     16  C   UNL     1       1.732   0.881   1.044  0.00  0.00    +0.026 C 
ATOM     17  C   UNL     1       2.918   0.497   1.931  0.00  0.00    +0.031 C 
ATOM     18  C   UNL     1       0.426   0.541   1.765  0.00  0.00    +0.031 C 
ENDBRANCH  11  16
ENDBRANCH   1  12
BRANCH   1  19
ATOM     19  N   UNL     1       4.025   0.057  -3.147  0.00  0.00    -0.250 N 
ATOM     20  C   UNL     1       3.941   1.313  -3.627  0.00  0.00    +0.252 C 
ATOM     21  O   UNL     1       2.999   2.019  -3.321  0.00  0.00    -0.270 OA
BRANCH  19  22
ATOM     22  C   UNL     1       5.145  -0.730  -3.439  0.00  0.00    +0.056 A 
ATOM     23  C   UNL     1       5.046  -1.769  -4.355  0.00  0.00    +0.025 A 
ATOM     24  C   UNL     1       6.152  -2.544  -4.641  0.00  0.00    +0.002 A 
ATOM     25  C   UNL     1       7.359  -2.287  -4.016  0.00  0.00    +0.002 A 
ATOM     26  C   UNL     1       7.462  -1.253  -3.103  0.00  0.00    +0.022 A 
ATOM     27  C   UNL     1       6.360  -0.470  -2.817  0.00  0.00    +0.062 A 
ATOM     28 CL   UNL     1       6.491   0.832  -1.676  0.00  0.00    -0.082 Cl
ENDBRANCH  19  22
BRANCH  20  29
ATOM     29  C   UNL     1       4.993   1.833  -4.525  0.00  0.00    +0.037 A 
ATOM     30  C   UNL     1       5.589   0.993  -5.468  0.00  0.00    +0.013 A 
ATOM     31  C   UNL     1       6.570   1.485  -6.303  0.00  0.00    +0.001 A 
ATOM     32  C   UNL     1       6.964   2.808  -6.209  0.00  0.00    +0.000 A 
ATOM     33  C   UNL     1       6.378   3.646  -5.277  0.00  0.00    +0.001 A 
ATOM     34  C   UNL     1       5.392   3.168  -4.439  0.00  0.00    +0.013 A 
ENDBRANCH  20  29
ENDBRANCH   1  19
TORSDOF 7
