REMARK  Name = ZINC66942081
REMARK  8 active torsions:
REMARK  status: ('A' for Active; 'I' for Inactive)
REMARK    1  A    between atoms: C_1  and  C_2
REMARK    2  A    between atoms: C_2  and  C_3
REMARK    3  A    between atoms: C_2  and  C_4
REMARK    4  A    between atoms: C_4  and  C_5
REMARK    5  A    between atoms: C_5  and  C_7
REMARK    6  A    between atoms: C_5  and  N_19
REMARK    7  A    between atoms: N_9  and  C_10
REMARK    8  A    between atoms: C_10  and  C_11
REMARK                            x       y       z     vdW  Elec       q    Type
REMARK                         _______ _______ _______ _____ _____    ______ ____
ROOT
ATOM      1  C   UNL     1      -2.802  -2.594  -0.234  0.00  0.00    +0.234 C 
ATOM      2  O   UNL     1      -3.470  -2.984   0.699  0.00  0.00    -0.274 OA
ATOM      3  N   UNL     1      -3.305  -2.629  -1.484  0.00  0.00    -0.310 N 
ATOM      4  H   UNL     1      -2.770  -2.317  -2.231  0.00  0.00    +0.149 HD
ENDROOT
BRANCH   1   5
ATOM      5  C   UNL     1      -1.410  -2.069   0.003  0.00  0.00    +0.161 C 
BRANCH   5   6
ATOM      6  N   UNL     1      -0.918  -2.555   1.295  0.00  0.00    -0.288 N 
ATOM      7  C   UNL     1      -1.580  -2.247   2.427  0.00  0.00    +0.298 C 
ATOM      8  O   UNL     1      -2.585  -1.564   2.377  0.00  0.00    -0.253 OA
ATOM      9  N   UNL     1      -1.128  -2.694   3.615  0.00  0.00    -0.313 N 
ATOM     10  H   UNL     1      -0.116  -3.099   1.335  0.00  0.00    +0.151 HD
ATOM     11  H   UNL     1      -0.326  -3.239   3.655  0.00  0.00    +0.146 HD
ATOM     12  H   UNL     1      -1.604  -2.472   4.431  0.00  0.00    +0.146 HD
ENDBRANCH   5   6
BRANCH   5  13
ATOM     13  C   UNL     1      -1.436  -0.539   0.011  0.00  0.00    +0.034 C 
BRANCH  13  15
ATOM     14  C   UNL     1       0.800  -0.371  -1.091  0.00  0.00    +0.007 C 
ATOM     15  C   UNL     1      -0.009  -0.005   0.154  0.00  0.00    -0.015 C 
ATOM     16  C   UNL     1      -0.047   1.517   0.309  0.00  0.00    +0.007 C 
ENDBRANCH  13  15
ENDBRANCH   5  13
ENDBRANCH   1   5
BRANCH   3  17
ATOM     17  C   UNL     1      -4.658  -3.140  -1.716  0.00  0.00    +0.141 C 
BRANCH  17  18
ATOM     18  C   UNL     1      -4.976  -3.072  -3.187  0.00  0.00    -0.012 A 
ATOM     19  C   UNL     1      -5.740  -2.032  -3.682  0.00  0.00    +0.008 A 
ATOM     20  C   UNL     1      -6.032  -1.970  -5.032  0.00  0.00    +0.016 A 
ATOM     21  C   UNL     1      -5.560  -2.949  -5.888  0.00  0.00    +0.019 A 
ATOM     22  C   UNL     1      -4.796  -3.990  -5.393  0.00  0.00    +0.035 A 
ATOM     23  C   UNL     1      -4.499  -4.049  -4.043  0.00  0.00    +0.047 A 
ATOM     24 CL   UNL     1      -3.535  -5.352  -3.422  0.00  0.00    -0.083 Cl
ATOM     25 BR   UNL     1      -5.960  -2.864  -7.734  0.00  0.00    -0.050 Br
ENDBRANCH  17  18
ENDBRANCH   3  17
TORSDOF 6
