REMARK  Name = ZINC16692149
REMARK  7 active torsions:
REMARK  status: ('A' for Active; 'I' for Inactive)
REMARK    1  A    between atoms: C_1  and  C_2
REMARK    2  A    between atoms: C_2  and  O_3
REMARK    3  A    between atoms: O_3  and  C_4
REMARK    4  A    between atoms: C_7  and  C_11
REMARK    5  A    between atoms: N_13  and  C_14
REMARK    6  A    between atoms: C_14  and  N_16
REMARK    7  A    between atoms: C_22  and  C_26
REMARK                            x       y       z     vdW  Elec       q    Type
REMARK                         _______ _______ _______ _____ _____    ______ ____
ROOT
ATOM      1  C   UNL     1      -5.266   4.612   0.077  0.00  0.00    +0.143 C 
ATOM      2  S   UNL     1      -4.033   5.800   0.072  0.00  0.00    -0.018 S 
ENDROOT
BRANCH   1   3
ATOM      3  N   UNL     1      -4.942   3.304   0.066  0.00  0.00    -0.276 N 
ATOM      4  C   UNL     1      -3.611   2.921   0.052  0.00  0.00    +0.165 A 
ATOM      5  N   UNL     1      -2.537   3.676   0.045  0.00  0.00    -0.225 NA
ATOM      6  C   UNL     1      -1.288   3.161   0.031  0.00  0.00    +0.082 A 
ATOM      7  C   UNL     1      -0.057   3.857   0.023  0.00  0.00    +0.049 A 
ATOM      8  C   UNL     1       1.132   3.175   0.008  0.00  0.00    +0.046 A 
ATOM      9  C   UNL     1       1.173   1.788   0.001  0.00  0.00    -0.031 A 
ATOM     10  C   UNL     1      -0.013   1.076   0.008  0.00  0.00    +0.022 A 
ATOM     11  C   UNL     1      -1.208   1.750   0.017  0.00  0.00    +0.041 A 
ATOM     12  S   UNL     1      -2.920   1.273   0.036  0.00  0.00    -0.052 S 
ATOM     13  C   UNL     1       2.495   1.065  -0.016  0.00  0.00    +0.045 C 
ATOM     14 CL   UNL     1       2.622   4.068  -0.002  0.00  0.00    -0.083 Cl
ATOM     15  H   UNL     1      -5.640   2.631   0.069  0.00  0.00    +0.156 HD
ENDBRANCH   1   3
BRANCH   1  18
ATOM     16  C   UNL     1      -6.886   6.293   0.102  0.00  0.00    +0.250 C 
ATOM     17  O   UNL     1      -6.010   7.137   0.099  0.00  0.00    -0.270 OA
ATOM     18  N   UNL     1      -6.561   4.985   0.091  0.00  0.00    -0.264 N 
ATOM     19  H   UNL     1      -7.260   4.312   0.094  0.00  0.00    +0.157 HD
BRANCH  16  23
ATOM     20  C   UNL     1     -10.966   7.467   0.147  0.00  0.00    +0.134 A 
ATOM     21  C   UNL     1     -10.633   6.118   0.136  0.00  0.00    +0.047 A 
ATOM     22  C   UNL     1      -9.311   5.733   0.116  0.00  0.00    +0.017 A 
ATOM     23  C   UNL     1      -8.303   6.702   0.118  0.00  0.00    +0.038 A 
ATOM     24  C   UNL     1      -8.642   8.057   0.129  0.00  0.00    +0.032 A 
ATOM     25  C   UNL     1      -9.967   8.434   0.143  0.00  0.00    +0.060 A 
ATOM     26 BR   UNL     1     -10.427  10.268   0.158  0.00  0.00    -0.046 Br
BRANCH  20  27
ATOM     27  O   UNL     1     -12.271   7.842   0.162  0.00  0.00    -0.491 OA
BRANCH  27  29
ATOM     28  C   UNL     1     -14.648   7.410   0.182  0.00  0.00    +0.048 C 
ATOM     29  C   UNL     1     -13.246   6.798   0.165  0.00  0.00    +0.226 C 
ENDBRANCH  27  29
ENDBRANCH  20  27
ENDBRANCH  16  23
ENDBRANCH   1  18
TORSDOF 5
