REMARK  Name = ZINC39685057
REMARK  6 active torsions:
REMARK  status: ('A' for Active; 'I' for Inactive)
REMARK    1  A    between atoms: C_5  and  O_7
REMARK    2  A    between atoms: O_7  and  C_8
REMARK    3  A    between atoms: C_8  and  C_9
REMARK    4  A    between atoms: C_9  and  N_10
REMARK    5  A    between atoms: C_11  and  C_13
REMARK    6  A    between atoms: C_24  and  C_26
REMARK                            x       y       z     vdW  Elec       q    Type
REMARK                         _______ _______ _______ _____ _____    ______ ____
ROOT
ATOM      1  C   UNL     1       2.205  -6.295   2.118  0.00  0.00    +0.100 C 
ATOM      2  C   UNL     1       3.573  -5.699   2.517  0.00  0.00    +0.121 C 
ATOM      3  N   UNL     1       4.281  -6.808   3.199  0.00  0.00    -0.296 N 
ATOM      4  C   UNL     1       3.926  -8.012   2.410  0.00  0.00    +0.115 C 
ATOM      5  C   UNL     1       2.441  -7.813   2.048  0.00  0.00    -0.004 C 
ATOM      6  C   UNL     1       1.552  -8.533   3.058  0.00  0.00    -0.010 C 
ATOM      7  C   UNL     1       1.763 -10.045   2.930  0.00  0.00    -0.082 C 
ATOM      8  N   UNL     1       1.434 -10.473   1.565  0.00  0.00    +0.379 N 
ATOM      9  C   UNL     1       2.355  -9.847   0.608  0.00  0.00    -0.082 C 
ATOM     10  C   UNL     1       2.169  -8.327   0.638  0.00  0.00    -0.010 C 
ATOM     11  C   UNL     1       5.069  -6.738   4.290  0.00  0.00    +0.247 C 
ATOM     12  O   UNL     1       5.162  -5.694   4.906  0.00  0.00    -0.270 OA
ATOM     13  H   UNL     1       1.516 -11.476   1.500  0.00  0.00    -0.086 HD
ATOM     14  H   UNL     1       0.488 -10.200   1.347  0.00  0.00    -0.086 HD
ENDROOT
BRANCH  11  15
ATOM     15  C   UNL     1       5.819  -7.931   4.738  0.00  0.00    +0.042 A 
ATOM     16  C   UNL     1       6.072  -8.974   3.847  0.00  0.00    +0.051 A 
ATOM     17  C   UNL     1       6.774 -10.087   4.271  0.00  0.00    +0.127 A 
ATOM     18  C   UNL     1       7.225 -10.167   5.579  0.00  0.00    +0.076 A 
ATOM     19  C   UNL     1       6.976  -9.134   6.468  0.00  0.00    +0.127 A 
ATOM     20  C   UNL     1       6.280  -8.015   6.053  0.00  0.00    +0.051 A 
ATOM     21  F   UNL     1       7.418  -9.220   7.741  0.00  0.00    -0.205 F 
ATOM     22  F   UNL     1       7.020 -11.098   3.410  0.00  0.00    -0.205 F 
ENDBRANCH  11  15
BRANCH   1  24
ATOM     23  N   UNL     1       0.464  -5.635   0.490  0.00  0.00    -0.312 N 
ATOM     24  C   UNL     1       1.775  -5.769   0.773  0.00  0.00    +0.218 C 
ATOM     25  O   UNL     1       2.608  -5.466  -0.054  0.00  0.00    -0.275 OA
ATOM     26  H   UNL     1      -0.203  -5.877   1.151  0.00  0.00    +0.149 HD
BRANCH  23  27
ATOM     27  C   UNL     1       0.046  -5.123  -0.818  0.00  0.00    +0.145 C 
BRANCH  27  28
ATOM     28  C   UNL     1      -1.482  -5.070  -0.880  0.00  0.00    +0.248 C 
BRANCH  28  29
ATOM     29  O   UNL     1      -1.964  -4.118   0.070  0.00  0.00    -0.488 OA
BRANCH  29  34
ATOM     30  C   UNL     1      -5.519  -4.505  -0.605  0.00  0.00    +0.004 A 
ATOM     31  C   UNL     1      -6.053  -3.600   0.293  0.00  0.00    +0.003 A 
ATOM     32  C   UNL     1      -5.220  -2.867   1.118  0.00  0.00    +0.042 A 
ATOM     33  C   UNL     1      -3.849  -3.038   1.046  0.00  0.00    +0.165 A 
ATOM     34  C   UNL     1      -3.311  -3.947   0.144  0.00  0.00    +0.156 A 
ATOM     35  C   UNL     1      -4.150  -4.680  -0.681  0.00  0.00    +0.048 A 
ATOM     36  F   UNL     1      -3.035  -2.321   1.851  0.00  0.00    -0.202 F 
ENDBRANCH  29  34
ENDBRANCH  28  29
ENDBRANCH  27  28
ENDBRANCH  23  27
ENDBRANCH   1  24
TORSDOF 6
