REMARK  Name = ZINC08764810
REMARK  5 active torsions:
REMARK  status: ('A' for Active; 'I' for Inactive)
REMARK    1  A    between atoms: C_1  and  C_2
REMARK    2  A    between atoms: C_4  and  O_37
REMARK    3  A    between atoms: C_6  and  C_36
REMARK    4  A    between atoms: C_7  and  C_13
REMARK    5  A    between atoms: C_13  and  C_14
REMARK                            x       y       z     vdW  Elec       q    Type
REMARK                         _______ _______ _______ _____ _____    ______ ____
ROOT
ATOM      1  C   UNL     1      -3.046   2.561   7.929  0.00  0.00    +0.221 C 
ATOM      2  O   UNL     1      -2.879   1.423   7.545  0.00  0.00    -0.275 OA
ATOM      3  N   UNL     1      -3.666   2.792   9.104  0.00  0.00    -0.294 N 
ATOM      4  C   UNL     1      -4.025   4.156   9.525  0.00  0.00    +0.109 C 
ATOM      5  C   UNL     1      -5.304   4.113  10.361  0.00  0.00    +0.023 C 
ATOM      6  C   UNL     1      -5.059   3.362  11.673  0.00  0.00    +0.034 C 
ATOM      7  C   UNL     1      -4.050   2.258  11.411  0.00  0.00    -0.053 C 
ATOM      8  C   UNL     1      -3.272   1.866  12.372  0.00  0.00    -0.024 C 
ATOM      9  C   UNL     1      -2.218   0.807  12.193  0.00  0.00    -0.002 C 
ATOM     10  C   UNL     1      -1.785   0.787  10.722  0.00  0.00    +0.010 C 
ATOM     11  C   UNL     1      -3.039   0.536   9.880  0.00  0.00    -0.002 C 
ATOM     12  C   UNL     1      -4.016   1.691  10.012  0.00  0.00    +0.103 C 
ATOM     13  C   UNL     1      -3.682  -0.782  10.290  0.00  0.00    -0.073 C 
ATOM     14  C   UNL     1      -2.830  -0.556  12.553  0.00  0.00    -0.062 C 
ATOM     15  C   UNL     1      -3.222  -0.519  14.033  0.00  0.00    -0.015 C 
ATOM     16  C   UNL     1      -3.909  -1.830  14.421  0.00  0.00    -0.003 C 
ATOM     17  C   UNL     1      -5.138  -2.024  13.526  0.00  0.00    -0.019 C 
ATOM     18  C   UNL     1      -4.685  -2.048  12.066  0.00  0.00    -0.078 C 
ATOM     19  N   UNL     1      -4.041  -0.768  11.720  0.00  0.00    +0.382 N 
ATOM     20  H   UNL     1      -4.702  -0.001  11.893  0.00  0.00    -0.081 HD
ENDROOT
BRANCH   1  21
ATOM     21  C   UNL     1      -2.561   3.717   7.093  0.00  0.00    +0.138 C 
BRANCH  21  28
ATOM     22  C   UNL     1       0.067   0.985   0.075  0.00  0.00    +0.044 C 
ATOM     23  C   UNL     1      -0.650   1.511   1.292  0.00  0.00    -0.043 A 
ATOM     24  C   UNL     1      -2.009   1.769   1.227  0.00  0.00    +0.049 A 
ATOM     25  C   UNL     1      -2.682   2.248   2.337  0.00  0.00    +0.128 A 
ATOM     26  C   UNL     1      -1.974   2.479   3.526  0.00  0.00    +0.062 A 
ATOM     27  C   UNL     1      -2.650   2.990   4.720  0.00  0.00    -0.026 A 
ATOM     28  C   UNL     1      -1.909   3.192   5.840  0.00  0.00    +0.049 A 
ATOM     29  C   UNL     1      -0.527   2.911   5.827  0.00  0.00    +0.341 A 
ATOM     30  O   UNL     1       0.126   3.096   6.837  0.00  0.00    -0.245 OA
ATOM     31  O   UNL     1       0.086   2.443   4.728  0.00  0.00    -0.422 OA
ATOM     32  C   UNL     1      -0.593   2.219   3.583  0.00  0.00    +0.143 A 
ATOM     33  C   UNL     1       0.057   1.735   2.456  0.00  0.00    +0.050 A 
ATOM     34  C   UNL     1      -4.129   3.282   4.707  0.00  0.00    +0.045 C 
BRANCH  25  35
ATOM     35  O   UNL     1      -4.015   2.496   2.274  0.00  0.00    -0.506 OA
ATOM     36  H   UNL     1      -4.235   3.396   1.997  0.00  0.00    +0.292 HD
ENDBRANCH  25  35
ENDBRANCH  21  28
ENDBRANCH   1  21
TORSDOF 3
