REMARK  Name = ZINC59894221
REMARK  4 active torsions:
REMARK  status: ('A' for Active; 'I' for Inactive)
REMARK    1  A    between atoms: C_4  and  S_8
REMARK    2  A    between atoms: S_8  and  N_11
REMARK    3  A    between atoms: N_11  and  C_12
REMARK    4  A    between atoms: C_17  and  N_18
REMARK                            x       y       z     vdW  Elec       q    Type
REMARK                         _______ _______ _______ _____ _____    ______ ____
ROOT
ATOM      1  N   UNL     1       4.055  -1.658   1.387  0.00  0.00    -0.094 NA
ENDROOT
BRANCH   1   2
ATOM      2  C   UNL     1       5.185  -2.437   1.651  0.00  0.00    +0.118 A 
ATOM      3  C   UNL     1       6.220  -2.518   0.726  0.00  0.00    +0.032 A 
ATOM      4  C   UNL     1       7.320  -3.304   1.033  0.00  0.00    +0.022 A 
ATOM      5  C   UNL     1       7.355  -3.978   2.239  0.00  0.00    +0.113 A 
ATOM      6  N   UNL     1       6.360  -3.883   3.100  0.00  0.00    -0.234 NA
ATOM      7  C   UNL     1       5.294  -3.141   2.851  0.00  0.00    +0.180 A 
BRANCH   7   8
ATOM      8  N   UNL     1       4.265  -3.066   3.797  0.00  0.00    -0.200 N 
ATOM      9  C   UNL     1       3.970  -3.978   4.744  0.00  0.00    +0.226 A 
ATOM     10  N   UNL     1       2.942  -3.538   5.424  0.00  0.00    -0.222 NA
ATOM     11  C   UNL     1       2.555  -2.356   4.944  0.00  0.00    +0.245 A 
ATOM     12  N   UNL     1       3.338  -2.022   3.951  0.00  0.00    -0.152 NA
ENDBRANCH   7   8
ENDBRANCH   1   2
BRANCH   1  13
ATOM     13  S   UNL     1       3.938  -0.827  -0.042  0.00  0.00    +0.094 S 
ATOM     14  O   UNL     1       3.846  -1.802  -1.072  0.00  0.00    -0.148 OA
ATOM     15  O   UNL     1       4.956   0.164  -0.019  0.00  0.00    -0.148 OA
BRANCH  13  19
ATOM     16  C   UNL     1      -0.017   1.377   0.010  0.00  0.00    +0.003 A 
ATOM     17  C   UNL     1       1.171   2.086   0.002  0.00  0.00    +0.002 A 
ATOM     18  C   UNL     1       2.378   1.413  -0.013  0.00  0.00    +0.032 A 
ATOM     19  C   UNL     1       2.399   0.030  -0.021  0.00  0.00    +0.145 A 
ATOM     20  C   UNL     1       1.211  -0.679  -0.013  0.00  0.00    +0.150 A 
ATOM     21  C   UNL     1       0.002  -0.004   0.002  0.00  0.00    +0.040 A 
ATOM     22  F   UNL     1       1.230  -2.030  -0.022  0.00  0.00    -0.203 F 
ENDBRANCH  13  19
ENDBRANCH   1  13
TORSDOF 4
