REMARK  Name = ZINC04628568
REMARK  10 active torsions:
REMARK  status: ('A' for Active; 'I' for Inactive)
REMARK    1  A    between atoms: C_1  and  C_2
REMARK    2  A    between atoms: C_2  and  C_3
REMARK    3  A    between atoms: C_10  and  N_14
REMARK    4  A    between atoms: C_11  and  C_12
REMARK    5  A    between atoms: C_15  and  C_17
REMARK    6  A    between atoms: C_18  and  C_19
REMARK    7  A    between atoms: C_22  and  C_25
REMARK    8  A    between atoms: C_25  and  C_26
REMARK    9  A    between atoms: C_25  and  C_27
REMARK   10  A    between atoms: C_25  and  C_28
REMARK                            x       y       z     vdW  Elec       q    Type
REMARK                         _______ _______ _______ _____ _____    ______ ____
ROOT
ATOM      1  N   UNL     1      -0.549   2.243   4.958  0.00  0.00    -0.275 N 
ATOM      2  C   UNL     1      -1.444   2.727   5.841  0.00  0.00    +0.241 C 
ATOM      3  O   UNL     1      -2.559   3.042   5.467  0.00  0.00    -0.270 OA
ATOM      4  H   UNL     1       0.340   1.992   5.255  0.00  0.00    +0.156 HD
ENDROOT
BRANCH   1  11
ATOM      5  C   UNL     1      -2.242   1.230  -1.127  0.00  0.00    -0.006 C 
ATOM      6  C   UNL     1      -0.758   1.595  -1.227  0.00  0.00    +0.008 C 
ATOM      7  C   UNL     1      -0.013   1.086   0.008  0.00  0.00    +0.037 C 
ATOM      8  C   UNL     1      -0.732   1.580   1.257  0.00  0.00    -0.018 A 
ATOM      9  C   UNL     1      -2.014   2.013   1.194  0.00  0.00    -0.004 A 
ATOM     10  S   UNL     1      -2.415   2.477   2.854  0.00  0.00    -0.077 S 
ATOM     11  C   UNL     1      -0.898   2.102   3.623  0.00  0.00    +0.090 A 
ATOM     12  C   UNL     1      -0.123   1.627   2.575  0.00  0.00    +0.084 A 
ATOM     13  C   UNL     1      -2.887   2.078  -0.021  0.00  0.00    +0.046 C 
BRANCH   5  15
ATOM     14  C   UNL     1      -4.382   1.034  -2.401  0.00  0.00    +0.004 C 
ATOM     15  C   UNL     1      -2.931   1.514  -2.463  0.00  0.00    +0.000 C 
ENDBRANCH   5  15
BRANCH  12  16
ATOM     16  C   UNL     1       1.227   1.198   2.785  0.00  0.00    +0.102 C 
ATOM     17  N   UNL     1       2.298   0.858   2.951  0.00  0.00    -0.191 NA
ENDBRANCH  12  16
ENDBRANCH   1  11
BRANCH   2  18
ATOM     18  C   UNL     1      -1.075   2.876   7.250  0.00  0.00    +0.068 C 
ATOM     19  C   UNL     1      -1.971   3.361   8.133  0.00  0.00    +0.013 C 
BRANCH  19  20
ATOM     20  C   UNL     1      -1.600   3.510   9.550  0.00  0.00    -0.025 A 
ATOM     21  C   UNL     1      -0.322   3.144   9.984  0.00  0.00    +0.008 A 
ATOM     22  C   UNL     1       0.019   3.291  11.312  0.00  0.00    +0.005 A 
ATOM     23  C   UNL     1      -0.903   3.789  12.216  0.00  0.00    -0.042 A 
ATOM     24  C   UNL     1      -2.172   4.149  11.795  0.00  0.00    +0.005 A 
ATOM     25  C   UNL     1      -2.526   4.012  10.470  0.00  0.00    +0.008 A 
BRANCH  23  26
ATOM     26  C   UNL     1      -0.524   3.940  13.667  0.00  0.00    -0.013 C 
ATOM     27  C   UNL     1      -1.458   3.089  14.530  0.00  0.00    +0.015 C 
ATOM     28  C   UNL     1       0.920   3.477  13.868  0.00  0.00    +0.015 C 
ATOM     29  C   UNL     1      -0.650   5.409  14.076  0.00  0.00    +0.015 C 
ENDBRANCH  23  26
ENDBRANCH  19  20
ENDBRANCH   2  18
TORSDOF 6
