REMARK  Name = ZINC67095248
REMARK  10 active torsions:
REMARK  status: ('A' for Active; 'I' for Inactive)
REMARK    1  A    between atoms: C_1  and  N_2
REMARK    2  A    between atoms: N_2  and  C_3
REMARK    3  A    between atoms: N_2  and  C_4
REMARK    4  A    between atoms: C_4  and  C_10
REMARK    5  A    between atoms: C_10  and  N_11
REMARK    6  A    between atoms: N_11  and  C_12
REMARK    7  A    between atoms: C_15  and  S_22
REMARK    8  A    between atoms: C_17  and  S_18
REMARK    9  A    between atoms: S_18  and  C_21
REMARK   10  A    between atoms: S_22  and  N_25
REMARK                            x       y       z     vdW  Elec       q    Type
REMARK                         _______ _______ _______ _____ _____    ______ ____
ROOT
ATOM      1  C   UNL     1      -3.021   2.248   2.097  0.00  0.00    +0.052 A 
ATOM      2  C   UNL     1      -3.451   1.637   3.268  0.00  0.00    +0.027 A 
ATOM      3  C   UNL     1      -3.903   2.408   4.321  0.00  0.00    +0.030 A 
ATOM      4  C   UNL     1      -3.927   3.786   4.211  0.00  0.00    +0.107 A 
ATOM      5  C   UNL     1      -3.500   4.397   3.047  0.00  0.00    +0.057 A 
ATOM      6  C   UNL     1      -3.041   3.633   1.992  0.00  0.00    +0.110 A 
ENDROOT
BRANCH   6   7
ATOM      7  S   UNL     1      -2.489   4.413   0.511  0.00  0.00    -0.004 S 
ATOM      8  O   UNL     1      -3.092   3.668  -0.537  0.00  0.00    -0.170 OA
ATOM      9  O   UNL     1      -2.795   5.789   0.691  0.00  0.00    -0.170 OA
ATOM     10  C   UNL     1      -0.692   4.169   0.498  0.00  0.00    +0.200 C 
ENDBRANCH   6   7
BRANCH   4  11
ATOM     11  S   UNL     1      -4.505   4.766   5.557  0.00  0.00    +0.056 S 
ATOM     12  O   UNL     1      -4.940   6.000   5.004  0.00  0.00    -0.153 OA
ATOM     13  O   UNL     1      -5.359   3.933   6.328  0.00  0.00    -0.153 OA
BRANCH  11  14
ATOM     14  N   UNL     1      -3.194   5.110   6.510  0.00  0.00    -0.204 NA
ATOM     15  H   UNL     1      -3.167   5.936   7.018  0.00  0.00    +0.144 HD
ATOM     16  H   UNL     1      -2.454   4.486   6.560  0.00  0.00    +0.144 HD
ENDBRANCH  11  14
ENDBRANCH   4  11
BRANCH   1  17
ATOM     17  N   UNL     1      -2.563   1.472   1.030  0.00  0.00    -0.344 N 
ATOM     18  H   UNL     1      -2.166   1.899   0.255  0.00  0.00    +0.146 HD
BRANCH  17  19
ATOM     19  C   UNL     1      -2.683   0.013   1.082  0.00  0.00    +0.089 C 
BRANCH  19  20
ATOM     20  C   UNL     1      -2.086  -0.593  -0.190  0.00  0.00    -0.050 C 
ATOM     21  C   UNL     1      -2.672   0.112  -1.415  0.00  0.00    -0.010 C 
ATOM     22  C   UNL     1      -4.191  -0.069  -1.429  0.00  0.00    -0.001 C 
ATOM     23  C   UNL     1      -4.527  -1.560  -1.489  0.00  0.00    -0.000 C 
ATOM     24  C   UNL     1      -3.941  -2.265  -0.265  0.00  0.00    -0.001 C 
ATOM     25  C   UNL     1      -2.422  -2.085  -0.251  0.00  0.00    -0.010 C 
BRANCH  20  27
ATOM     26  C   UNL     1      -0.304   1.010  -0.079  0.00  0.00    -0.096 C 
ATOM     27  N   UNL     1      -0.627  -0.420  -0.177  0.00  0.00    +0.381 N 
ATOM     28  C   UNL     1      -0.060  -1.130   0.978  0.00  0.00    -0.096 C 
ATOM     29  H   UNL     1      -0.236  -0.796  -1.028  0.00  0.00    -0.082 HD
ENDBRANCH  20  27
ENDBRANCH  19  20
ENDBRANCH  17  19
ENDBRANCH   1  17
TORSDOF 7
