REMARK  Name = ZINC13134833
REMARK  7 active torsions:
REMARK  status: ('A' for Active; 'I' for Inactive)
REMARK    1  A    between atoms: C_1  and  C_2
REMARK    2  A    between atoms: C_2  and  C_4
REMARK    3  A    between atoms: C_2  and  S_20
REMARK    4  A    between atoms: C_10  and  C_15
REMARK    5  A    between atoms: S_20  and  C_21
REMARK    6  A    between atoms: C_24  and  C_27
REMARK    7  A    between atoms: N_25  and  N_26
REMARK                            x       y       z     vdW  Elec       q    Type
REMARK                         _______ _______ _______ _____ _____    ______ ____
ROOT
ATOM      1  C   UNL     1      -0.753   1.593  -1.232  0.00  0.00    +0.027 C 
ATOM      2  C   UNL     1      -0.013   1.086   0.008  0.00  0.00    +0.117 C 
ENDROOT
BRANCH   2   3
ATOM      3  C   UNL     1      -0.718   1.572   1.248  0.00  0.00    +0.124 A 
ATOM      4  N   UNL     1      -0.293   2.710   1.854  0.00  0.00    -0.309 N 
ATOM      5  H   UNL     1       0.459   3.196   1.481  0.00  0.00    +0.170 HD
ATOM      6  C   UNL     1      -0.896   3.178   2.963  0.00  0.00    +0.260 A 
ATOM      7  O   UNL     1      -0.502   4.201   3.496  0.00  0.00    -0.267 OA
ATOM      8  C   UNL     1      -2.005   2.456   3.507  0.00  0.00    +0.080 A 
ATOM      9  C   UNL     1      -2.813   2.756   4.684  0.00  0.00    +0.010 A 
ATOM     10  C   UNL     1      -3.827   1.914   5.009  0.00  0.00    +0.057 A 
ATOM     11  S   UNL     1      -3.748   0.664   3.741  0.00  0.00    -0.076 S 
ATOM     12  C   UNL     1      -2.373   1.292   2.813  0.00  0.00    +0.116 A 
ATOM     13  N   UNL     1      -1.731   0.894   1.718  0.00  0.00    -0.225 NA
BRANCH   9  14
ATOM     14  C   UNL     1      -2.534   3.951   5.506  0.00  0.00    +0.021 A 
ATOM     15  C   UNL     1      -3.396   4.924   5.936  0.00  0.00    +0.016 A 
ATOM     16  C   UNL     1      -2.901   5.955   6.706  0.00  0.00    +0.008 A 
ATOM     17  C   UNL     1      -1.577   5.981   7.004  0.00  0.00    +0.046 A 
ATOM     18  S   UNL     1      -0.982   4.508   6.191  0.00  0.00    -0.097 S 
ENDBRANCH   9  14
ENDBRANCH   2   3
BRANCH   2  19
ATOM     19  S   UNL     1       1.685   1.712  -0.005  0.00  0.00    -0.074 S 
BRANCH  19  20
ATOM     20  C   UNL     1       2.303   0.892  -1.437  0.00  0.00    +0.209 A 
ATOM     21  N   UNL     1       1.638   0.067  -2.211  0.00  0.00    -0.121 NA
ATOM     22  N   UNL     1       2.397  -0.344  -3.165  0.00  0.00    -0.132 NA
ATOM     23  C   UNL     1       3.583   0.184  -3.052  0.00  0.00    +0.154 A 
ATOM     24  N   UNL     1       3.566   0.990  -1.947  0.00  0.00    -0.228 N 
BRANCH  23  25
ATOM     25  C   UNL     1       4.755  -0.051  -3.968  0.00  0.00    +0.059 C 
ATOM     26  C   UNL     1       4.389   0.388  -5.388  0.00  0.00    +0.011 C 
ATOM     27  C   UNL     1       5.580   0.150  -6.318  0.00  0.00    +0.001 C 
ATOM     28  C   UNL     1       5.936  -1.338  -6.321  0.00  0.00    +0.000 C 
ATOM     29  C   UNL     1       6.302  -1.777  -4.901  0.00  0.00    +0.001 C 
ATOM     30  C   UNL     1       5.112  -1.539  -3.970  0.00  0.00    +0.011 C 
ENDBRANCH  23  25
BRANCH  24  31
ATOM     31  N   UNL     1       4.598   1.738  -1.456  0.00  0.00    -0.295 N 
ATOM     32  H   UNL     1       5.144   1.210  -0.792  0.00  0.00    +0.163 HD
ATOM     33  H   UNL     1       5.179   2.088  -2.204  0.00  0.00    +0.163 HD
ENDBRANCH  24  31
ENDBRANCH  19  20
ENDBRANCH   2  19
TORSDOF 6
