REMARK  Name = ZINC11910912
REMARK  9 active torsions:
REMARK  status: ('A' for Active; 'I' for Inactive)
REMARK    1  A    between atoms: C_1  and  C_2
REMARK    2  A    between atoms: C_4  and  C_7
REMARK    3  A    between atoms: C_7  and  C_9
REMARK    4  A    between atoms: C_7  and  N_60
REMARK    5  A    between atoms: C_10  and  C_11
REMARK    6  A    between atoms: C_10  and  N_60
REMARK    7  A    between atoms: N_19  and  C_22
REMARK    8  A    between atoms: C_22  and  C_23
REMARK    9  A    between atoms: C_27  and  C_29
REMARK                            x       y       z     vdW  Elec       q    Type
REMARK                         _______ _______ _______ _____ _____    ______ ____
ROOT
ATOM      1  C   UNL     1      -0.718   1.572   1.248  0.00  0.00    +0.001 A 
ATOM      2  C   UNL     1      -1.632   0.779   1.860  0.00  0.00    +0.017 A 
ATOM      3  C   UNL     1      -2.296   1.278   3.065  0.00  0.00    -0.001 A 
ATOM      4  C   UNL     1      -3.243   0.507   3.744  0.00  0.00    +0.014 A 
ATOM      5  C   UNL     1      -3.854   1.001   4.864  0.00  0.00    -0.043 A 
ATOM      6  C   UNL     1      -3.539   2.270   5.335  0.00  0.00    -0.042 A 
ATOM      7  C   UNL     1      -2.604   3.047   4.679  0.00  0.00    +0.030 A 
ATOM      8  C   UNL     1      -1.973   2.564   3.539  0.00  0.00    +0.053 A 
ATOM      9  N   UNL     1      -1.038   3.322   2.868  0.00  0.00    -0.304 N 
ATOM     10  C   UNL     1      -0.429   2.853   1.765  0.00  0.00    +0.253 A 
ATOM     11  O   UNL     1       0.393   3.551   1.197  0.00  0.00    -0.267 OA
ATOM     12  C   UNL     1      -4.352   2.568   6.577  0.00  0.00    +0.036 C 
ATOM     13  C   UNL     1      -5.504   1.542   6.563  0.00  0.00    +0.009 C 
ATOM     14  C   UNL     1      -4.898   0.370   5.762  0.00  0.00    +0.036 C 
ENDROOT
BRANCH   1  15
ATOM     15  C   UNL     1      -0.013   1.086   0.008  0.00  0.00    -0.040 C 
BRANCH  15  16
ATOM     16  N   UNL     1      -0.732   1.579  -1.182  0.00  0.00    +0.387 N 
ATOM     17  H   UNL     1      -1.695   1.223  -1.167  0.00  0.00    -0.085 HD
ATOM     18  H   UNL     1      -0.746   2.605  -1.168  0.00  0.00    -0.085 HD
BRANCH  16  19
ATOM     19  C   UNL     1      -0.062   1.117  -2.413  0.00  0.00    -0.024 C 
ATOM     20  C   UNL     1      -0.560  -0.285  -2.770  0.00  0.00    -0.007 C 
BRANCH  19  24
ATOM     21  C   UNL     1      -2.972   4.532  -4.626  0.00  0.00    +0.073 C 
ATOM     22  C   UNL     1      -1.776   3.626  -4.484  0.00  0.00    +0.075 A 
ATOM     23  N   UNL     1      -1.485   2.791  -3.513  0.00  0.00    -0.251 NA
ATOM     24  C   UNL     1      -0.386   2.067  -3.537  0.00  0.00    +0.035 A 
ATOM     25  C   UNL     1       0.446   2.191  -4.603  0.00  0.00    +0.068 A 
ATOM     26  S   UNL     1      -0.434   3.414  -5.565  0.00  0.00    -0.081 S 
ENDBRANCH  19  24
ENDBRANCH  16  19
ENDBRANCH  15  16
ENDBRANCH   1  15
BRANCH   9  27
ATOM     27  C   UNL     1      -0.702   4.660   3.364  0.00  0.00    +0.160 C 
BRANCH  27  28
ATOM     28  C   UNL     1      -1.617   5.675   2.729  0.00  0.00    -0.027 A 
ATOM     29  C   UNL     1      -1.255   6.284   1.541  0.00  0.00    +0.005 A 
ATOM     30  C   UNL     1      -2.096   7.212   0.956  0.00  0.00    +0.001 A 
ATOM     31  C   UNL     1      -3.294   7.539   1.565  0.00  0.00    +0.012 A 
ATOM     32  C   UNL     1      -3.653   6.935   2.755  0.00  0.00    +0.055 A 
ATOM     33  C   UNL     1      -2.814   6.003   3.337  0.00  0.00    +0.017 A 
BRANCH  32  34
ATOM     34  C   UNL     1      -4.958   7.292   3.418  0.00  0.00    +0.417 C 
ATOM     35  F   UNL     1      -4.758   8.365   4.293  0.00  0.00    -0.166 F 
ATOM     36  F   UNL     1      -5.893   7.654   2.442  0.00  0.00    -0.166 F 
ATOM     37  F   UNL     1      -5.435   6.189   4.134  0.00  0.00    -0.166 F 
ENDBRANCH  32  34
ENDBRANCH  27  28
ENDBRANCH   9  27
TORSDOF 7
