REMARK  Name = ZINC21995300
REMARK  4 active torsions:
REMARK  status: ('A' for Active; 'I' for Inactive)
REMARK    1  A    between atoms: C_1  and  C_2
REMARK    2  A    between atoms: C_2  and  C_4
REMARK    3  A    between atoms: C_13  and  C_18
REMARK    4  A    between atoms: C_18  and  C_20
REMARK                            x       y       z     vdW  Elec       q    Type
REMARK                         _______ _______ _______ _____ _____    ______ ____
ROOT
ATOM      1  C   UNL     1       3.520   3.239  -0.013  0.00  0.00    +0.107 A 
ATOM      2  C   UNL     1       3.590   1.839  -0.021  0.00  0.00    +0.032 A 
ATOM      3  C   UNL     1       2.438   1.102  -0.015  0.00  0.00    +0.012 A 
ATOM      4  C   UNL     1       1.210   1.784   0.000  0.00  0.00    +0.003 A 
ATOM      5  C   UNL     1      -0.013   1.076   0.008  0.00  0.00    +0.011 A 
ATOM      6  C   UNL     1      -1.198   1.720   0.017  0.00  0.00    +0.011 A 
ATOM      7  C   UNL     1      -1.269   3.132   0.030  0.00  0.00    +0.003 A 
ATOM      8  C   UNL     1      -2.509   3.792   0.045  0.00  0.00    +0.012 A 
ATOM      9  C   UNL     1      -2.517   5.159   0.052  0.00  0.00    +0.032 A 
ATOM     10  C   UNL     1      -1.304   5.861   0.045  0.00  0.00    +0.107 A 
ATOM     11  N   UNL     1      -0.142   5.225   0.030  0.00  0.00    -0.242 NA
ATOM     12  C   UNL     1      -0.082   3.903   0.023  0.00  0.00    +0.098 A 
ATOM     13  C   UNL     1       1.211   3.200   0.008  0.00  0.00    +0.098 A 
ATOM     14  N   UNL     1       2.354   3.868   0.000  0.00  0.00    -0.242 NA
ENDROOT
BRANCH   1  16
ATOM     15  C   UNL     1       4.707   5.533  -0.012  0.00  0.00    +0.093 C 
ATOM     16  C   UNL     1       4.767   4.027  -0.021  0.00  0.00    +0.178 C 
ATOM     17  O   UNL     1       5.840   3.463  -0.033  0.00  0.00    -0.291 OA
ENDBRANCH   1  16
BRANCH  10  18
ATOM     18  C   UNL     1      -1.321   7.337   0.053  0.00  0.00    +0.178 C 
ATOM     19  O   UNL     1      -2.377   7.931   0.066  0.00  0.00    -0.291 OA
ATOM     20  C   UNL     1      -0.025   8.105   0.045  0.00  0.00    +0.093 C 
ENDBRANCH  10  18
TORSDOF 2
