REMARK  Name = ZINC39465856
REMARK  5 active torsions:
REMARK  status: ('A' for Active; 'I' for Inactive)
REMARK    1  A    between atoms: C_4  and  C_7
REMARK    2  A    between atoms: C_7  and  C_8
REMARK    3  A    between atoms: P_19  and  S_25
REMARK    4  A    between atoms: S_25  and  O_28
REMARK    5  A    between atoms: O_28  and  C_29
REMARK                            x       y       z     vdW  Elec       q    Type
REMARK                         _______ _______ _______ _____ _____    ______ ____
ROOT
ATOM      1  C   UNL     1       4.164  -0.959   1.377  0.00  0.00    -0.008 A 
ATOM      2  C   UNL     1       3.974  -2.199   1.955  0.00  0.00    +0.010 A 
ATOM      3  C   UNL     1       4.388  -2.436   3.257  0.00  0.00    -0.041 A 
ATOM      4  C   UNL     1       4.995  -1.432   3.981  0.00  0.00    -0.021 A 
ATOM      5  C   UNL     1       5.187  -0.187   3.400  0.00  0.00    +0.044 A 
ATOM      6  C   UNL     1       4.779   0.049   2.100  0.00  0.00    +0.127 A 
ATOM      7  F   UNL     1       4.973   1.262   1.539  0.00  0.00    -0.205 F 
ATOM      8  C   UNL     1       5.462  -1.637   5.398  0.00  0.00    +0.130 C 
ATOM      9  C   UNL     1       6.836  -0.985   5.571  0.00  0.00    +0.195 C 
ATOM     10  O   UNL     1       7.222  -1.082   6.956  0.00  0.00    -0.296 OA
ATOM     11  P   UNL     1       7.124  -2.533   7.683  0.00  0.00    +0.458 P 
ATOM     12  O   UNL     1       8.312  -3.352   7.353  0.00  0.00    -0.243 OA
ATOM     13  N   UNL     1       5.756  -3.241   7.081  0.00  0.00    -0.158 NA
ATOM     14  N   UNL     1       5.528  -3.060   5.732  0.00  0.00    -0.224 NA
ATOM     15  C   UNL     1       4.282  -3.746   5.358  0.00  0.00    +0.108 C 
ATOM     16  C   UNL     1       4.162  -3.804   3.846  0.00  0.00    +0.052 C 
ATOM     17  H   UNL     1       5.160  -3.758   7.645  0.00  0.00    +0.152 HD
ENDROOT
BRANCH  11  18
ATOM     18  S   UNL     1       6.965  -2.291   9.783  0.00  0.00    +0.211 S 
ATOM     19  O   UNL     1       5.868  -1.417  10.009  0.00  0.00    -0.126 OA
ATOM     20  O   UNL     1       7.030  -3.593  10.348  0.00  0.00    -0.126 OA
BRANCH  18  21
ATOM     21  O   UNL     1       8.212  -1.553  10.247  0.00  0.00    -0.339 OA
BRANCH  21  22
ATOM     22  C   UNL     1       8.213  -0.227   9.950  0.00  0.00    +0.157 A 
ATOM     23  C   UNL     1       8.738   0.214   8.744  0.00  0.00    +0.048 A 
ATOM     24  C   UNL     1       8.737   1.562   8.443  0.00  0.00    +0.004 A 
ATOM     25  C   UNL     1       8.213   2.472   9.343  0.00  0.00    +0.000 A 
ATOM     26  C   UNL     1       7.689   2.035  10.546  0.00  0.00    +0.004 A 
ATOM     27  C   UNL     1       7.683   0.687  10.848  0.00  0.00    +0.048 A 
ENDBRANCH  21  22
ENDBRANCH  18  21
ENDBRANCH  11  18
BRANCH   1  28
ATOM     28  C   UNL     1       3.711  -0.707  -0.038  0.00  0.00    +0.073 C 
BRANCH  28  32
ATOM     29  C   UNL     1      -0.017   1.378   0.010  0.00  0.00    +0.000 A 
ATOM     30  C   UNL     1       1.171   2.086   0.002  0.00  0.00    +0.000 A 
ATOM     31  C   UNL     1       2.377   1.411  -0.013  0.00  0.00    +0.004 A 
ATOM     32  C   UNL     1       2.396   0.029  -0.020  0.00  0.00    -0.043 A 
ATOM     33  C   UNL     1       1.208  -0.679  -0.012  0.00  0.00    +0.004 A 
ATOM     34  C   UNL     1       0.002  -0.004   0.002  0.00  0.00    +0.000 A 
ENDBRANCH  28  32
ENDBRANCH   1  28
TORSDOF 5
