REMARK  Name = ZINC64002441
REMARK  7 active torsions:
REMARK  status: ('A' for Active; 'I' for Inactive)
REMARK    1  A    between atoms: C_1  and  C_2
REMARK    2  A    between atoms: C_2  and  O_3
REMARK    3  A    between atoms: O_3  and  C_4
REMARK    4  A    between atoms: C_7  and  C_10
REMARK    5  A    between atoms: C_25  and  C_27
REMARK    6  A    between atoms: C_27  and  N_28
REMARK    7  A    between atoms: C_31  and  C_33
REMARK                            x       y       z     vdW  Elec       q    Type
REMARK                         _______ _______ _______ _____ _____    ______ ____
ROOT
ATOM      1  C   UNL     1       1.144  -6.059   1.764  0.00  0.00    +0.133 C 
ATOM      2  C   UNL     1       2.497  -6.532   1.221  0.00  0.00    +0.131 C 
ATOM      3  C   UNL     1       3.556  -6.030   2.194  0.00  0.00    -0.035 C 
ATOM      4  C   UNL     1       4.414  -5.313   1.478  0.00  0.00    -0.001 A 
ATOM      5  C   UNL     1       5.670  -4.638   1.843  0.00  0.00    +0.010 A 
ATOM      6  C   UNL     1       6.303  -3.970   0.843  0.00  0.00    +0.001 A 
ATOM      7  C   UNL     1       5.819  -3.907  -0.467  0.00  0.00    +0.002 A 
ATOM      8  C   UNL     1       4.676  -4.502  -0.892  0.00  0.00    +0.026 A 
ATOM      9  C   UNL     1       3.924  -5.239   0.068  0.00  0.00    +0.043 A 
ATOM     10  N   UNL     1       2.805  -5.927  -0.076  0.00  0.00    -0.375 N 
ATOM     11  C   UNL     1       3.485  -6.298   3.678  0.00  0.00    +0.052 C 
ATOM     12  C   UNL     1       2.074  -5.884   4.135  0.00  0.00    +0.113 C 
ATOM     13  N   UNL     1       1.082  -6.412   3.191  0.00  0.00    -0.290 N 
ATOM     14  C   UNL     1       0.105  -7.228   3.635  0.00  0.00    +0.238 C 
ATOM     15  O   UNL     1      -0.717  -7.667   2.859  0.00  0.00    -0.274 OA
ATOM     16  H   UNL     1       2.275  -6.016  -0.884  0.00  0.00    +0.160 HD
ENDROOT
BRANCH   1  20
ATOM     17  C   UNL     1       0.802  -1.824   1.306  0.00  0.00    +0.121 A 
ATOM     18  C   UNL     1      -0.100  -2.667   0.672  0.00  0.00    +0.046 A 
ATOM     19  C   UNL     1       0.013  -4.035   0.822  0.00  0.00    +0.009 A 
ATOM     20  C   UNL     1       1.024  -4.566   1.603  0.00  0.00    -0.025 A 
ATOM     21  C   UNL     1       1.924  -3.728   2.235  0.00  0.00    +0.009 A 
ATOM     22  C   UNL     1       1.819  -2.359   2.084  0.00  0.00    +0.046 A 
BRANCH  17  23
ATOM     23  O   UNL     1       0.693  -0.477   1.160  0.00  0.00    -0.492 OA
BRANCH  23  25
ATOM     24  C   UNL     1      -0.339   1.531   0.299  0.00  0.00    +0.048 C 
ATOM     25  C   UNL     1      -0.378   0.002   0.344  0.00  0.00    +0.225 C 
ENDBRANCH  23  25
ENDBRANCH  17  23
ENDBRANCH   1  20
BRANCH  14  26
ATOM     26  C   UNL     1       0.034  -7.594   5.095  0.00  0.00    +0.239 C 
BRANCH  26  27
ATOM     27  N   UNL     1      -1.108  -8.484   5.320  0.00  0.00    -0.262 N 
ATOM     28  C   UNL     1      -1.064  -9.700   5.904  0.00  0.00    +0.109 A 
ATOM     29  C   UNL     1      -2.323 -10.195   5.921  0.00  0.00    +0.044 A 
ATOM     30  C   UNL     1      -3.166  -9.249   5.328  0.00  0.00    +0.060 A 
ATOM     31  N   UNL     1      -2.439  -8.221   4.973  0.00  0.00    -0.176 NA
ATOM     32  C   UNL     1      -4.654  -9.388   5.138  0.00  0.00    +0.067 C 
ENDBRANCH  26  27
ENDBRANCH  14  26
TORSDOF 5
