REMARK  Name = ZINC12406265
REMARK  15 active torsions:
REMARK  status: ('A' for Active; 'I' for Inactive)
REMARK    1  A    between atoms: C_1  and  C_2
REMARK    2  A    between atoms: C_2  and  O_4
REMARK    3  A    between atoms: O_4  and  C_5
REMARK    4  A    between atoms: C_5  and  C_6
REMARK    5  A    between atoms: C_8  and  O_33
REMARK    6  A    between atoms: C_10  and  O_29
REMARK    7  A    between atoms: C_12  and  O_25
REMARK    8  A    between atoms: C_14  and  O_17
REMARK    9  A    between atoms: O_17  and  C_18
REMARK   10  A    between atoms: O_25  and  C_26
REMARK   11  A    between atoms: C_26  and  C_28
REMARK   12  A    between atoms: O_29  and  C_30
REMARK   13  A    between atoms: C_30  and  C_32
REMARK   14  A    between atoms: O_33  and  C_34
REMARK   15  A    between atoms: C_34  and  C_36
REMARK                            x       y       z     vdW  Elec       q    Type
REMARK                         _______ _______ _______ _____ _____    ______ ____
ROOT
ATOM      1  C   UNL     1       3.568   2.065  -0.021  0.00  0.00    +0.204 C 
ATOM      2  C   UNL     1       4.858   1.254  -0.163  0.00  0.00    +0.253 C 
ATOM      3  C   UNL     1       6.058   2.205  -0.108  0.00  0.00    +0.266 C 
ATOM      4  C   UNL     1       6.010   2.995   1.203  0.00  0.00    +0.289 C 
ATOM      5  C   UNL     1       4.675   3.739   1.292  0.00  0.00    +0.353 C 
ATOM      6  O   UNL     1       3.601   2.800   1.204  0.00  0.00    -0.328 OA
ENDROOT
BRANCH   1   7
ATOM      7  C   UNL     1       2.367   1.117  -0.015  0.00  0.00    +0.267 C 
BRANCH   7   8
ATOM      8  O   UNL     1       1.139   1.891   0.001  0.00  0.00    -0.462 OA
BRANCH   8  10
ATOM      9  C   UNL     1      -1.329   1.940   0.019  0.00  0.00    +0.136 C 
ATOM     10  C   UNL     1      -0.014   1.204   0.009  0.00  0.00    +0.304 C 
ATOM     11  O   UNL     1       0.002  -0.004   0.002  0.00  0.00    -0.251 OA
ENDBRANCH   8  10
ENDBRANCH   7   8
ENDBRANCH   1   7
BRANCH   5  12
ATOM     12  O   UNL     1       4.578   4.676   0.217  0.00  0.00    -0.458 OA
BRANCH  12  13
ATOM     13  C   UNL     1       3.552   5.566   0.264  0.00  0.00    +0.142 A 
ATOM     14  C   UNL     1       2.656   5.538   1.323  0.00  0.00    +0.047 A 
ATOM     15  C   UNL     1       1.614   6.443   1.369  0.00  0.00    +0.004 A 
ATOM     16  C   UNL     1       1.462   7.377   0.360  0.00  0.00    +0.002 A 
ATOM     17  C   UNL     1       2.353   7.408  -0.696  0.00  0.00    +0.023 A 
ATOM     18  C   UNL     1       3.401   6.507  -0.744  0.00  0.00    +0.083 A 
ATOM     19 CL   UNL     1       4.524   6.551  -2.067  0.00  0.00    -0.080 Cl
ENDBRANCH  12  13
ENDBRANCH   5  12
BRANCH   4  20
ATOM     20  O   UNL     1       6.132   2.082   2.325  0.00  0.00    -0.451 OA
BRANCH  20  21
ATOM     21  C   UNL     1       6.712   2.558   3.438  0.00  0.00    +0.305 C 
ATOM     22  O   UNL     1       7.105   3.700   3.473  0.00  0.00    -0.251 OA
ATOM     23  C   UNL     1       6.874   1.669   4.644  0.00  0.00    +0.136 C 
ENDBRANCH  20  21
ENDBRANCH   4  20
BRANCH   3  24
ATOM     24  O   UNL     1       7.289   1.437  -0.167  0.00  0.00    -0.454 OA
BRANCH  24  25
ATOM     25  C   UNL     1       8.351   2.031  -0.734  0.00  0.00    +0.304 C 
ATOM     26  O   UNL     1       8.255   3.155  -1.167  0.00  0.00    -0.251 OA
ATOM     27  C   UNL     1       9.663   1.296  -0.831  0.00  0.00    +0.136 C 
ENDBRANCH  24  25
ENDBRANCH   3  24
BRANCH   2  28
ATOM     28  O   UNL     1       4.853   0.552  -1.434  0.00  0.00    -0.455 OA
BRANCH  28  29
ATOM     29  C   UNL     1       4.319  -0.679  -1.448  0.00  0.00    +0.304 C 
ATOM     30  O   UNL     1       3.871  -1.155  -0.432  0.00  0.00    -0.251 OA
ATOM     31  C   UNL     1       4.279  -1.468  -2.731  0.00  0.00    +0.136 C 
ENDBRANCH  28  29
ENDBRANCH   2  28
TORSDOF 11
