REMARK  Name = ZINC63743520
REMARK  10 active torsions:
REMARK  status: ('A' for Active; 'I' for Inactive)
REMARK    1  A    between atoms: C_1  and  C_2
REMARK    2  A    between atoms: C_7  and  C_12
REMARK    3  A    between atoms: C_12  and  C_13
REMARK    4  A    between atoms: C_13  and  C_14
REMARK    5  A    between atoms: C_17  and  N_20
REMARK    6  A    between atoms: N_20  and  S_21
REMARK    7  A    between atoms: S_21  and  C_24
REMARK    8  A    between atoms: C_25  and  C_31
REMARK    9  A    between atoms: N_27  and  C_30
REMARK   10  A    between atoms: C_28  and  C_29
REMARK                            x       y       z     vdW  Elec       q    Type
REMARK                         _______ _______ _______ _____ _____    ______ ____
ROOT
ATOM      1  C   UNL     1       2.598  -7.206   1.676  0.00  0.00    -0.047 A 
ATOM      2  C   UNL     1       3.754  -7.070   0.930  0.00  0.00    +0.005 A 
ATOM      3  C   UNL     1       4.898  -7.751   1.298  0.00  0.00    +0.027 A 
ATOM      4  C   UNL     1       4.886  -8.573   2.417  0.00  0.00    +0.074 A 
ATOM      5  C   UNL     1       3.722  -8.707   3.164  0.00  0.00    +0.027 A 
ATOM      6  C   UNL     1       2.583  -8.019   2.794  0.00  0.00    +0.005 A 
ENDROOT
BRANCH   1   7
ATOM      7  C   UNL     1       1.351  -6.461   1.272  0.00  0.00    +0.039 C 
BRANCH   7   8
ATOM      8  C   UNL     1       1.332  -5.091   1.952  0.00  0.00    +0.051 C 
BRANCH   8  15
ATOM      9  C   UNL     1      -0.018   1.503   0.010  0.00  0.00    +0.044 C 
ATOM     10  C   UNL     1       0.002  -0.004   0.002  0.00  0.00    -0.048 A 
ATOM     11  C   UNL     1       0.005  -0.672  -1.235  0.00  0.00    +0.005 A 
ATOM     12  C   UNL     1       0.022  -2.017  -1.335  0.00  0.00    +0.027 A 
ATOM     13  C   UNL     1       0.040  -2.834  -0.114  0.00  0.00    +0.060 A 
ATOM     14  N   UNL     1       0.057  -4.120   0.090  0.00  0.00    -0.363 N 
ATOM     15  C   UNL     1       0.067  -4.335   1.542  0.00  0.00    +0.174 C 
ATOM     16  N   UNL     1       0.053  -3.002   2.159  0.00  0.00    -0.363 N 
ATOM     17  C   UNL     1       0.037  -2.127   1.195  0.00  0.00    +0.060 A 
ATOM     18  C   UNL     1       0.022  -0.657   1.181  0.00  0.00    +0.030 A 
ATOM     19  H   UNL     1       0.062  -4.809  -0.593  0.00  0.00    +0.162 HD
ATOM     20  H   UNL     1       0.055  -2.810   3.109  0.00  0.00    +0.162 HD
ENDBRANCH   8  15
ENDBRANCH   7   8
ENDBRANCH   1   7
BRANCH   4  21
ATOM     21  N   UNL     1       6.041  -9.264   2.792  0.00  0.00    -0.098 NA
BRANCH  21  22
ATOM     22  S   UNL     1       6.024 -10.243   4.127  0.00  0.00    +0.095 S 
ATOM     23  O   UNL     1       5.836  -9.394   5.251  0.00  0.00    -0.148 OA
ATOM     24  O   UNL     1       5.145 -11.319   3.830  0.00  0.00    -0.148 OA
BRANCH  22  25
ATOM     25  C   UNL     1       7.636 -10.937   4.284  0.00  0.00    +0.153 A 
ATOM     26  C   UNL     1       8.077 -12.133   3.708  0.00  0.00    +0.087 A 
ATOM     27  N   UNL     1       9.327 -12.314   4.049  0.00  0.00    -0.174 NA
ATOM     28  N   UNL     1       9.721 -11.239   4.854  0.00  0.00    -0.269 N 
ATOM     29  C   UNL     1       8.668 -10.405   4.979  0.00  0.00    +0.063 A 
ATOM     30  C   UNL     1       8.643  -9.114   5.757  0.00  0.00    +0.067 C 
ATOM     31  C   UNL     1      11.046 -11.049   5.451  0.00  0.00    +0.172 C 
ATOM     32  C   UNL     1       7.254 -13.053   2.843  0.00  0.00    +0.069 C 
ENDBRANCH  22  25
ENDBRANCH  21  22
ENDBRANCH   4  21
TORSDOF 6
