REMARK  Name = ZINC40975239
REMARK  7 active torsions:
REMARK  status: ('A' for Active; 'I' for Inactive)
REMARK    1  A    between atoms: C_1  and  N_2
REMARK    2  A    between atoms: N_2  and  C_3
REMARK    3  A    between atoms: N_2  and  C_4
REMARK    4  A    between atoms: C_4  and  C_5
REMARK    5  A    between atoms: C_5  and  C_7
REMARK    6  A    between atoms: C_14  and  C_23
REMARK    7  A    between atoms: C_15  and  C_16
REMARK                            x       y       z     vdW  Elec       q    Type
REMARK                         _______ _______ _______ _____ _____    ______ ____
ROOT
ATOM      1  C   UNL     1      -2.771  -2.534  -0.368  0.00  0.00    -0.011 A 
ATOM      2  C   UNL     1      -3.757  -2.382   0.619  0.00  0.00    +0.024 A 
ATOM      3  C   UNL     1      -5.011  -2.834   0.402  0.00  0.00    +0.094 A 
ATOM      4  N   UNL     1      -5.336  -3.443  -0.773  0.00  0.00    -0.297 N 
ATOM      5  C   UNL     1      -4.397  -3.607  -1.756  0.00  0.00    +0.139 A 
ATOM      6  C   UNL     1      -3.086  -3.136  -1.548  0.00  0.00    +0.053 A 
ATOM      7  N   UNL     1      -4.962  -4.222  -2.789  0.00  0.00    -0.227 NA
ATOM      8  C   UNL     1      -6.246  -4.468  -2.517  0.00  0.00    +0.099 A 
ATOM      9  C   UNL     1      -6.514  -3.985  -1.241  0.00  0.00    +0.100 A 
ENDROOT
BRANCH   9  10
ATOM     10  C   UNL     1      -7.801  -4.040  -0.531  0.00  0.00    +0.095 A 
ATOM     11  C   UNL     1      -7.844  -4.006   0.872  0.00  0.00    +0.050 A 
ATOM     12  C   UNL     1      -9.075  -4.060   1.492  0.00  0.00    +0.116 A 
ATOM     13  N   UNL     1     -10.173  -4.141   0.753  0.00  0.00    -0.223 NA
ATOM     14  C   UNL     1     -10.106  -4.170  -0.570  0.00  0.00    +0.213 A 
ATOM     15  N   UNL     1      -8.948  -4.116  -1.210  0.00  0.00    -0.213 NA
ATOM     16  N   UNL     1     -11.277  -4.255  -1.303  0.00  0.00    -0.327 N 
ATOM     17  H   UNL     1     -12.133  -4.292  -0.847  0.00  0.00    +0.145 HD
ATOM     18  H   UNL     1     -11.243  -4.278  -2.272  0.00  0.00    +0.145 HD
ENDBRANCH   9  10
BRANCH   8  19
ATOM     19  C   UNL     1      -7.215  -5.139  -3.416  0.00  0.00    +0.003 A 
ATOM     20  C   UNL     1      -8.206  -5.964  -2.885  0.00  0.00    +0.013 A 
ATOM     21  C   UNL     1      -9.105  -6.586  -3.726  0.00  0.00    +0.039 A 
ATOM     22  C   UNL     1      -9.025  -6.393  -5.096  0.00  0.00    +0.123 A 
ATOM     23  C   UNL     1      -8.041  -5.574  -5.628  0.00  0.00    +0.039 A 
ATOM     24  C   UNL     1      -7.141  -4.943  -4.794  0.00  0.00    +0.013 A 
ATOM     25  F   UNL     1      -9.907  -7.004  -5.915  0.00  0.00    -0.205 F 
ENDBRANCH   8  19
BRANCH   1  26
ATOM     26  C   UNL     1      -1.372  -2.028  -0.126  0.00  0.00    +0.180 C 
ATOM     27  F   UNL     1      -0.913  -2.500   1.109  0.00  0.00    -0.242 F 
BRANCH  26  28
ATOM     28  C   UNL     1      -1.378  -0.498  -0.117  0.00  0.00    -0.037 C 
BRANCH  28  30
ATOM     29  C   UNL     1       0.910  -0.366  -0.825  0.00  0.00    -0.096 C 
ATOM     30  N   UNL     1      -0.039  -0.006   0.236  0.00  0.00    +0.378 N 
ATOM     31  C   UNL     1      -0.078   1.455   0.383  0.00  0.00    -0.096 C 
ATOM     32  H   UNL     1       0.254  -0.424   1.106  0.00  0.00    -0.083 HD
ENDBRANCH  28  30
ENDBRANCH  26  28
ENDBRANCH   1  26
TORSDOF 5
