REMARK  Name = ZINC20051759
REMARK  7 active torsions:
REMARK  status: ('A' for Active; 'I' for Inactive)
REMARK    1  A    between atoms: C_1  and  C_2
REMARK    2  A    between atoms: C_2  and  N_3
REMARK    3  A    between atoms: C_5  and  C_20
REMARK    4  A    between atoms: C_14  and  C_19
REMARK    5  A    between atoms: N_22  and  C_23
REMARK    6  A    between atoms: C_23  and  C_24
REMARK    7  A    between atoms: C_24  and  C_25
REMARK                            x       y       z     vdW  Elec       q    Type
REMARK                         _______ _______ _______ _____ _____    ______ ____
ROOT
ATOM      1  N   UNL     1      -0.283   0.007   0.049  0.00  0.00    -0.329 N 
ATOM      2  C   UNL     1      -0.161   1.380   0.034  0.00  0.00    +0.133 A 
ATOM      3  C   UNL     1       1.128   1.961   0.013  0.00  0.00    +0.077 A 
ATOM      4  C   UNL     1       1.248   3.352  -0.004  0.00  0.00    +0.033 A 
ATOM      5  C   UNL     1       0.079   4.109   0.001  0.00  0.00    +0.085 A 
ATOM      6  C   UNL     1      -1.184   3.459   0.022  0.00  0.00    +0.169 A 
ATOM      7  N   UNL     1      -1.249   2.126   0.033  0.00  0.00    -0.212 NA
ATOM      8  N   UNL     1      -2.294   4.205   0.027  0.00  0.00    -0.210 NA
ATOM      9  C   UNL     1      -2.255   5.532   0.013  0.00  0.00    +0.143 A 
ATOM     10  C   UNL     1      -3.474   6.243   0.019  0.00  0.00    +0.047 A 
ATOM     11  C   UNL     1      -3.461   7.603   0.005  0.00  0.00    +0.008 A 
ATOM     12  C   UNL     1      -2.235   8.286  -0.015  0.00  0.00    -0.034 A 
ATOM     13  C   UNL     1      -1.075   7.593  -0.021  0.00  0.00    +0.099 A 
ATOM     14  N   UNL     1      -1.076   6.229  -0.007  0.00  0.00    -0.267 N 
ATOM     15  C   UNL     1       0.108   5.572  -0.014  0.00  0.00    +0.268 A 
ATOM     16  O   UNL     1       1.163   6.179  -0.033  0.00  0.00    -0.267 OA
ATOM     17  C   UNL     1      -2.212   9.792  -0.030  0.00  0.00    +0.045 C 
ATOM     18  H   UNL     1       0.612  -0.626  -0.045  0.00  0.00    +0.147 HD
ENDROOT
BRANCH   3  19
ATOM     19  C   UNL     1       2.328   1.109   0.009  0.00  0.00    +0.247 C 
ATOM     20  O   UNL     1       2.216  -0.099  -0.083  0.00  0.00    -0.270 OA
ATOM     21  N   UNL     1       3.551   1.667   0.108  0.00  0.00    -0.311 N 
ATOM     22  H   UNL     1       3.651   2.760   0.191  0.00  0.00    +0.149 HD
BRANCH  21  23
ATOM     23  C   UNL     1       4.745   0.820   0.104  0.00  0.00    +0.109 C 
BRANCH  23  24
ATOM     24  C   UNL     1       5.993   1.696   0.226  0.00  0.00    +0.054 C 
BRANCH  24  25
ATOM     25  C   UNL     1       7.222   0.824   0.223  0.00  0.00    -0.046 A 
ATOM     26  C   UNL     1       7.732   0.344   1.414  0.00  0.00    +0.004 A 
ATOM     27  C   UNL     1       8.857  -0.460   1.410  0.00  0.00    +0.000 A 
ATOM     28  C   UNL     1       9.477  -0.775   0.216  0.00  0.00    +0.000 A 
ATOM     29  C   UNL     1       8.971  -0.290  -0.975  0.00  0.00    +0.000 A 
ATOM     30  C   UNL     1       7.843   0.510  -0.972  0.00  0.00    +0.004 A 
ENDBRANCH  24  25
ENDBRANCH  23  24
ENDBRANCH  21  23
ENDBRANCH   3  19
BRANCH   1  32
ATOM     31  C   UNL     1      -1.460  -2.133   0.180  0.00  0.00    +0.024 C 
ATOM     32  C   UNL     1      -1.604  -0.610   0.193  0.00  0.00    +0.099 C 
ENDBRANCH   1  32
TORSDOF 5
