REMARK  Name = ZINC36066405
REMARK  12 active torsions:
REMARK  status: ('A' for Active; 'I' for Inactive)
REMARK    1  A    between atoms: C_1  and  C_2
REMARK    2  A    between atoms: C_5  and  N_8
REMARK    3  A    between atoms: C_9  and  C_11
REMARK    4  A    between atoms: N_22  and  C_34
REMARK    5  A    between atoms: C_23  and  C_25
REMARK    6  A    between atoms: N_27  and  C_28
REMARK    7  A    between atoms: C_34  and  C_35
REMARK    8  A    between atoms: C_35  and  C_36
REMARK    9  A    between atoms: C_36  and  O_37
REMARK   10  A    between atoms: O_37  and  C_38
REMARK   11  A    between atoms: C_38  and  C_39
REMARK   12  A    between atoms: C_38  and  C_40
REMARK                            x       y       z     vdW  Elec       q    Type
REMARK                         _______ _______ _______ _____ _____    ______ ____
ROOT
ATOM      1  C   UNL     1       0.309  -6.349   1.121  0.00  0.00    +0.123 C 
ATOM      2  C   UNL     1       1.638  -6.785   0.423  0.00  0.00    +0.155 C 
ATOM      3  C   UNL     1       2.773  -6.015   1.107  0.00  0.00    +0.004 C 
ATOM      4  C   UNL     1       2.945  -6.552   2.321  0.00  0.00    +0.009 C 
ATOM      5  C   UNL     1       1.900  -7.608   2.389  0.00  0.00    +0.127 C 
ATOM      6  C   UNL     1       0.504  -6.900   2.545  0.00  0.00    +0.128 C 
ATOM      7  C   UNL     1      -0.388  -8.055   2.905  0.00  0.00    +0.223 C 
ATOM      8  O   UNL     1      -1.585  -8.103   2.714  0.00  0.00    -0.275 OA
ATOM      9  N   UNL     1       0.356  -9.035   3.478  0.00  0.00    -0.286 N 
ATOM     10  C   UNL     1       1.823  -8.662   3.450  0.00  0.00    +0.198 C 
ATOM     11  O   UNL     1       1.808  -8.124   1.016  0.00  0.00    -0.358 OA
ENDROOT
BRANCH   1  13
ATOM     12  N   UNL     1       0.059  -4.170  -0.021  0.00  0.00    -0.285 N 
ATOM     13  C   UNL     1       0.175  -4.848   1.138  0.00  0.00    +0.224 C 
ATOM     14  O   UNL     1       0.173  -4.251   2.193  0.00  0.00    -0.275 OA
ATOM     15  H   UNL     1      -0.007  -4.651  -0.861  0.00  0.00    +0.155 HD
BRANCH  12  20
ATOM     16  C   UNL     1      -0.047   1.502   0.014  0.00  0.00    +0.044 C 
ATOM     17  C   UNL     1      -0.019  -0.004   0.005  0.00  0.00    -0.050 A 
ATOM     18  C   UNL     1      -0.605  -0.712   1.038  0.00  0.00    +0.005 A 
ATOM     19  C   UNL     1      -0.581  -2.093   1.033  0.00  0.00    +0.023 A 
ATOM     20  C   UNL     1       0.032  -2.771  -0.013  0.00  0.00    +0.033 A 
ATOM     21  C   UNL     1       0.620  -2.058  -1.049  0.00  0.00    +0.023 A 
ATOM     22  C   UNL     1       0.588  -0.677  -1.040  0.00  0.00    +0.005 A 
ENDBRANCH  12  20
ENDBRANCH   1  13
BRANCH  10  23
ATOM     23  C   UNL     1       2.288  -8.113   4.774  0.00  0.00    +0.237 C 
ATOM     24  O   UNL     1       1.476  -7.762   5.604  0.00  0.00    -0.274 OA
ATOM     25  N   UNL     1       3.606  -8.012   5.037  0.00  0.00    -0.311 N 
ATOM     26  H   UNL     1       4.255  -8.292   4.373  0.00  0.00    +0.149 HD
BRANCH  25  27
ATOM     27  C   UNL     1       4.058  -7.478   6.324  0.00  0.00    +0.073 C 
ATOM     28  C   UNL     1       4.104  -5.951   6.255  0.00  0.00    +0.022 C 
ATOM     29  C   UNL     1       4.576  -5.394   7.600  0.00  0.00    +0.002 C 
ATOM     30  C   UNL     1       5.974  -5.932   7.913  0.00  0.00    +0.000 C 
ATOM     31  C   UNL     1       5.928  -7.460   7.981  0.00  0.00    +0.002 C 
ATOM     32  C   UNL     1       5.455  -8.017   6.637  0.00  0.00    +0.022 C 
ENDBRANCH  25  27
ENDBRANCH  10  23
BRANCH   9  33
ATOM     33  C   UNL     1      -0.193 -10.260   4.064  0.00  0.00    +0.111 C 
BRANCH  33  34
ATOM     34  C   UNL     1      -0.271 -11.348   2.991  0.00  0.00    +0.047 C 
BRANCH  34  35
ATOM     35  C   UNL     1      -0.843 -12.628   3.603  0.00  0.00    +0.161 C 
BRANCH  35  36
ATOM     36  O   UNL     1      -0.916 -13.644   2.600  0.00  0.00    -0.377 OA
BRANCH  36  37
ATOM     37  C   UNL     1      -1.441 -14.887   3.070  0.00  0.00    +0.112 C 
ATOM     38  C   UNL     1      -2.160 -15.603   1.925  0.00  0.00    +0.037 C 
ATOM     39  C   UNL     1      -0.295 -15.764   3.580  0.00  0.00    +0.037 C 
ENDBRANCH  36  37
ENDBRANCH  35  36
ENDBRANCH  34  35
ENDBRANCH  33  34
ENDBRANCH   9  33
TORSDOF 9
