REMARK  Name = ZINC01901362
REMARK  11 active torsions:
REMARK  status: ('A' for Active; 'I' for Inactive)
REMARK    1  A    between atoms: C_1  and  C_2
REMARK    2  A    between atoms: C_2  and  C_3
REMARK    3  A    between atoms: C_2  and  C_4
REMARK    4  A    between atoms: N_14  and  C_31
REMARK    5  A    between atoms: C_17  and  S_20
REMARK    6  A    between atoms: S_20  and  C_21
REMARK    7  A    between atoms: C_21  and  C_22
REMARK    8  A    between atoms: N_24  and  C_25
REMARK    9  A    between atoms: C_25  and  C_26
REMARK   10  A    between atoms: C_31  and  C_32
REMARK   11  A    between atoms: C_32  and  C_33
REMARK                            x       y       z     vdW  Elec       q    Type
REMARK                         _______ _______ _______ _____ _____    ______ ____
ROOT
ATOM      1  C   UNL     1      -4.415  -0.299   0.479  0.00  0.00    +0.126 C 
ATOM      2  C   UNL     1      -2.961  -0.114   0.030  0.00  0.00    +0.068 C 
ATOM      3  C   UNL     1      -2.655   1.380   0.034  0.00  0.00    -0.018 A 
ATOM      4  C   UNL     1      -3.668   2.274   0.048  0.00  0.00    +0.021 A 
ATOM      5  S   UNL     1      -2.873   3.853   0.049  0.00  0.00    -0.072 S 
ATOM      6  C   UNL     1      -1.229   3.329   0.031  0.00  0.00    +0.102 A 
ATOM      7  C   UNL     1      -1.306   1.939   0.019  0.00  0.00    +0.074 A 
ATOM      8  C   UNL     1      -0.014   1.213   0.009  0.00  0.00    +0.264 A 
ATOM      9  O   UNL     1       0.002  -0.004   0.002  0.00  0.00    -0.267 OA
ATOM     10  N   UNL     1       1.138   1.903   0.001  0.00  0.00    -0.276 N 
ATOM     11  C   UNL     1       1.152   3.288   0.009  0.00  0.00    +0.240 A 
ATOM     12  N   UNL     1      -0.023   3.994   0.023  0.00  0.00    -0.249 N 
ATOM     13  C   UNL     1       0.290   5.327   0.028  0.00  0.00    +0.198 A 
ATOM     14  N   UNL     1       1.596   5.439   0.016  0.00  0.00    -0.120 NA
ATOM     15  N   UNL     1       2.142   4.150   0.004  0.00  0.00    -0.109 NA
ATOM     16  C   UNL     1      -5.130   1.952   0.058  0.00  0.00    +0.203 C 
ATOM     17  O   UNL     1      -5.276   0.561  -0.271  0.00  0.00    -0.371 OA
ENDROOT
BRANCH   1  19
ATOM     18  C   UNL     1      -6.277  -1.946   0.721  0.00  0.00    +0.010 C 
ATOM     19  C   UNL     1      -4.832  -1.754   0.257  0.00  0.00    +0.012 C 
ATOM     20  C   UNL     1      -4.725  -2.094  -1.231  0.00  0.00    +0.010 C 
ENDBRANCH   1  19
BRANCH  13  21
ATOM     21  S   UNL     1      -0.862   6.661   0.046  0.00  0.00    -0.076 S 
BRANCH  21  22
ATOM     22  C   UNL     1       0.183   8.143   0.045  0.00  0.00    +0.173 C 
BRANCH  22  23
ATOM     23  C   UNL     1      -0.689   9.373   0.060  0.00  0.00    +0.224 C 
ATOM     24  O   UNL     1      -1.897   9.259   0.071  0.00  0.00    -0.275 OA
ATOM     25  N   UNL     1      -0.127  10.598   0.062  0.00  0.00    -0.308 N 
ATOM     26  H   UNL     1       0.838  10.688   0.053  0.00  0.00    +0.149 HD
BRANCH  25  27
ATOM     27  C   UNL     1      -0.975  11.792   0.077  0.00  0.00    +0.178 C 
BRANCH  27  28
ATOM     28  C   UNL     1      -0.107  13.024   0.075  0.00  0.00    +0.122 A 
ATOM     29  C   UNL     1       0.335  13.673  -1.017  0.00  0.00    +0.046 A 
ATOM     30  C   UNL     1       1.110  14.764  -0.559  0.00  0.00    +0.041 A 
ATOM     31  C   UNL     1       1.095  14.716   0.785  0.00  0.00    +0.195 A 
ATOM     32  O   UNL     1       0.351  13.663   1.164  0.00  0.00    -0.466 OA
ENDBRANCH  27  28
ENDBRANCH  25  27
ENDBRANCH  22  23
ENDBRANCH  21  22
ENDBRANCH  13  21
BRANCH  10  33
ATOM     33  C   UNL     1       2.409   1.175  -0.014  0.00  0.00    +0.133 C 
BRANCH  33  34
ATOM     34  C   UNL     1       2.838   0.928  -1.462  0.00  0.00    +0.057 C 
BRANCH  34  35
ATOM     35  C   UNL     1       4.145   0.178  -1.477  0.00  0.00    -0.046 A 
ATOM     36  C   UNL     1       5.340   0.873  -1.491  0.00  0.00    +0.004 A 
ATOM     37  C   UNL     1       6.539   0.185  -1.501  0.00  0.00    +0.000 A 
ATOM     38  C   UNL     1       6.543  -1.197  -1.507  0.00  0.00    +0.000 A 
ATOM     39  C   UNL     1       5.348  -1.892  -1.498  0.00  0.00    +0.000 A 
ATOM     40  C   UNL     1       4.149  -1.204  -1.484  0.00  0.00    +0.004 A 
ENDBRANCH  34  35
ENDBRANCH  33  34
ENDBRANCH  10  33
TORSDOF 9
