REMARK  Name = ZINC63386192
REMARK  8 active torsions:
REMARK  status: ('A' for Active; 'I' for Inactive)
REMARK    1  A    between atoms: C_1  and  O_2
REMARK    2  A    between atoms: O_2  and  C_3
REMARK    3  A    between atoms: C_8  and  C_9
REMARK    4  A    between atoms: C_9  and  N_10
REMARK    5  A    between atoms: C_11  and  C_13
REMARK    6  A    between atoms: N_24  and  C_26
REMARK    7  A    between atoms: C_26  and  C_27
REMARK    8  A    between atoms: C_27  and  C_28
REMARK                            x       y       z     vdW  Elec       q    Type
REMARK                         _______ _______ _______ _____ _____    ______ ____
ROOT
ATOM      1  C   UNL     1       2.286  -3.635   2.964  0.00  0.00    +0.122 C 
ATOM      2  C   UNL     1       2.834  -2.228   3.421  0.00  0.00    +0.155 C 
ATOM      3  C   UNL     1       3.445  -1.683   2.124  0.00  0.00    +0.004 C 
ATOM      4  C   UNL     1       4.543  -2.401   1.933  0.00  0.00    +0.008 C 
ATOM      5  C   UNL     1       4.639  -3.331   3.129  0.00  0.00    +0.116 C 
ATOM      6  C   UNL     1       3.541  -4.470   2.997  0.00  0.00    +0.127 C 
ATOM      7  C   UNL     1       4.122  -5.244   1.885  0.00  0.00    +0.223 C 
ATOM      8  O   UNL     1       3.510  -5.820   1.010  0.00  0.00    -0.275 OA
ATOM      9  N   UNL     1       5.487  -5.188   2.028  0.00  0.00    -0.298 N 
ATOM     10  C   UNL     1       5.843  -4.219   3.079  0.00  0.00    +0.147 C 
ATOM     11  O   UNL     1       4.045  -2.603   4.201  0.00  0.00    -0.359 OA
ENDROOT
BRANCH   1  13
ATOM     12  N   UNL     1       0.382  -3.506   1.390  0.00  0.00    -0.311 N 
ATOM     13  C   UNL     1       1.717  -3.568   1.571  0.00  0.00    +0.220 C 
ATOM     14  O   UNL     1       2.459  -3.569   0.612  0.00  0.00    -0.275 OA
ATOM     15  H   UNL     1      -0.211  -3.505   2.157  0.00  0.00    +0.149 HD
BRANCH  12  16
ATOM     16  C   UNL     1      -0.171  -3.441   0.035  0.00  0.00    +0.143 C 
BRANCH  16  22
ATOM     17  C   UNL     1      -2.308  -2.178   0.388  0.00  0.00    +0.125 A 
ATOM     18  C   UNL     1      -3.693  -2.124   0.450  0.00  0.00    +0.046 A 
ATOM     19  C   UNL     1      -4.438  -3.268   0.239  0.00  0.00    +0.004 A 
ATOM     20  C   UNL     1      -3.804  -4.466  -0.034  0.00  0.00    +0.001 A 
ATOM     21  C   UNL     1      -2.424  -4.523  -0.096  0.00  0.00    +0.009 A 
ATOM     22  C   UNL     1      -1.675  -3.380   0.109  0.00  0.00    +0.011 A 
BRANCH  17  24
ATOM     23  C   UNL     1      -2.292   0.149   0.877  0.00  0.00    +0.277 C 
ATOM     24  O   UNL     1      -1.573  -1.053   0.595  0.00  0.00    -0.495 OA
ENDBRANCH  17  24
ENDBRANCH  16  22
ENDBRANCH  12  16
ENDBRANCH   1  13
BRANCH   9  25
ATOM     25  C   UNL     1       6.451  -5.947   1.228  0.00  0.00    +0.112 C 
BRANCH  25  26
ATOM     26  C   UNL     1       6.844  -5.132  -0.006  0.00  0.00    +0.052 C 
BRANCH  26  27
ATOM     27  C   UNL     1       7.836  -5.912  -0.829  0.00  0.00    -0.040 C 
ATOM     28  C   UNL     1       7.566  -6.705  -1.891  0.00  0.00    -0.001 A 
ATOM     29  C   UNL     1       6.317  -7.065  -2.571  0.00  0.00    +0.010 A 
ATOM     30  C   UNL     1       6.365  -7.901  -3.633  0.00  0.00    +0.001 A 
ATOM     31  C   UNL     1       7.575  -8.433  -4.098  0.00  0.00    +0.002 A 
ATOM     32  C   UNL     1       8.764  -8.149  -3.525  0.00  0.00    +0.026 A 
ATOM     33  C   UNL     1       8.832  -7.279  -2.402  0.00  0.00    +0.043 A 
ATOM     34  N   UNL     1       9.844  -6.858  -1.684  0.00  0.00    -0.380 N 
ATOM     35  C   UNL     1       9.336  -5.963  -0.638  0.00  0.00    +0.144 C 
ATOM     36  H   UNL     1      10.774  -7.095  -1.823  0.00  0.00    +0.160 HD
ENDBRANCH  26  27
ENDBRANCH  25  26
ENDBRANCH   9  25
TORSDOF 7
