REMARK  Name = ZINC35938503
REMARK  6 active torsions:
REMARK  status: ('A' for Active; 'I' for Inactive)
REMARK    1  A    between atoms: C_1  and  C_2
REMARK    2  A    between atoms: C_7  and  C_8
REMARK    3  A    between atoms: N_17  and  C_18
REMARK    4  A    between atoms: C_18  and  C_19
REMARK    5  A    between atoms: C_25  and  C_28
REMARK    6  A    between atoms: C_29  and  C_31
REMARK                            x       y       z     vdW  Elec       q    Type
REMARK                         _______ _______ _______ _____ _____    ______ ____
ROOT
ATOM      1  C   UNL     1       2.595  -2.048   4.199  0.00  0.00    +0.199 C 
ATOM      2  O   UNL     1       1.905  -2.494   5.091  0.00  0.00    -0.278 OA
ATOM      3  N   UNL     1       3.890  -2.409   4.103  0.00  0.00    -0.300 N 
ATOM      4  C   UNL     1       4.740  -1.872   3.032  0.00  0.00    +0.126 C 
ATOM      5  C   UNL     1       5.358  -3.045   2.261  0.00  0.00    +0.127 C 
ATOM      6  N   UNL     1       5.945  -3.984   3.227  0.00  0.00    -0.292 N 
ATOM      7  C   UNL     1       5.095  -4.522   4.299  0.00  0.00    +0.091 C 
ATOM      8  C   UNL     1       4.479  -3.344   5.073  0.00  0.00    +0.130 C 
ATOM      9  C   UNL     1       3.986  -5.383   3.691  0.00  0.00    +0.029 C 
ATOM     10  C   UNL     1       7.240  -4.346   3.131  0.00  0.00    +0.248 C 
ATOM     11  O   UNL     1       7.742  -5.041   3.994  0.00  0.00    -0.270 OA
ENDROOT
BRANCH  10  12
ATOM     12  C   UNL     1       8.047  -3.899   1.981  0.00  0.00    +0.045 A 
ATOM     13  C   UNL     1       7.618  -4.144   0.685  0.00  0.00    +0.014 A 
ATOM     14  C   UNL     1       8.374  -3.726  -0.402  0.00  0.00    +0.001 A 
ATOM     15  C   UNL     1       9.554  -3.065  -0.229  0.00  0.00    +0.008 A 
ATOM     16  C   UNL     1      10.027  -2.795   1.066  0.00  0.00    -0.017 A 
ATOM     17  C   UNL     1       9.268  -3.208   2.188  0.00  0.00    -0.006 A 
ATOM     18  C   UNL     1       9.739  -2.934   3.479  0.00  0.00    +0.009 A 
ATOM     19  C   UNL     1      10.916  -2.268   3.640  0.00  0.00    +0.001 A 
ATOM     20  C   UNL     1      11.662  -1.855   2.539  0.00  0.00    +0.001 A 
ATOM     21  C   UNL     1      11.241  -2.116   1.270  0.00  0.00    +0.008 A 
ENDBRANCH  10  12
BRANCH   1  22
ATOM     22  C   UNL     1       2.005  -1.088   3.198  0.00  0.00    +0.020 C 
BRANCH  22  31
ATOM     23  C   UNL     1      -0.009  -0.018   2.472  0.00  0.00    -0.005 C 
ATOM     24  C   UNL     1      -1.449   0.304   2.863  0.00  0.00    -0.047 A 
ATOM     25  C   UNL     1      -2.423   0.732   1.965  0.00  0.00    +0.010 A 
ATOM     26  C   UNL     1      -3.678   0.993   2.401  0.00  0.00    +0.045 A 
ATOM     27  S   UNL     1      -3.542   0.638   4.148  0.00  0.00    -0.101 S 
ATOM     28  C   UNL     1      -1.835   0.174   4.164  0.00  0.00    -0.010 A 
ATOM     29  C   UNL     1      -0.975  -0.261   5.305  0.00  0.00    +0.024 C 
ATOM     30  C   UNL     1       0.488  -0.205   4.831  0.00  0.00    -0.072 C 
ATOM     31  N   UNL     1       0.590  -0.856   3.517  0.00  0.00    +0.393 N 
ATOM     32  H   UNL     1       0.108  -1.742   3.549  0.00  0.00    -0.080 HD
BRANCH  23  39
ATOM     33  C   UNL     1      -0.049   1.450  -0.016  0.00  0.00    +0.044 C 
ATOM     34  C   UNL     1      -0.015  -0.056  -0.030  0.00  0.00    -0.049 A 
ATOM     35  C   UNL     1       0.004  -0.736  -1.234  0.00  0.00    +0.003 A 
ATOM     36  C   UNL     1       0.035  -2.117  -1.248  0.00  0.00    +0.000 A 
ATOM     37  C   UNL     1       0.048  -2.820  -0.057  0.00  0.00    +0.000 A 
ATOM     38  C   UNL     1       0.031  -2.141   1.147  0.00  0.00    +0.002 A 
ATOM     39  C   UNL     1       0.004  -0.758   1.160  0.00  0.00    -0.054 A 
ENDBRANCH  23  39
ENDBRANCH  22  31
ENDBRANCH   1  22
TORSDOF 4
