REMARK  Name = ZINC14461011
REMARK  6 active torsions:
REMARK  status: ('A' for Active; 'I' for Inactive)
REMARK    1  A    between atoms: C_4  and  C_7
REMARK    2  A    between atoms: C_7  and  C_8
REMARK    3  A    between atoms: C_8  and  N_9
REMARK    4  A    between atoms: C_10  and  C_12
REMARK    5  A    between atoms: C_19  and  C_28
REMARK    6  A    between atoms: C_33  and  O_34
REMARK                            x       y       z     vdW  Elec       q    Type
REMARK                         _______ _______ _______ _____ _____    ______ ____
ROOT
ATOM      1  C   UNL     1       2.433   0.936  -0.016  0.00  0.00    +0.058 A 
ATOM      2  C   UNL     1       2.447  -0.458  -0.024  0.00  0.00    +0.015 A 
ATOM      3  C   UNL     1       3.646  -1.136  -0.036  0.00  0.00    +0.001 A 
ATOM      4  C   UNL     1       4.838  -0.431  -0.034  0.00  0.00    +0.006 A 
ATOM      5  C   UNL     1       4.843   0.947  -0.024  0.00  0.00    -0.019 A 
ATOM      6  C   UNL     1       3.642   1.662  -0.030  0.00  0.00    +0.044 A 
ATOM      7  N   UNL     1       3.559   3.044  -0.054  0.00  0.00    -0.336 N 
ATOM      8  C   UNL     1       4.825   3.789   0.023  0.00  0.00    +0.108 C 
ATOM      9  C   UNL     1       5.840   3.030  -0.806  0.00  0.00    +0.029 C 
ATOM     10  C   UNL     1       6.105   1.719  -0.001  0.00  0.00    +0.049 C 
ATOM     11  C   UNL     1       7.361   1.220  -0.611  0.00  0.00    -0.023 C 
ATOM     12  C   UNL     1       8.055   2.260  -1.060  0.00  0.00    -0.030 C 
ATOM     13  C   UNL     1       7.277   3.554  -0.809  0.00  0.00    +0.033 C 
ATOM     14  H   UNL     1       2.898   3.381   0.630  0.00  0.00    +0.147 HD
ENDROOT
BRANCH   8  15
ATOM     15  C   UNL     1       5.288   3.868   1.455  0.00  0.00    +0.015 A 
ATOM     16  C   UNL     1       4.848   2.938   2.376  0.00  0.00    +0.024 A 
ATOM     17  C   UNL     1       5.272   3.010   3.691  0.00  0.00    +0.018 A 
ATOM     18  C   UNL     1       6.138   4.014   4.086  0.00  0.00    +0.019 A 
ATOM     19  C   UNL     1       6.582   4.946   3.168  0.00  0.00    +0.047 A 
ATOM     20  C   UNL     1       6.162   4.871   1.847  0.00  0.00    +0.122 A 
ATOM     21 BR   UNL     1       4.666   1.736   4.950  0.00  0.00    -0.050 Br
BRANCH  20  22
ATOM     22  O   UNL     1       6.601   5.784   0.941  0.00  0.00    -0.506 OA
ATOM     23  H   UNL     1       6.042   6.570   0.872  0.00  0.00    +0.292 HD
ENDBRANCH  20  22
ENDBRANCH   8  15
BRANCH   1  25
ATOM     24  N   UNL     1      -0.011   0.966   0.007  0.00  0.00    -0.311 N 
ATOM     25  C   UNL     1       1.147   1.655   0.000  0.00  0.00    +0.246 C 
ATOM     26  O   UNL     1       1.130   2.871   0.007  0.00  0.00    -0.270 OA
ATOM     27  H   UNL     1       0.002  -0.004   0.002  0.00  0.00    +0.149 HD
BRANCH  24  28
ATOM     28  C   UNL     1      -1.290   1.681   0.017  0.00  0.00    +0.109 C 
BRANCH  28  29
ATOM     29  C   UNL     1      -2.439   0.671   0.017  0.00  0.00    +0.054 C 
BRANCH  29  33
ATOM     30  C   UNL     1      -6.167   2.756   0.046  0.00  0.00    +0.000 A 
ATOM     31  C   UNL     1      -5.570   2.425  -1.155  0.00  0.00    +0.000 A 
ATOM     32  C   UNL     1      -4.363   1.751  -1.165  0.00  0.00    +0.004 A 
ATOM     33  C   UNL     1      -3.754   1.407   0.028  0.00  0.00    -0.046 A 
ATOM     34  C   UNL     1      -4.354   1.733   1.229  0.00  0.00    +0.004 A 
ATOM     35  C   UNL     1      -5.558   2.412   1.239  0.00  0.00    +0.000 A 
ENDBRANCH  29  33
ENDBRANCH  28  29
ENDBRANCH  24  28
ENDBRANCH   1  25
TORSDOF 6
