REMARK  Name = ZINC15958835
REMARK  5 active torsions:
REMARK  status: ('A' for Active; 'I' for Inactive)
REMARK    1  A    between atoms: C_1  and  C_2
REMARK    2  A    between atoms: C_17  and  C_20
REMARK    3  A    between atoms: C_20  and  C_21
REMARK    4  A    between atoms: N_26  and  C_29
REMARK    5  A    between atoms: C_29  and  C_30
REMARK                            x       y       z     vdW  Elec       q    Type
REMARK                         _______ _______ _______ _____ _____    ______ ____
ROOT
ATOM      1  C   UNL     1       0.025   1.459   0.063  0.00  0.00    +0.044 C 
ATOM      2  C   UNL     1       0.055  -0.048   0.043  0.00  0.00    -0.049 A 
ATOM      3  C   UNL     1      -0.060  -0.727  -1.157  0.00  0.00    +0.011 A 
ATOM      4  C   UNL     1      -0.033  -2.104  -1.175  0.00  0.00    +0.005 A 
ATOM      5  C   UNL     1       0.113  -2.826   0.006  0.00  0.00    +0.057 A 
ATOM      6  C   UNL     1       0.228  -2.134   1.210  0.00  0.00    +0.063 A 
ATOM      7  C   UNL     1       0.203  -0.753   1.222  0.00  0.00    +0.025 A 
ATOM      8 CL   UNL     1       0.407  -3.010   2.698  0.00  0.00    -0.082 Cl
ATOM      9  N   UNL     1       0.117  -4.197  -0.264  0.00  0.00    -0.282 N 
ATOM     10  C   UNL     1      -0.021  -4.456  -1.578  0.00  0.00    +0.243 C 
ATOM     11  O   UNL     1      -0.050  -5.550  -2.101  0.00  0.00    -0.273 OA
ATOM     12  C   UNL     1      -0.133  -3.126  -2.272  0.00  0.00    +0.136 C 
ATOM     13  C   UNL     1       0.971  -2.943  -3.319  0.00  0.00    +0.122 C 
ATOM     14  C   UNL     1       0.289  -2.158  -4.475  0.00  0.00    +0.107 C 
ATOM     15  C   UNL     1      -1.164  -1.942  -4.002  0.00  0.00    +0.076 C 
ATOM     16  N   UNL     1      -1.409  -3.008  -3.003  0.00  0.00    -0.295 NA
ATOM     17  C   UNL     1       1.026  -0.838  -4.481  0.00  0.00    +0.227 C 
ATOM     18  O   UNL     1       0.808   0.082  -5.239  0.00  0.00    -0.275 OA
ATOM     19  N   UNL     1       1.955  -0.842  -3.518  0.00  0.00    -0.237 N 
ATOM     20  C   UNL     1       2.019  -1.986  -2.798  0.00  0.00    +0.229 C 
ATOM     21  O   UNL     1       2.783  -2.212  -1.885  0.00  0.00    -0.275 OA
ATOM     22  H   UNL     1       0.210  -4.882   0.416  0.00  0.00    +0.155 HD
ATOM     23  H   UNL     1      -1.643  -3.874  -3.463  0.00  0.00    +0.124 HD
ENDROOT
BRANCH  15  24
ATOM     24  C   UNL     1      -2.131  -2.062  -5.182  0.00  0.00    +0.115 C 
BRANCH  24  25
ATOM     25  C   UNL     1      -3.527  -1.728  -4.724  0.00  0.00    +0.212 C 
ATOM     26  O   UNL     1      -3.729  -1.424  -3.567  0.00  0.00    -0.276 OA
ATOM     27  N   UNL     1      -4.551  -1.767  -5.599  0.00  0.00    -0.329 N 
ATOM     28  H   UNL     1      -4.390  -2.010  -6.524  0.00  0.00    +0.145 HD
ATOM     29  H   UNL     1      -5.450  -1.552  -5.304  0.00  0.00    +0.145 HD
ENDBRANCH  24  25
ENDBRANCH  15  24
BRANCH  19  30
ATOM     30  C   UNL     1       2.840   0.298  -3.266  0.00  0.00    +0.151 C 
BRANCH  30  31
ATOM     31  C   UNL     1       4.046   0.206  -4.165  0.00  0.00    -0.030 A 
ATOM     32  C   UNL     1       5.131  -0.564  -3.791  0.00  0.00    +0.005 A 
ATOM     33  C   UNL     1       6.237  -0.647  -4.616  0.00  0.00    +0.000 A 
ATOM     34  C   UNL     1       6.257   0.038  -5.816  0.00  0.00    +0.000 A 
ATOM     35  C   UNL     1       5.172   0.808  -6.191  0.00  0.00    +0.000 A 
ATOM     36  C   UNL     1       4.064   0.888  -5.368  0.00  0.00    +0.005 A 
ENDBRANCH  30  31
ENDBRANCH  19  30
TORSDOF 4
