REMARK  Name = ZINC49987034
REMARK  7 active torsions:
REMARK  status: ('A' for Active; 'I' for Inactive)
REMARK    1  A    between atoms: C_1  and  C_2
REMARK    2  A    between atoms: C_4  and  C_21
REMARK    3  A    between atoms: C_6  and  N_8
REMARK    4  A    between atoms: N_8  and  C_9
REMARK    5  A    between atoms: N_8  and  C_10
REMARK    6  A    between atoms: C_10  and  C_11
REMARK    7  A    between atoms: C_14  and  C_18
REMARK                            x       y       z     vdW  Elec       q    Type
REMARK                         _______ _______ _______ _____ _____    ______ ____
ROOT
ATOM      1  C   UNL     1      -1.374  -1.844   4.108  0.00  0.00    +0.005 A 
ATOM      2  C   UNL     1      -1.973  -0.616   3.894  0.00  0.00    +0.009 A 
ATOM      3  C   UNL     1      -3.275  -0.400   4.297  0.00  0.00    +0.012 A 
ATOM      4  C   UNL     1      -3.988  -1.423   4.923  0.00  0.00    +0.015 A 
ATOM      5  C   UNL     1      -3.380  -2.659   5.138  0.00  0.00    +0.050 A 
ATOM      6  C   UNL     1      -2.078  -2.866   4.725  0.00  0.00    +0.129 A 
ATOM      7  F   UNL     1      -1.488  -4.065   4.926  0.00  0.00    -0.205 F 
ENDROOT
BRANCH   4   8
ATOM      8  C   UNL     1      -5.384  -1.196   5.359  0.00  0.00    +0.094 C 
ATOM      9  N   UNL     1      -6.063  -2.173   5.956  0.00  0.00    -0.387 N 
ATOM     10  N   UNL     1      -5.962  -0.014   5.153  0.00  0.00    -0.345 N 
ATOM     11  H   UNL     1      -5.642  -3.034   6.106  0.00  0.00    +0.157 HD
ATOM     12  H   UNL     1      -5.468   0.698   4.718  0.00  0.00    +0.144 HD
ATOM     13  H   UNL     1      -6.877   0.135   5.438  0.00  0.00    +0.144 HD
ATOM     14  H   UNL     1      -6.978  -2.025   6.241  0.00  0.00    +0.157 HD
ENDBRANCH   4   8
BRANCH   1  15
ATOM     15  C   UNL     1       0.048  -2.073   3.665  0.00  0.00    +0.142 C 
BRANCH  15  16
ATOM     16  N   UNL     1       0.051  -2.796   2.390  0.00  0.00    -0.329 N 
ATOM     17  C   UNL     1       0.071  -4.261   2.380  0.00  0.00    +0.129 C 
BRANCH  16  23
ATOM     18  C   UNL     1      -0.018   1.503   0.010  0.00  0.00    +0.044 C 
ATOM     19  C   UNL     1       0.002  -0.004   0.002  0.00  0.00    -0.048 A 
ATOM     20  C   UNL     1       0.006  -0.688  -1.200  0.00  0.00    +0.006 A 
ATOM     21  C   UNL     1       0.024  -2.071  -1.212  0.00  0.00    -0.048 A 
ATOM     22  C   UNL     1       0.039  -2.773  -0.023  0.00  0.00    +0.026 A 
ATOM     23  C   UNL     1       0.036  -2.089   1.186  0.00  0.00    +0.030 A 
ATOM     24  C   UNL     1       0.023  -0.700   1.195  0.00  0.00    +0.026 A 
ATOM     25  C   UNL     1       0.027  -2.812  -2.524  0.00  0.00    +0.044 C 
ENDBRANCH  16  23
ENDBRANCH  15  16
ENDBRANCH   1  15
TORSDOF 4
