REMARK  Name = ZINC63589175
REMARK  10 active torsions:
REMARK  status: ('A' for Active; 'I' for Inactive)
REMARK    1  A    between atoms: C_1  and  C_2
REMARK    2  A    between atoms: C_5  and  C_35
REMARK    3  A    between atoms: C_6  and  N_8
REMARK    4  A    between atoms: N_10  and  C_11
REMARK    5  A    between atoms: C_11  and  C_12
REMARK    6  A    between atoms: C_12  and  C_13
REMARK    7  A    between atoms: N_22  and  C_23
REMARK    8  A    between atoms: C_23  and  C_25
REMARK    9  A    between atoms: C_29  and  N_31
REMARK   10  A    between atoms: C_32  and  C_34
REMARK                            x       y       z     vdW  Elec       q    Type
REMARK                         _______ _______ _______ _____ _____    ______ ____
ROOT
ATOM      1  N   UNL     1      -0.087  -2.818   2.565  0.00  0.00    -0.328 N 
ATOM      2  C   UNL     1      -0.429  -2.133   3.695  0.00  0.00    +0.194 C 
ATOM      3  N   UNL     1      -0.762  -2.812   4.830  0.00  0.00    -0.357 N 
ATOM      4  N   UNL     1      -0.438  -0.808   3.690  0.00  0.00    -0.143 NA
ATOM      5  H   UNL     1      -1.006  -2.325   5.633  0.00  0.00    +0.162 HD
ATOM      6  H   UNL     1      -0.567  -3.625   2.323  0.00  0.00    +0.169 HD
ENDROOT
BRANCH   1  12
ATOM      7  C   UNL     1       3.646   0.298   1.843  0.00  0.00    +0.044 C 
ATOM      8  C   UNL     1       2.780  -0.845   1.380  0.00  0.00    -0.048 A 
ATOM      9  C   UNL     1       3.017  -1.439   0.153  0.00  0.00    +0.004 A 
ATOM     10  C   UNL     1       2.225  -2.488  -0.275  0.00  0.00    +0.005 A 
ATOM     11  C   UNL     1       1.195  -2.948   0.523  0.00  0.00    -0.027 A 
ATOM     12  C   UNL     1       0.955  -2.355   1.755  0.00  0.00    +0.045 A 
ATOM     13  C   UNL     1       1.756  -1.304   2.184  0.00  0.00    +0.029 A 
ATOM     14  C   UNL     1       0.332  -4.091   0.055  0.00  0.00    +0.046 C 
ENDBRANCH   1  12
BRANCH   4  15
ATOM     15  C   UNL     1      -0.551  -0.144   2.532  0.00  0.00    +0.270 C 
ATOM     16  O   UNL     1      -0.746  -0.754   1.496  0.00  0.00    -0.268 OA
BRANCH  15  17
ATOM     17  C   UNL     1      -0.439   1.333   2.511  0.00  0.00    +0.041 A 
ATOM     18  C   UNL     1      -0.104   2.026   3.675  0.00  0.00    +0.013 A 
ATOM     19  C   UNL     1       0.000   3.401   3.654  0.00  0.00    +0.003 A 
ATOM     20  C   UNL     1      -0.226   4.098   2.482  0.00  0.00    +0.023 A 
ATOM     21  C   UNL     1      -0.560   3.417   1.317  0.00  0.00    +0.034 A 
ATOM     22  C   UNL     1      -0.662   2.034   1.328  0.00  0.00    +0.036 A 
BRANCH  21  23
ATOM     23  N   UNL     1      -0.789   4.127   0.133  0.00  0.00    -0.286 N 
ATOM     24  C   UNL     1      -1.393   5.331   0.175  0.00  0.00    +0.214 C 
ATOM     25  O   UNL     1      -1.653   5.842   1.243  0.00  0.00    -0.276 OA
ATOM     26  C   UNL     1      -1.745   6.042  -1.107  0.00  0.00    +0.109 C 
ATOM     27  H   UNL     1      -0.513   3.752  -0.718  0.00  0.00    +0.155 HD
ENDBRANCH  21  23
ENDBRANCH  15  17
ENDBRANCH   4  15
BRANCH   3  28
ATOM     28  C   UNL     1      -0.753  -4.277   4.836  0.00  0.00    +0.120 C 
BRANCH  28  29
ATOM     29  C   UNL     1      -1.161  -4.784   6.221  0.00  0.00    +0.054 C 
BRANCH  29  30
ATOM     30  C   UNL     1      -1.151  -6.291   6.227  0.00  0.00    -0.040 C 
ATOM     31  C   UNL     1      -0.143  -7.096   6.633  0.00  0.00    -0.001 A 
ATOM     32  C   UNL     1       1.195  -6.820   7.169  0.00  0.00    +0.010 A 
ATOM     33  C   UNL     1       1.999  -7.858   7.493  0.00  0.00    +0.001 A 
ATOM     34  C   UNL     1       1.588  -9.188   7.330  0.00  0.00    +0.002 A 
ATOM     35  C   UNL     1       0.373  -9.521   6.843  0.00  0.00    +0.026 A 
ATOM     36  C   UNL     1      -0.554  -8.509   6.471  0.00  0.00    +0.043 A 
ATOM     37  N   UNL     1      -1.769  -8.575   5.983  0.00  0.00    -0.380 N 
ATOM     38  C   UNL     1      -2.269  -7.210   5.786  0.00  0.00    +0.144 C 
ATOM     39  H   UNL     1      -2.257  -9.390   5.788  0.00  0.00    +0.160 HD
ENDBRANCH  29  30
ENDBRANCH  28  29
ENDBRANCH   3  28
TORSDOF 7
