REMARK  Name = ZINC08727095
REMARK  9 active torsions:
REMARK  status: ('A' for Active; 'I' for Inactive)
REMARK    1  A    between atoms: C_1  and  C_2
REMARK    2  A    between atoms: C_2  and  C_4
REMARK    3  A    between atoms: C_2  and  N_14
REMARK    4  A    between atoms: C_15  and  C_17
REMARK    5  A    between atoms: C_17  and  S_18
REMARK    6  A    between atoms: S_18  and  C_19
REMARK    7  A    between atoms: C_22  and  C_25
REMARK    8  A    between atoms: N_23  and  N_24
REMARK    9  A    between atoms: C_25  and  C_26
REMARK                            x       y       z     vdW  Elec       q    Type
REMARK                         _______ _______ _______ _____ _____    ______ ____
ROOT
ATOM      1  C   UNL     1       0.166   1.195   0.040  0.00  0.00    +0.173 C 
ENDROOT
BRANCH   1   3
ATOM      2  N   UNL     1      -0.183   1.282   2.487  0.00  0.00    -0.308 N 
ATOM      3  C   UNL     1      -0.599   1.645   1.258  0.00  0.00    +0.224 C 
ATOM      4  O   UNL     1      -1.589   2.333   1.132  0.00  0.00    -0.275 OA
ATOM      5  H   UNL     1       0.609   0.731   2.588  0.00  0.00    +0.149 HD
BRANCH   2   7
ATOM      6  C   UNL     1      -0.416   3.090   4.117  0.00  0.00    +0.033 C 
ATOM      7  C   UNL     1      -0.927   1.718   3.671  0.00  0.00    +0.101 C 
BRANCH   7   8
ATOM      8  C   UNL     1      -0.730   0.722   4.785  0.00  0.00    -0.020 A 
ATOM      9  C   UNL     1       0.401  -0.034   4.833  0.00  0.00    +0.006 A 
ATOM     10  C   UNL     1       0.604  -0.957   5.858  0.00  0.00    +0.001 A 
ATOM     11  C   UNL     1      -0.328  -1.136   6.834  0.00  0.00    +0.008 A 
ATOM     12  C   UNL     1      -1.511  -0.377   6.814  0.00  0.00    -0.018 A 
ATOM     13  C   UNL     1      -1.715   0.565   5.774  0.00  0.00    -0.013 A 
ATOM     14  C   UNL     1      -2.897   1.324   5.754  0.00  0.00    +0.009 A 
ATOM     15  C   UNL     1      -3.829   1.145   6.731  0.00  0.00    +0.001 A 
ATOM     16  C   UNL     1      -3.628   0.218   7.753  0.00  0.00    +0.001 A 
ATOM     17  C   UNL     1      -2.495  -0.534   7.804  0.00  0.00    +0.008 A 
ENDBRANCH   7   8
ENDBRANCH   2   7
ENDBRANCH   1   3
BRANCH   1  18
ATOM     18  S   UNL     1      -0.636   1.841  -1.449  0.00  0.00    -0.075 S 
BRANCH  18  19
ATOM     19  C   UNL     1       0.435   1.182  -2.683  0.00  0.00    +0.209 A 
ATOM     20  N   UNL     1       1.498   0.438  -2.479  0.00  0.00    -0.121 NA
ATOM     21  N   UNL     1       2.041   0.135  -3.603  0.00  0.00    -0.132 NA
ATOM     22  C   UNL     1       1.365   0.663  -4.584  0.00  0.00    +0.155 A 
ATOM     23  N   UNL     1       0.314   1.344  -4.034  0.00  0.00    -0.228 N 
BRANCH  23  24
ATOM     24  N   UNL     1      -0.654   2.043  -4.697  0.00  0.00    -0.295 N 
ATOM     25  H   UNL     1      -0.380   3.005  -4.827  0.00  0.00    +0.163 HD
ATOM     26  H   UNL     1      -0.874   1.607  -5.580  0.00  0.00    +0.163 HD
ENDBRANCH  23  24
BRANCH  22  27
ATOM     27  C   UNL     1       1.678   0.540  -6.053  0.00  0.00    +0.116 C 
BRANCH  27  28
ATOM     28  C   UNL     1       0.978  -0.669  -6.617  0.00  0.00    -0.005 A 
ATOM     29  C   UNL     1      -0.203  -0.519  -7.319  0.00  0.00    +0.007 A 
ATOM     30  C   UNL     1      -0.845  -1.629  -7.837  0.00  0.00    +0.000 A 
ATOM     31  C   UNL     1      -0.307  -2.889  -7.653  0.00  0.00    +0.003 A 
ATOM     32  C   UNL     1       0.874  -3.041  -6.952  0.00  0.00    +0.038 A 
ATOM     33  C   UNL     1       1.521  -1.930  -6.437  0.00  0.00    +0.127 A 
ATOM     34  F   UNL     1       2.678  -2.077  -5.755  0.00  0.00    -0.205 F 
ENDBRANCH  27  28
ENDBRANCH  22  27
ENDBRANCH  18  19
ENDBRANCH   1  18
TORSDOF 8
