REMARK  Name = ZINC38904889
REMARK  10 active torsions:
REMARK  status: ('A' for Active; 'I' for Inactive)
REMARK    1  A    between atoms: C_1  and  C_2
REMARK    2  A    between atoms: C_2  and  C_3
REMARK    3  A    between atoms: C_3  and  C_5
REMARK    4  A    between atoms: C_3  and  N_13
REMARK    5  A    between atoms: C_8  and  C_12
REMARK    6  A    between atoms: C_10  and  C_11
REMARK    7  A    between atoms: C_14  and  C_16
REMARK    8  A    between atoms: N_21  and  C_23
REMARK    9  A    between atoms: C_23  and  C_24
REMARK   10  A    between atoms: C_26  and  C_29
REMARK                            x       y       z     vdW  Elec       q    Type
REMARK                         _______ _______ _______ _____ _____    ______ ____
ROOT
ATOM      1  C   UNL     1      -3.610   1.320   2.558  0.00  0.00    +0.058 C 
ATOM      2  C   UNL     1      -4.638   0.231   2.876  0.00  0.00    +0.009 C 
ATOM      3  C   UNL     1      -5.440   0.644   4.113  0.00  0.00    -0.018 C 
ATOM      4  C   UNL     1      -6.096   2.003   3.858  0.00  0.00    -0.078 C 
ATOM      5  N   UNL     1      -5.059   3.007   3.588  0.00  0.00    +0.386 N 
ATOM      6  C   UNL     1      -4.332   2.655   2.362  0.00  0.00    -0.065 C 
ATOM      7  H   UNL     1      -4.414   3.040   4.362  0.00  0.00    -0.081 HD
ENDROOT
BRANCH   1   9
ATOM      8  N   UNL     1      -2.155  -0.183   1.238  0.00  0.00    -0.308 N 
ATOM      9  C   UNL     1      -2.867   0.960   1.298  0.00  0.00    +0.215 C 
ATOM     10  O   UNL     1      -2.909   1.698   0.337  0.00  0.00    -0.276 OA
ATOM     11  H   UNL     1      -2.122  -0.774   2.007  0.00  0.00    +0.149 HD
BRANCH   8  12
ATOM     12  C   UNL     1      -1.433  -0.534   0.013  0.00  0.00    +0.103 C 
BRANCH  12  13
ATOM     13  C   UNL     1      -2.358  -1.270  -0.922  0.00  0.00    -0.024 A 
ATOM     14  C   UNL     1      -3.440  -1.967  -0.417  0.00  0.00    +0.006 A 
ATOM     15  C   UNL     1      -4.288  -2.643  -1.274  0.00  0.00    +0.004 A 
ATOM     16  C   UNL     1      -4.054  -2.622  -2.637  0.00  0.00    -0.050 A 
ATOM     17  C   UNL     1      -2.973  -1.924  -3.141  0.00  0.00    +0.007 A 
ATOM     18  C   UNL     1      -2.127  -1.245  -2.284  0.00  0.00    -0.045 A 
ATOM     19  C   UNL     1      -0.951  -0.481  -2.835  0.00  0.00    +0.044 C 
ATOM     20  C   UNL     1      -4.978  -3.359  -3.571  0.00  0.00    +0.044 C 
ENDBRANCH  12  13
BRANCH  12  22
ATOM     21  C   UNL     1       0.758  -0.638   1.208  0.00  0.00    +0.006 C 
ATOM     22  C   UNL     1      -0.242  -1.428   0.361  0.00  0.00    +0.024 C 
ENDBRANCH  12  22
ENDBRANCH   8  12
ENDBRANCH   1   9
BRANCH   5  23
ATOM     23  C   UNL     1      -5.688   4.324   3.421  0.00  0.00    +0.022 C 
BRANCH  23  24
ATOM     24  C   UNL     1      -6.322   4.746   4.721  0.00  0.00    +0.211 A 
ATOM     25  N   UNL     1      -5.741   5.431   5.665  0.00  0.00    -0.193 NA
ATOM     26  C   UNL     1      -6.598   5.631   6.683  0.00  0.00    +0.202 A 
ATOM     27  N   UNL     1      -7.742   5.066   6.384  0.00  0.00    -0.056 NA
ATOM     28  O   UNL     1      -7.580   4.485   5.099  0.00  0.00    -0.340 OA
BRANCH  26  29
ATOM     29  C   UNL     1      -6.297   6.368   7.935  0.00  0.00    +0.023 A 
ATOM     30  C   UNL     1      -5.037   6.930   8.130  0.00  0.00    +0.012 A 
ATOM     31  C   UNL     1      -4.761   7.615   9.296  0.00  0.00    +0.002 A 
ATOM     32  C   UNL     1      -5.734   7.745  10.271  0.00  0.00    +0.015 A 
ATOM     33  C   UNL     1      -6.987   7.189  10.083  0.00  0.00    +0.019 A 
ATOM     34  C   UNL     1      -7.275   6.507   8.917  0.00  0.00    +0.027 A 
ATOM     35 BR   UNL     1      -8.311   7.370  11.422  0.00  0.00    -0.050 Br
ENDBRANCH  26  29
ENDBRANCH  23  24
ENDBRANCH   5  23
TORSDOF 7
