REMARK  Name = ZINC23858716
REMARK  8 active torsions:
REMARK  status: ('A' for Active; 'I' for Inactive)
REMARK    1  A    between atoms: C_1  and  C_2
REMARK    2  A    between atoms: C_5  and  C_11
REMARK    3  A    between atoms: C_7  and  N_8
REMARK    4  A    between atoms: N_13  and  C_14
REMARK    5  A    between atoms: C_14  and  C_15
REMARK    6  A    between atoms: C_15  and  C_17
REMARK    7  A    between atoms: C_15  and  N_28
REMARK    8  A    between atoms: N_26  and  C_27
REMARK                            x       y       z     vdW  Elec       q    Type
REMARK                         _______ _______ _______ _____ _____    ______ ____
ROOT
ATOM      1  C   UNL     1      -6.640   4.106   1.228  0.00  0.00    -0.020 C 
ENDROOT
BRANCH   1   2
ATOM      2  C   UNL     1      -7.067   5.220   0.308  0.00  0.00    -0.059 A 
ATOM      3  C   UNL     1      -6.843   5.119  -1.053  0.00  0.00    +0.004 A 
ATOM      4  C   UNL     1      -7.237   6.137  -1.893  0.00  0.00    +0.023 A 
ATOM      5  C   UNL     1      -7.852   7.280  -1.378  0.00  0.00    +0.033 A 
ATOM      6  C   UNL     1      -8.072   7.377  -0.015  0.00  0.00    -0.026 A 
ATOM      7  C   UNL     1      -7.678   6.346   0.823  0.00  0.00    +0.007 A 
ATOM      8  C   UNL     1      -8.741   8.579   0.603  0.00  0.00    +0.038 C 
ATOM      9  C   UNL     1      -8.747   9.737  -0.398  0.00  0.00    +0.024 C 
ATOM     10  C   UNL     1      -9.232   9.191  -1.748  0.00  0.00    +0.105 C 
ATOM     11  N   UNL     1      -8.214   8.282  -2.278  0.00  0.00    -0.333 N 
ATOM     12  C   UNL     1      -8.638   7.708  -3.562  0.00  0.00    +0.129 C 
ENDBRANCH   1   2
BRANCH   1  13
ATOM     13  N   UNL     1      -7.082   2.818   0.676  0.00  0.00    +0.385 N 
ATOM     14  C   UNL     1      -6.768   1.704   1.607  0.00  0.00    -0.078 C 
ATOM     15  C   UNL     1      -7.729   0.578   1.149  0.00  0.00    -0.020 C 
ATOM     16  C   UNL     1      -9.014   1.351   0.774  0.00  0.00    -0.020 C 
ATOM     17  C   UNL     1      -8.550   2.793   0.497  0.00  0.00    -0.078 C 
ATOM     18  H   UNL     1      -6.557   2.708  -0.285  0.00  0.00    -0.081 HD
ENDBRANCH   1  13
BRANCH   1  19
ATOM     19  C   UNL     1      -5.116   4.108   1.359  0.00  0.00    +0.094 C 
BRANCH  19  22
ATOM     20  C   UNL     1      -3.402   2.829   2.526  0.00  0.00    +0.244 C 
ATOM     21  O   UNL     1      -2.561   3.413   1.871  0.00  0.00    -0.270 OA
ATOM     22  N   UNL     1      -4.708   3.104   2.345  0.00  0.00    -0.313 N 
ATOM     23  H   UNL     1      -5.469   2.576   2.938  0.00  0.00    +0.149 HD
BRANCH  20  28
ATOM     24  C   UNL     1      -1.802  -1.114   6.401  0.00  0.00    +0.046 C 
ATOM     25  C   UNL     1      -2.221  -0.082   5.386  0.00  0.00    -0.020 A 
ATOM     26  C   UNL     1      -3.564   0.199   5.203  0.00  0.00    +0.006 A 
ATOM     27  C   UNL     1      -3.954   1.139   4.272  0.00  0.00    +0.013 A 
ATOM     28  C   UNL     1      -2.991   1.815   3.522  0.00  0.00    +0.039 A 
ATOM     29  C   UNL     1      -1.639   1.528   3.711  0.00  0.00    +0.046 A 
ATOM     30  C   UNL     1      -1.262   0.581   4.642  0.00  0.00    +0.130 A 
BRANCH  30  31
ATOM     31  N   UNL     1       0.172   0.274   4.844  0.00  0.00    +0.057 N 
ATOM     32  O   UNL     1       1.022   0.932   4.272  0.00  0.00    -0.126 OA
ATOM     33  O   UNL     1       0.502  -0.636   5.583  0.00  0.00    -0.126 OA
ENDBRANCH  30  31
ENDBRANCH  20  28
ENDBRANCH  19  22
ENDBRANCH   1  19
TORSDOF 6
