REMARK  Name = ZINC38775941
REMARK  11 active torsions:
REMARK  status: ('A' for Active; 'I' for Inactive)
REMARK    1  A    between atoms: C_1  and  O_2
REMARK    2  A    between atoms: O_2  and  C_3
REMARK    3  A    between atoms: C_6  and  C_9
REMARK    4  A    between atoms: C_9  and  O_10
REMARK    5  A    between atoms: O_10  and  C_11
REMARK    6  A    between atoms: C_14  and  C_18
REMARK    7  A    between atoms: C_15  and  O_17
REMARK    8  A    between atoms: C_20  and  O_24
REMARK    9  A    between atoms: O_24  and  C_25
REMARK   10  A    between atoms: C_30  and  O_31
REMARK   11  A    between atoms: O_31  and  C_32
REMARK                            x       y       z     vdW  Elec       q    Type
REMARK                         _______ _______ _______ _____ _____    ______ ____
ROOT
ATOM      1  C   UNL     1      -6.037  -3.764  -1.956  0.00  0.00    +0.124 A 
ATOM      2  C   UNL     1      -6.786  -3.946  -0.802  0.00  0.00    +0.046 A 
ATOM      3  C   UNL     1      -8.077  -4.431  -0.885  0.00  0.00    +0.013 A 
ATOM      4  C   UNL     1      -8.625  -4.736  -2.116  0.00  0.00    +0.025 A 
ATOM      5  C   UNL     1      -7.880  -4.555  -3.273  0.00  0.00    +0.126 A 
ATOM      6  C   UNL     1      -6.587  -4.063  -3.193  0.00  0.00    +0.091 A 
ENDROOT
BRANCH   4   7
ATOM      7  C   UNL     1     -10.034  -5.266  -2.203  0.00  0.00    +0.199 C 
ATOM      8  C   UNL     1     -10.039  -6.785  -2.186  0.00  0.00    +0.154 C 
ATOM      9  C   UNL     1     -10.736  -7.089  -1.072  0.00  0.00    +0.176 C 
ATOM     10  N   UNL     1     -11.134  -5.976  -0.444  0.00  0.00    -0.182 NA
ATOM     11  N   UNL     1     -10.797  -4.919  -0.991  0.00  0.00    -0.294 N 
ATOM     12  H   UNL     1     -10.997  -4.022  -0.680  0.00  0.00    +0.184 HD
BRANCH   8  13
ATOM     13  O   UNL     1      -9.479  -7.631  -3.076  0.00  0.00    -0.453 OA
BRANCH  13  14
ATOM     14  C   UNL     1      -9.991  -7.663  -4.335  0.00  0.00    +0.170 A 
ATOM     15  C   UNL     1     -11.127  -6.932  -4.642  0.00  0.00    +0.050 A 
ATOM     16  C   UNL     1     -11.646  -6.965  -5.923  0.00  0.00    +0.004 A 
ATOM     17  C   UNL     1     -11.034  -7.729  -6.900  0.00  0.00    +0.004 A 
ATOM     18  C   UNL     1      -9.901  -8.461  -6.601  0.00  0.00    +0.049 A 
ATOM     19  C   UNL     1      -9.372  -8.427  -5.321  0.00  0.00    +0.162 A 
BRANCH  19  20
ATOM     20  O   UNL     1      -8.254  -9.143  -5.026  0.00  0.00    -0.491 OA
ATOM     21  C   UNL     1      -7.672  -9.903  -6.087  0.00  0.00    +0.277 C 
ENDBRANCH  19  20
ENDBRANCH  13  14
ENDBRANCH   8  13
ENDBRANCH   4   7
BRANCH   5  22
ATOM     22  O   UNL     1      -8.421  -4.855  -4.483  0.00  0.00    -0.506 OA
ATOM     23  H   UNL     1      -8.883  -4.116  -4.902  0.00  0.00    +0.292 HD
ENDBRANCH   5  22
BRANCH   1  24
ATOM     24  O   UNL     1      -4.767  -3.287  -1.874  0.00  0.00    -0.487 OA
BRANCH  24  25
ATOM     25  C   UNL     1      -4.264  -3.000  -0.568  0.00  0.00    +0.264 C 
BRANCH  25  29
ATOM     26  C   UNL     1      -0.260  -1.539  -0.869  0.00  0.00    +0.120 A 
ATOM     27  C   UNL     1      -1.327  -0.654  -0.906  0.00  0.00    +0.046 A 
ATOM     28  C   UNL     1      -2.621  -1.129  -0.809  0.00  0.00    +0.010 A 
ATOM     29  C   UNL     1      -2.852  -2.485  -0.674  0.00  0.00    -0.010 A 
ATOM     30  C   UNL     1      -1.790  -3.370  -0.636  0.00  0.00    +0.010 A 
ATOM     31  C   UNL     1      -0.495  -2.900  -0.739  0.00  0.00    +0.046 A 
BRANCH  26  33
ATOM     32  C   UNL     1       1.181   0.338  -1.097  0.00  0.00    +0.277 C 
ATOM     33  O   UNL     1       1.014  -1.075  -0.965  0.00  0.00    -0.495 OA
ENDBRANCH  26  33
ENDBRANCH  25  29
ENDBRANCH  24  25
ENDBRANCH   1  24
TORSDOF 9
