REMARK  Name = ZINC05812846
REMARK  4 active torsions:
REMARK  status: ('A' for Active; 'I' for Inactive)
REMARK    1  A    between atoms: C_1  and  C_2
REMARK    2  A    between atoms: C_5  and  N_9
REMARK    3  A    between atoms: C_10  and  C_15
REMARK    4  A    between atoms: C_17  and  C_21
REMARK                            x       y       z     vdW  Elec       q    Type
REMARK                         _______ _______ _______ _____ _____    ______ ____
ROOT
ATOM      1  N   UNL     1       2.404   1.105  -0.015  0.00  0.00    -0.268 N 
ATOM      2  C   UNL     1       3.349   1.110  -1.020  0.00  0.00    +0.187 A 
ATOM      3  N   UNL     1       4.337   0.339  -0.623  0.00  0.00    -0.126 NA
ATOM      4  N   UNL     1       4.080  -0.140   0.542  0.00  0.00    -0.121 NA
ATOM      5  C   UNL     1       2.915   0.298   0.965  0.00  0.00    +0.207 A 
ATOM      6  S   UNL     1       2.152  -0.085   2.506  0.00  0.00    -0.009 SA
ENDROOT
BRANCH   1  11
ATOM      7  C   UNL     1      -2.554   3.866   0.046  0.00  0.00    +0.045 C 
ATOM      8  C   UNL     1      -1.238   3.133   0.030  0.00  0.00    -0.036 A 
ATOM      9  C   UNL     1      -1.218   1.750   0.017  0.00  0.00    +0.006 A 
ATOM     10  C   UNL     1      -0.013   1.076   0.008  0.00  0.00    +0.026 A 
ATOM     11  C   UNL     1       1.180   1.787   0.000  0.00  0.00    +0.052 A 
ATOM     12  C   UNL     1       1.158   3.175   0.008  0.00  0.00    +0.041 A 
ATOM     13  C   UNL     1      -0.051   3.845   0.023  0.00  0.00    +0.023 A 
ATOM     14 BR   UNL     1      -0.083   5.736   0.034  0.00  0.00    -0.050 Br
ENDBRANCH   1  11
BRANCH   2  15
ATOM     15  C   UNL     1       3.267   1.840  -2.296  0.00  0.00    +0.103 A 
ATOM     16  C   UNL     1       4.054   1.635  -3.411  0.00  0.00    +0.056 A 
ATOM     17  C   UNL     1       3.641   2.535  -4.392  0.00  0.00    +0.067 A 
ATOM     18  N   UNL     1       2.663   3.260  -3.912  0.00  0.00    -0.178 NA
ATOM     19  N   UNL     1       2.401   2.852  -2.598  0.00  0.00    -0.274 N 
ATOM     20  H   UNL     1       1.672   3.193  -1.849  0.00  0.00    +0.189 HD
BRANCH  17  21
ATOM     21  C   UNL     1       4.228   2.658  -5.774  0.00  0.00    +0.040 C 
ATOM     22  C   UNL     1       5.590   2.006  -6.024  0.00  0.00    +0.010 C 
ATOM     23  C   UNL     1       5.475   3.530  -5.937  0.00  0.00    +0.010 C 
ENDBRANCH  17  21
ENDBRANCH   2  15
TORSDOF 3
