REMARK  Name = ZINC49415334
REMARK  4 active torsions:
REMARK  status: ('A' for Active; 'I' for Inactive)
REMARK    1  A    between atoms: C_8  and  S_10
REMARK    2  A    between atoms: S_10  and  C_11
REMARK    3  A    between atoms: C_11  and  C_12
REMARK    4  A    between atoms: N_14  and  C_15
REMARK                            x       y       z     vdW  Elec       q    Type
REMARK                         _______ _______ _______ _____ _____    ______ ____
ROOT
ATOM      1  C   UNL     1       5.532  -5.635  -0.667  0.00  0.00    +0.228 C 
ATOM      2  O   UNL     1       4.885  -6.511  -1.200  0.00  0.00    -0.275 OA
ATOM      3  N   UNL     1       6.717  -5.925  -0.094  0.00  0.00    -0.283 N 
ATOM      4  H   UNL     1       7.271  -5.213   0.262  0.00  0.00    +0.155 HD
ENDROOT
BRANCH   3   5
ATOM      5  C   UNL     1       7.146  -7.252  -0.012  0.00  0.00    +0.060 A 
ATOM      6  C   UNL     1       6.229  -8.281  -0.022  0.00  0.00    +0.025 A 
ATOM      7  C   UNL     1       6.644  -9.607   0.058  0.00  0.00    +0.003 A 
ATOM      8  C   UNL     1       7.966  -9.923   0.148  0.00  0.00    +0.010 A 
ATOM      9  C   UNL     1       8.931  -8.903   0.161  0.00  0.00    +0.002 A 
ATOM     10  C   UNL     1       8.524  -7.550   0.074  0.00  0.00    +0.094 A 
ATOM     11  N   UNL     1       9.438  -6.576   0.081  0.00  0.00    -0.227 NA
ATOM     12  C   UNL     1      10.724  -6.846   0.161  0.00  0.00    +0.138 A 
ATOM     13  C   UNL     1      11.192  -8.163   0.244  0.00  0.00    +0.047 A 
ATOM     14  C   UNL     1      10.306  -9.199   0.252  0.00  0.00    +0.013 A 
ATOM     15  N   UNL     1      11.642  -5.795   0.164  0.00  0.00    -0.308 N 
ATOM     16  C   UNL     1      13.001  -5.923   0.236  0.00  0.00    +0.092 A 
ATOM     17  C   UNL     1      13.543  -4.689   0.213  0.00  0.00    +0.019 A 
ATOM     18  C   UNL     1      12.483  -3.763   0.123  0.00  0.00    +0.019 A 
ATOM     19  C   UNL     1      11.333  -4.465   0.089  0.00  0.00    +0.092 A 
ENDBRANCH   3   5
BRANCH   1  20
ATOM     20  C   UNL     1       5.011  -4.221  -0.644  0.00  0.00    +0.172 C 
BRANCH  20  21
ATOM     21  S   UNL     1       3.407  -4.154  -1.489  0.00  0.00    -0.089 S 
BRANCH  21  29
ATOM     22  C   UNL     1       0.426   1.544  -1.868  0.00  0.00    +0.002 A 
ATOM     23  C   UNL     1       1.430   2.217  -1.186  0.00  0.00    +0.001 A 
ATOM     24  C   UNL     1       2.536   1.515  -0.743  0.00  0.00    +0.017 A 
ATOM     25  C   UNL     1       2.624   0.167  -0.985  0.00  0.00    +0.040 A 
ATOM     26  C   UNL     1       1.622  -0.551  -1.676  0.00  0.00    +0.079 A 
ATOM     27  C   UNL     1       0.506   0.198  -2.114  0.00  0.00    +0.029 A 
ATOM     28  N   UNL     1       1.853  -1.873  -1.835  0.00  0.00    -0.233 NA
ATOM     29  C   UNL     1       2.937  -2.459  -1.379  0.00  0.00    +0.136 A 
ATOM     30  S   UNL     1       3.814  -1.100  -0.618  0.00  0.00    -0.061 S 
ENDBRANCH  21  29
ENDBRANCH  20  21
ENDBRANCH   1  20
TORSDOF 4
