REMARK  Name = ZINC22537578
REMARK  15 active torsions:
REMARK  status: ('A' for Active; 'I' for Inactive)
REMARK    1  A    between atoms: C_1  and  C_2
REMARK    2  A    between atoms: C_2  and  O_3
REMARK    3  A    between atoms: O_3  and  C_4
REMARK    4  A    between atoms: C_7  and  N_10
REMARK    5  A    between atoms: N_10  and  S_11
REMARK    6  A    between atoms: S_11  and  C_14
REMARK    7  A    between atoms: C_17  and  O_21
REMARK    8  A    between atoms: O_21  and  C_22
REMARK    9  A    between atoms: C_22  and  C_23
REMARK   10  A    between atoms: N_25  and  C_26
REMARK   11  A    between atoms: C_26  and  C_28
REMARK   12  A    between atoms: C_26  and  C_29
REMARK   13  A    between atoms: C_31  and  C_37
REMARK   14  A    between atoms: C_32  and  C_36
REMARK   15  A    between atoms: C_34  and  C_35
REMARK                            x       y       z     vdW  Elec       q    Type
REMARK                         _______ _______ _______ _____ _____    ______ ____
ROOT
ATOM      1  C   UNL     1       9.848   2.177   4.384  0.00  0.00    +0.110 A 
ATOM      2  C   UNL     1       8.855   1.385   3.837  0.00  0.00    +0.032 A 
ATOM      3  C   UNL     1       7.716   1.965   3.315  0.00  0.00    +0.049 A 
ATOM      4  C   UNL     1       7.567   3.344   3.338  0.00  0.00    +0.140 A 
ATOM      5  C   UNL     1       8.567   4.138   3.883  0.00  0.00    +0.084 A 
ATOM      6  C   UNL     1       9.703   3.552   4.409  0.00  0.00    +0.052 A 
ATOM      7 CL   UNL     1       8.389   5.864   3.908  0.00  0.00    -0.080 Cl
ENDROOT
BRANCH   1   8
ATOM      8  S   UNL     1      11.300   1.433   5.050  0.00  0.00    +0.072 S 
ATOM      9  O   UNL     1      11.777   2.309   6.062  0.00  0.00    -0.150 OA
ATOM     10  O   UNL     1      10.978   0.074   5.309  0.00  0.00    -0.150 OA
BRANCH   8  11
ATOM     11  N   UNL     1      12.442   1.429   3.850  0.00  0.00    -0.216 N 
ATOM     12  H   UNL     1      12.809   0.475   3.444  0.00  0.00    +0.174 HD
BRANCH  11  16
ATOM     13  C   UNL     1      13.925   5.033   2.372  0.00  0.00    +0.121 A 
ATOM     14  C   UNL     1      14.333   4.574   3.615  0.00  0.00    +0.047 A 
ATOM     15  C   UNL     1      13.842   3.380   4.106  0.00  0.00    +0.028 A 
ATOM     16  C   UNL     1      12.940   2.639   3.354  0.00  0.00    +0.048 A 
ATOM     17  C   UNL     1      12.536   3.097   2.107  0.00  0.00    +0.028 A 
ATOM     18  C   UNL     1      13.024   4.294   1.620  0.00  0.00    +0.047 A 
BRANCH  13  19
ATOM     19  O   UNL     1      14.410   6.208   1.889  0.00  0.00    -0.492 OA
BRANCH  19  21
ATOM     20  C   UNL     1      14.597   7.955   0.230  0.00  0.00    +0.048 C 
ATOM     21  C   UNL     1      13.947   6.621   0.602  0.00  0.00    +0.225 C 
ENDBRANCH  19  21
ENDBRANCH  13  19
ENDBRANCH  11  16
ENDBRANCH   8  11
ENDBRANCH   1   8
BRANCH   4  22
ATOM     22  O   UNL     1       6.447   3.917   2.825  0.00  0.00    -0.481 OA
BRANCH  22  23
ATOM     23  C   UNL     1       5.462   3.038   2.276  0.00  0.00    +0.324 C 
BRANCH  23  24
ATOM     24  C   UNL     1       4.300   3.847   1.758  0.00  0.00    +0.251 C 
ATOM     25  O   UNL     1       4.314   5.056   1.851  0.00  0.00    -0.272 OA
ATOM     26  N   UNL     1       3.246   3.226   1.193  0.00  0.00    -0.306 N 
ATOM     27  H   UNL     1       3.234   2.129   1.109  0.00  0.00    +0.149 HD
BRANCH  26  28
ATOM     28  C   UNL     1       2.116   4.012   0.690  0.00  0.00    +0.100 C 
ATOM     29  C   UNL     1       2.391   4.432  -0.755  0.00  0.00    +0.033 C 
BRANCH  28  30
ATOM     30  C   UNL     1       0.862   3.178   0.741  0.00  0.00    -0.024 A 
ATOM     31  C   UNL     1       0.945   1.799   0.674  0.00  0.00    +0.009 A 
ATOM     32  C   UNL     1      -0.205   1.035   0.720  0.00  0.00    -0.047 A 
ATOM     33  C   UNL     1      -1.439   1.648   0.827  0.00  0.00    -0.047 A 
ATOM     34  C   UNL     1      -1.522   3.026   0.899  0.00  0.00    +0.007 A 
ATOM     35  C   UNL     1      -0.371   3.791   0.853  0.00  0.00    -0.045 A 
ATOM     36  C   UNL     1      -0.462   5.294   0.925  0.00  0.00    +0.044 C 
ATOM     37  C   UNL     1      -2.694   0.815   0.871  0.00  0.00    +0.044 C 
ATOM     38  C   UNL     1      -0.114  -0.468   0.648  0.00  0.00    +0.044 C 
ENDBRANCH  28  30
ENDBRANCH  26  28
ENDBRANCH  23  24
ENDBRANCH  22  23
ENDBRANCH   4  22
TORSDOF 10
