REMARK  Name = ZINC64023807
REMARK  7 active torsions:
REMARK  status: ('A' for Active; 'I' for Inactive)
REMARK    1  A    between atoms: C_1  and  C_2
REMARK    2  A    between atoms: C_2  and  C_3
REMARK    3  A    between atoms: C_2  and  C_4
REMARK    4  A    between atoms: C_4  and  C_5
REMARK    5  A    between atoms: C_20  and  C_22
REMARK    6  A    between atoms: C_25  and  S_28
REMARK    7  A    between atoms: S_28  and  C_29
REMARK                            x       y       z     vdW  Elec       q    Type
REMARK                         _______ _______ _______ _____ _____    ______ ____
ROOT
ATOM      1  C   UNL     1      -1.654  -1.935  -0.009  0.00  0.00    +0.216 C 
ATOM      2  O   UNL     1      -0.544  -2.394  -0.178  0.00  0.00    -0.276 OA
ATOM      3  N   UNL     1      -2.729  -2.747  -0.032  0.00  0.00    -0.292 N 
ATOM      4  C   UNL     1      -4.068  -2.183   0.168  0.00  0.00    +0.113 C 
ATOM      5  C   UNL     1      -4.740  -2.870   1.371  0.00  0.00    +0.052 C 
ATOM      6  C   UNL     1      -4.500  -4.351   1.213  0.00  0.00    -0.035 C 
ATOM      7  C   UNL     1      -5.335  -5.383   1.233  0.00  0.00    -0.001 A 
ATOM      8  C   UNL     1      -6.775  -5.472   1.522  0.00  0.00    +0.010 A 
ATOM      9  C   UNL     1      -7.329  -6.710   1.431  0.00  0.00    +0.001 A 
ATOM     10  C   UNL     1      -6.603  -7.854   1.084  0.00  0.00    +0.002 A 
ATOM     11  C   UNL     1      -5.274  -7.865   0.809  0.00  0.00    +0.026 A 
ATOM     12  C   UNL     1      -4.579  -6.623   0.881  0.00  0.00    +0.043 A 
ATOM     13  N   UNL     1      -3.321  -6.352   0.694  0.00  0.00    -0.375 N 
ATOM     14  C   UNL     1      -3.112  -4.928   0.961  0.00  0.00    +0.131 C 
ATOM     15  C   UNL     1      -2.548  -4.189  -0.263  0.00  0.00    +0.133 C 
ATOM     16  H   UNL     1      -2.638  -6.985   0.422  0.00  0.00    +0.160 HD
ENDROOT
BRANCH  15  17
ATOM     17  C   UNL     1      -3.296  -4.605  -1.503  0.00  0.00    -0.025 A 
ATOM     18  C   UNL     1      -2.620  -5.220  -2.542  0.00  0.00    +0.006 A 
ATOM     19  C   UNL     1      -3.301  -5.602  -3.680  0.00  0.00    +0.015 A 
ATOM     20  C   UNL     1      -4.668  -5.369  -3.782  0.00  0.00    +0.008 A 
ATOM     21  C   UNL     1      -5.343  -4.752  -2.736  0.00  0.00    +0.015 A 
ATOM     22  C   UNL     1      -4.656  -4.377  -1.598  0.00  0.00    +0.006 A 
BRANCH  20  23
ATOM     23  S   UNL     1      -5.541  -5.855  -5.233  0.00  0.00    -0.129 S 
ATOM     24  C   UNL     1      -7.253  -5.354  -4.903  0.00  0.00    +0.090 C 
ENDBRANCH  20  23
ENDBRANCH  15  17
BRANCH   1  25
ATOM     25  C   UNL     1      -1.830  -0.457   0.226  0.00  0.00    +0.099 C 
BRANCH  25  27
ATOM     26  C   UNL     1      -0.651   1.744   0.318  0.00  0.00    +0.008 C 
ATOM     27  C   UNL     1      -0.463   0.230   0.204  0.00  0.00    -0.008 C 
ATOM     28  C   UNL     1       0.378  -0.270   1.380  0.00  0.00    +0.008 C 
ENDBRANCH  25  27
ENDBRANCH   1  25
TORSDOF 4
