REMARK  Name = ZINC12887964
REMARK  11 active torsions:
REMARK  status: ('A' for Active; 'I' for Inactive)
REMARK    1  A    between atoms: C_1  and  C_2
REMARK    2  A    between atoms: C_2  and  C_3
REMARK    3  A    between atoms: C_3  and  C_4
REMARK    4  A    between atoms: C_4  and  N_5
REMARK    5  A    between atoms: C_6  and  C_8
REMARK    6  A    between atoms: C_8  and  C_10
REMARK    7  A    between atoms: C_8  and  N_15
REMARK    8  A    between atoms: C_10  and  C_12
REMARK    9  A    between atoms: C_10  and  C_13
REMARK   10  A    between atoms: C_13  and  C_14
REMARK   11  A    between atoms: C_16  and  C_18
REMARK                            x       y       z     vdW  Elec       q    Type
REMARK                         _______ _______ _______ _____ _____    ______ ____
ROOT
ATOM      1  C   UNL     1      -2.465  -0.126   0.366  0.00  0.00    +0.167 C 
ATOM      2  C   UNL     1      -1.202  -0.911  -0.019  0.00  0.00    +0.069 C 
ATOM      3  C   UNL     1       0.002  -0.004   0.002  0.00  0.00    -0.015 A 
ATOM      4  C   UNL     1       1.399  -0.399   0.000  0.00  0.00    +0.003 A 
ATOM      5  C   UNL     1       2.026  -1.649   0.001  0.00  0.00    +0.010 A 
ATOM      6  C   UNL     1       3.400  -1.653  -0.005  0.00  0.00    +0.001 A 
ATOM      7  C   UNL     1       4.139  -0.482  -0.010  0.00  0.00    +0.002 A 
ATOM      8  C   UNL     1       3.544   0.768  -0.009  0.00  0.00    +0.026 A 
ATOM      9  C   UNL     1       2.151   0.803  -0.003  0.00  0.00    +0.047 A 
ATOM     10  N   UNL     1       1.262   1.838  -0.000  0.00  0.00    -0.356 N 
ATOM     11  H   UNL     1       1.499   2.778  -0.005  0.00  0.00    +0.166 HD
ATOM     12  C   UNL     1      -0.016   1.348   0.009  0.00  0.00    +0.046 A 
ATOM     13  C   UNL     1      -1.294   2.152   0.043  0.00  0.00    +0.155 C 
ATOM     14  N   UNL     1      -2.381   1.194  -0.266  0.00  0.00    -0.273 N 
ATOM     15  C   UNL     1      -3.174   1.737  -1.200  0.00  0.00    +0.248 C 
ATOM     16  O   UNL     1      -4.263   1.309  -1.529  0.00  0.00    -0.270 OA
ATOM     17  C   UNL     1      -2.528   2.927  -1.764  0.00  0.00    +0.042 A 
ATOM     18  C   UNL     1      -1.350   3.183  -1.032  0.00  0.00    -0.009 A 
ATOM     19  C   UNL     1      -0.510   4.222  -1.361  0.00  0.00    +0.006 A 
ATOM     20  C   UNL     1      -0.880   5.018  -2.441  0.00  0.00    +0.000 A 
ATOM     21  C   UNL     1      -2.037   4.783  -3.156  0.00  0.00    +0.001 A 
ATOM     22  C   UNL     1      -2.892   3.737  -2.842  0.00  0.00    +0.013 A 
ENDROOT
BRANCH   1  24
ATOM     23  N   UNL     1      -2.582  -1.066   2.651  0.00  0.00    -0.302 N 
ATOM     24  C   UNL     1      -2.533   0.027   1.864  0.00  0.00    +0.235 C 
ATOM     25  O   UNL     1      -2.545   1.133   2.360  0.00  0.00    -0.274 OA
ATOM     26  H   UNL     1      -2.572  -1.951   2.254  0.00  0.00    +0.150 HD
BRANCH  23  27
ATOM     27  C   UNL     1      -2.648  -0.918   4.107  0.00  0.00    +0.162 C 
BRANCH  27  29
ATOM     28  N   UNL     1      -2.051  -2.243   6.108  0.00  0.00    -0.314 N 
ATOM     29  C   UNL     1      -2.091  -2.154   4.764  0.00  0.00    +0.234 C 
ATOM     30  O   UNL     1      -1.678  -3.069   4.083  0.00  0.00    -0.274 OA
ATOM     31  H   UNL     1      -2.381  -1.511   6.653  0.00  0.00    +0.149 HD
BRANCH  28  32
ATOM     32  C   UNL     1      -1.509  -3.444   6.747  0.00  0.00    +0.104 C 
BRANCH  32  33
ATOM     33  C   UNL     1      -1.579  -3.289   8.268  0.00  0.00    +0.018 C 
BRANCH  33  35
ATOM     34  C   UNL     1      -1.082  -4.389  10.456  0.00  0.00    +0.004 C 
ATOM     35  C   UNL     1      -1.013  -4.544   8.935  0.00  0.00    -0.002 C 
ENDBRANCH  33  35
ENDBRANCH  32  33
ENDBRANCH  28  32
ENDBRANCH  27  29
BRANCH  27  36
ATOM     36  C   UNL     1      -4.105  -0.726   4.534  0.00  0.00    +0.015 C 
ATOM     37  C   UNL     1      -4.671   0.529   3.866  0.00  0.00    +0.010 C 
BRANCH  36  38
ATOM     38  C   UNL     1      -4.926  -1.945   4.107  0.00  0.00    +0.002 C 
ATOM     39  C   UNL     1      -6.353  -1.811   4.642  0.00  0.00    +0.004 C 
ENDBRANCH  36  38
ENDBRANCH  27  36
ENDBRANCH  23  27
ENDBRANCH   1  24
TORSDOF 8
