REMARK  Name = ZINC16886702
REMARK  11 active torsions:
REMARK  status: ('A' for Active; 'I' for Inactive)
REMARK    1  A    between atoms: C_1  and  C_2
REMARK    2  A    between atoms: C_2  and  C_3
REMARK    3  A    between atoms: C_2  and  O_4
REMARK    4  A    between atoms: O_4  and  C_5
REMARK    5  A    between atoms: C_8  and  C_11
REMARK    6  A    between atoms: C_12  and  C_13
REMARK    7  A    between atoms: C_12  and  N_28
REMARK    8  A    between atoms: N_15  and  C_16
REMARK    9  A    between atoms: C_16  and  C_17
REMARK   10  A    between atoms: C_17  and  C_18
REMARK   11  A    between atoms: C_29  and  C_31
REMARK                            x       y       z     vdW  Elec       q    Type
REMARK                         _______ _______ _______ _____ _____    ______ ____
ROOT
ATOM      1  C   UNL     1      -3.739  -5.544  -2.847  0.00  0.00    +0.036 C 
ATOM      2  C   UNL     1      -3.703  -4.569  -1.908  0.00  0.00    +0.097 C 
ENDROOT
BRANCH   1   6
ATOM      3  C   UNL     1      -6.690  -8.584  -2.637  0.00  0.00    +0.121 A 
ATOM      4  C   UNL     1      -6.091  -8.283  -3.855  0.00  0.00    +0.046 A 
ATOM      5  C   UNL     1      -5.133  -7.297  -3.929  0.00  0.00    +0.011 A 
ATOM      6  C   UNL     1      -4.762  -6.597  -2.775  0.00  0.00    -0.023 A 
ATOM      7  C   UNL     1      -5.364  -6.908  -1.550  0.00  0.00    +0.011 A 
ATOM      8  C   UNL     1      -6.325  -7.892  -1.488  0.00  0.00    +0.046 A 
BRANCH   3   9
ATOM      9  O   UNL     1      -7.634  -9.557  -2.570  0.00  0.00    -0.489 OA
BRANCH   9  11
ATOM     10  C   UNL     1      -8.444 -11.681  -3.389  0.00  0.00    +0.051 C 
ATOM     11  C   UNL     1      -7.876 -10.310  -3.760  0.00  0.00    +0.167 C 
ATOM     12  C   UNL     1      -8.879  -9.563  -4.641  0.00  0.00    +0.051 C 
ENDBRANCH   9  11
ENDBRANCH   3   9
ENDBRANCH   1   6
BRANCH   2  13
ATOM     13  C   UNL     1      -2.596  -3.604  -1.893  0.00  0.00    +0.258 C 
ATOM     14  O   UNL     1      -1.710  -3.682  -2.724  0.00  0.00    -0.269 OA
ATOM     15  N   UNL     1      -2.561  -2.634  -0.959  0.00  0.00    -0.310 N 
ATOM     16  H   UNL     1      -3.299  -2.531  -0.338  0.00  0.00    +0.149 HD
BRANCH  15  17
ATOM     17  C   UNL     1      -1.407  -1.734  -0.880  0.00  0.00    +0.112 C 
BRANCH  17  18
ATOM     18  C   UNL     1      -1.617  -0.733   0.257  0.00  0.00    +0.093 C 
BRANCH  18  19
ATOM     19  C   UNL     1      -0.431   0.193   0.338  0.00  0.00    +0.110 A 
ATOM     20  N   UNL     1      -0.497   1.551   0.290  0.00  0.00    -0.342 N 
ATOM     21  H   UNL     1      -1.327   2.101   0.198  0.00  0.00    +0.167 HD
ATOM     22  C   UNL     1       0.794   2.028   0.394  0.00  0.00    +0.066 A 
ATOM     23  C   UNL     1       1.358   3.297   0.406  0.00  0.00    +0.028 A 
ATOM     24  C   UNL     1       2.724   3.436   0.526  0.00  0.00    +0.002 A 
ATOM     25  C   UNL     1       3.538   2.318   0.635  0.00  0.00    +0.002 A 
ATOM     26  C   UNL     1       3.001   1.062   0.625  0.00  0.00    +0.030 A 
ATOM     27  C   UNL     1       1.619   0.896   0.503  0.00  0.00    +0.089 A 
ATOM     28  N   UNL     1       0.806  -0.191   0.462  0.00  0.00    -0.232 NA
ENDBRANCH  18  19
ENDBRANCH  17  18
ENDBRANCH  15  17
ENDBRANCH   2  13
BRANCH   2  29
ATOM     29  N   UNL     1      -4.721  -4.481  -0.952  0.00  0.00    -0.277 N 
ATOM     30  C   UNL     1      -4.420  -4.548   0.360  0.00  0.00    +0.250 C 
ATOM     31  O   UNL     1      -3.258  -4.588   0.716  0.00  0.00    -0.270 OA
ATOM     32  H   UNL     1      -5.643  -4.373  -1.233  0.00  0.00    +0.155 HD
BRANCH  30  33
ATOM     33  C   UNL     1      -5.502  -4.571   1.366  0.00  0.00    +0.055 A 
ATOM     34  C   UNL     1      -6.837  -4.519   0.961  0.00  0.00    +0.014 A 
ATOM     35  C   UNL     1      -7.842  -4.546   1.905  0.00  0.00    +0.001 A 
ATOM     36  C   UNL     1      -7.530  -4.614   3.252  0.00  0.00    +0.001 A 
ATOM     37  C   UNL     1      -6.210  -4.660   3.662  0.00  0.00    +0.021 A 
ATOM     38  C   UNL     1      -5.193  -4.639   2.727  0.00  0.00    +0.053 A 
ATOM     39 CL   UNL     1      -3.537  -4.697   3.243  0.00  0.00    -0.083 Cl
ENDBRANCH  30  33
ENDBRANCH   2  29
TORSDOF 9
