REMARK  Name = ZINC35778590
REMARK  18 active torsions:
REMARK  status: ('A' for Active; 'I' for Inactive)
REMARK    1  A    between atoms: C_1  and  C_2
REMARK    2  A    between atoms: C_2  and  C_3
REMARK    3  A    between atoms: C_2  and  C_4
REMARK    4  A    between atoms: C_4  and  O_5
REMARK    5  A    between atoms: O_5  and  C_6
REMARK    6  A    between atoms: C_6  and  C_7
REMARK    7  A    between atoms: C_7  and  C_9
REMARK    8  A    between atoms: C_7  and  O_36
REMARK    9  A    between atoms: C_9  and  N_10
REMARK   10  A    between atoms: N_10  and  C_11
REMARK   11  A    between atoms: N_10  and  C_15
REMARK   12  A    between atoms: C_11  and  C_12
REMARK   13  A    between atoms: C_12  and  O_13
REMARK   14  A    between atoms: O_13  and  C_14
REMARK   15  A    between atoms: C_15  and  C_16
REMARK   16  A    between atoms: C_26  and  C_28
REMARK   17  A    between atoms: C_28  and  O_29
REMARK   18  A    between atoms: O_29  and  C_30
REMARK                            x       y       z     vdW  Elec       q    Type
REMARK                         _______ _______ _______ _____ _____    ______ ____
ROOT
ATOM      1  C   UNL     1      -4.365  -8.584   0.223  0.00  0.00    +0.200 C 
ATOM      2  O   UNL     1      -3.200  -8.883   0.070  0.00  0.00    -0.278 OA
ATOM      3  N   UNL     1      -5.287  -9.547   0.424  0.00  0.00    -0.292 N 
ATOM      4  C   UNL     1      -6.704  -9.196   0.605  0.00  0.00    +0.113 C 
ATOM      5  C   UNL     1      -7.498  -9.775  -0.576  0.00  0.00    +0.061 C 
ATOM      6  C   UNL     1      -7.014 -11.163  -0.844  0.00  0.00    -0.004 A 
ATOM      7  C   UNL     1      -5.862 -11.745  -0.413  0.00  0.00    -0.014 A 
ATOM      8  C   UNL     1      -5.638 -13.062  -0.813  0.00  0.00    +0.013 A 
ATOM      9  C   UNL     1      -6.548 -13.698  -1.585  0.00  0.00    +0.046 A 
ATOM     10  S   UNL     1      -7.799 -12.439  -1.794  0.00  0.00    -0.101 S 
ATOM     11  C   UNL     1      -4.891 -10.961   0.461  0.00  0.00    +0.144 C 
ENDROOT
BRANCH   1  12
ATOM     12  C   UNL     1      -4.782  -7.137   0.187  0.00  0.00    +0.019 C 
BRANCH  12  13
ATOM     13  N   UNL     1      -3.603  -6.293  -0.045  0.00  0.00    +0.389 N 
ATOM     14  H   UNL     1      -2.904  -6.493   0.655  0.00  0.00    -0.081 HD
BRANCH  13  15
ATOM     15  C   UNL     1      -3.989  -4.878   0.040  0.00  0.00    -0.044 C 
BRANCH  15  16
ATOM     16  C   UNL     1      -4.424  -4.552   1.470  0.00  0.00    +0.124 C 
BRANCH  16  17
ATOM     17  O   UNL     1      -3.338  -4.800   2.366  0.00  0.00    -0.391 OA
ATOM     18  H   UNL     1      -2.576  -4.222   2.229  0.00  0.00    +0.210 HD
ENDBRANCH  16  17
BRANCH  16  19
ATOM     19  C   UNL     1      -4.831  -3.080   1.557  0.00  0.00    +0.189 C 
BRANCH  19  20
ATOM     20  O   UNL     1      -5.346  -2.804   2.861  0.00  0.00    -0.377 OA
BRANCH  20  21
ATOM     21  C   UNL     1      -5.758  -1.449   3.048  0.00  0.00    +0.163 C 
BRANCH  21  23
ATOM     22  C   UNL     1      -6.614   0.206   4.713  0.00  0.00    +0.009 C 
ATOM     23  C   UNL     1      -6.290  -1.270   4.472  0.00  0.00    +0.009 C 
ATOM     24  C   UNL     1      -7.558  -2.106   4.651  0.00  0.00    +0.009 C 
ENDBRANCH  21  23
ENDBRANCH  20  21
ENDBRANCH  19  20
ENDBRANCH  16  19
ENDBRANCH  15  16
ENDBRANCH  13  15
BRANCH  13  25
ATOM     25  C   UNL     1      -3.055  -6.572  -1.379  0.00  0.00    -0.050 C 
BRANCH  25  26
ATOM     26  C   UNL     1      -1.741  -5.810  -1.561  0.00  0.00    +0.141 C 
BRANCH  26  27
ATOM     27  O   UNL     1      -0.780  -6.286  -0.616  0.00  0.00    -0.385 OA
ATOM     28  C   UNL     1       0.490  -5.636  -0.701  0.00  0.00    +0.193 C 
ENDBRANCH  26  27
ENDBRANCH  25  26
ENDBRANCH  13  25
ENDBRANCH  12  13
ENDBRANCH   1  12
BRANCH  11  29
ATOM     29  C   UNL     1      -4.960 -11.481   1.898  0.00  0.00    +0.256 C 
BRANCH  29  30
ATOM     30  O   UNL     1      -6.316 -11.460   2.348  0.00  0.00    -0.490 OA
BRANCH  30  31
ATOM     31  C   UNL     1      -6.552 -11.894   3.614  0.00  0.00    +0.121 A 
ATOM     32  C   UNL     1      -5.500 -12.326   4.409  0.00  0.00    +0.045 A 
ATOM     33  C   UNL     1      -5.743 -12.766   5.696  0.00  0.00    +0.004 A 
ATOM     34  C   UNL     1      -7.034 -12.777   6.192  0.00  0.00    +0.000 A 
ATOM     35  C   UNL     1      -8.084 -12.347   5.402  0.00  0.00    +0.004 A 
ATOM     36  C   UNL     1      -7.846 -11.900   4.116  0.00  0.00    +0.045 A 
ENDBRANCH  30  31
ENDBRANCH  29  30
ENDBRANCH  11  29
TORSDOF 15
