REMARK  Name = ZINC01630832
REMARK  8 active torsions:
REMARK  status: ('A' for Active; 'I' for Inactive)
REMARK    1  A    between atoms: C_1  and  O_2
REMARK    2  A    between atoms: O_2  and  C_3
REMARK    3  A    between atoms: C_5  and  C_10
REMARK    4  A    between atoms: C_8  and  O_9
REMARK    5  A    between atoms: C_12  and  O_34
REMARK    6  A    between atoms: C_20  and  O_21
REMARK    7  A    between atoms: C_25  and  C_27
REMARK    8  A    between atoms: O_34  and  C_35
REMARK                            x       y       z     vdW  Elec       q    Type
REMARK                         _______ _______ _______ _____ _____    ______ ____
ROOT
ATOM      1  C   UNL     1      -4.568  -0.901  -0.466  0.00  0.00    +0.272 C 
ATOM      2  C   UNL     1      -5.353  -0.027  -1.454  0.00  0.00    +0.353 C 
ATOM      3  O   UNL     1      -5.978  -0.887  -2.413  0.00  0.00    -0.452 OA
ATOM      4  C   UNL     1      -6.622  -1.984  -1.923  0.00  0.00    +0.208 A 
ATOM      5  C   UNL     1      -6.375  -2.439  -0.630  0.00  0.00    +0.170 A 
ATOM      6  C   UNL     1      -7.032  -3.559  -0.142  0.00  0.00    +0.096 A 
ATOM      7  C   UNL     1      -7.947  -4.237  -0.935  0.00  0.00    +0.146 A 
ATOM      8  C   UNL     1      -8.199  -3.777  -2.239  0.00  0.00    +0.109 A 
ATOM      9  C   UNL     1      -7.533  -2.648  -2.730  0.00  0.00    +0.177 A 
ATOM     10  C   UNL     1      -9.174  -4.507  -3.067  0.00  0.00    +0.197 A 
ATOM     11  O   UNL     1      -9.434  -4.156  -4.206  0.00  0.00    -0.287 OA
ATOM     12  C   UNL     1      -9.795  -5.637  -2.479  0.00  0.00    +0.098 A 
ATOM     13  C   UNL     1      -9.471  -5.988  -1.209  0.00  0.00    +0.139 A 
ATOM     14  O   UNL     1      -8.585  -5.325  -0.459  0.00  0.00    -0.454 OA
ATOM     15  O   UNL     1      -5.487  -1.793   0.174  0.00  0.00    -0.474 OA
ENDROOT
BRANCH   1  18
ATOM     16  C   UNL     1      -1.976   1.163   1.348  0.00  0.00    +0.162 A 
ATOM     17  C   UNL     1      -2.588   0.360   0.399  0.00  0.00    +0.056 A 
ATOM     18  C   UNL     1      -3.904  -0.029   0.568  0.00  0.00    +0.002 A 
ATOM     19  C   UNL     1      -4.611   0.381   1.683  0.00  0.00    +0.011 A 
ATOM     20  C   UNL     1      -4.006   1.181   2.634  0.00  0.00    +0.049 A 
ATOM     21  C   UNL     1      -2.686   1.570   2.473  0.00  0.00    +0.158 A 
BRANCH  16  23
ATOM     22  C   UNL     1      -0.013   1.086   0.008  0.00  0.00    +0.277 C 
ATOM     23  O   UNL     1      -0.682   1.547   1.184  0.00  0.00    -0.491 OA
ENDBRANCH  16  23
BRANCH  21  24
ATOM     24  O   UNL     1      -2.088   2.353   3.410  0.00  0.00    -0.503 OA
ATOM     25  H   UNL     1      -2.184   3.302   3.250  0.00  0.00    +0.292 HD
ENDBRANCH  21  24
ENDBRANCH   1  18
BRANCH  13  26
ATOM     26  C   UNL     1     -10.134  -7.170  -0.622  0.00  0.00    +0.017 A 
ATOM     27  C   UNL     1     -11.070  -7.891  -1.366  0.00  0.00    +0.011 A 
ATOM     28  C   UNL     1     -11.682  -8.997  -0.814  0.00  0.00    +0.001 A 
ATOM     29  C   UNL     1     -11.378  -9.386   0.479  0.00  0.00    +0.000 A 
ATOM     30  C   UNL     1     -10.455  -8.674   1.224  0.00  0.00    +0.001 A 
ATOM     31  C   UNL     1      -9.832  -7.569   0.682  0.00  0.00    +0.011 A 
ENDBRANCH  13  26
BRANCH   9  32
ATOM     32  O   UNL     1      -7.778  -2.206  -3.991  0.00  0.00    -0.503 OA
ATOM     33  H   UNL     1      -7.201  -2.594  -4.663  0.00  0.00    +0.292 HD
ENDBRANCH   9  32
BRANCH   2  34
ATOM     34  O   UNL     1      -4.460   0.869  -2.119  0.00  0.00    -0.342 OA
ATOM     35  C   UNL     1      -5.116   1.876  -2.891  0.00  0.00    +0.198 C 
ENDBRANCH   2  34
TORSDOF 6
