REMARK  Name = ZINC18200764
REMARK  4 active torsions:
REMARK  status: ('A' for Active; 'I' for Inactive)
REMARK    1  A    between atoms: C_1  and  C_2
REMARK    2  A    between atoms: C_2  and  C_30
REMARK    3  A    between atoms: C_6  and  C_17
REMARK    4  A    between atoms: C_14  and  O_15
REMARK                            x       y       z     vdW  Elec       q    Type
REMARK                         _______ _______ _______ _____ _____    ______ ____
ROOT
ATOM      1  C   UNL     1      -0.019   1.526   0.010  0.00  0.00    +0.011 C 
ATOM      2  C   UNL     1       0.002  -0.004   0.002  0.00  0.00    -0.023 C 
ATOM      3  C   UNL     1      -1.430  -0.539   0.042  0.00  0.00    +0.058 C 
ATOM      4  C   UNL     1      -1.410  -2.050   0.078  0.00  0.00    +0.017 C 
ATOM      5  C   UNL     1      -0.394  -2.715   0.670  0.00  0.00    +0.024 C 
ATOM      6  C   UNL     1      -0.338  -4.226   0.731  0.00  0.00    +0.093 C 
ATOM      7  C   UNL     1      -1.679  -4.797   0.365  0.00  0.00    +0.067 A 
ATOM      8  C   UNL     1      -2.661  -4.045  -0.223  0.00  0.00    +0.126 A 
ATOM      9  N   UNL     1      -3.726  -4.844  -0.424  0.00  0.00    -0.260 N 
ATOM     10  H   UNL     1      -4.569  -4.583  -0.828  0.00  0.00    +0.190 HD
ATOM     11  N   UNL     1      -3.398  -6.122   0.055  0.00  0.00    -0.134 NA
ATOM     12  C   UNL     1      -2.171  -6.089   0.526  0.00  0.00    +0.237 A 
ATOM     13  N   UNL     1      -2.468  -2.699  -0.509  0.00  0.00    -0.303 N 
ATOM     14  C   UNL     1       0.677  -2.019   1.259  0.00  0.00    +0.162 C 
ATOM     15  O   UNL     1       1.570  -2.646   1.794  0.00  0.00    -0.292 OA
ATOM     16  C   UNL     1       0.742  -0.517   1.242  0.00  0.00    +0.086 C 
ATOM     17  C   UNL     1       0.705  -0.503  -1.262  0.00  0.00    +0.011 C 
ATOM     18  H   UNL     1      -3.067  -2.228  -1.109  0.00  0.00    +0.153 HD
ENDROOT
BRANCH   6  19
ATOM     19  C   UNL     1       0.701  -4.729  -0.236  0.00  0.00    -0.025 A 
ATOM     20  C   UNL     1       0.604  -4.463  -1.573  0.00  0.00    +0.025 A 
ATOM     21  C   UNL     1       1.577  -4.938  -2.449  0.00  0.00    +0.112 A 
ATOM     22  N   UNL     1       2.598  -5.644  -2.029  0.00  0.00    -0.255 NA
ATOM     23  C   UNL     1       2.753  -5.940  -0.735  0.00  0.00    +0.071 A 
ATOM     24  C   UNL     1       1.803  -5.482   0.212  0.00  0.00    +0.004 A 
ATOM     25  C   UNL     1       1.973  -5.791   1.571  0.00  0.00    +0.010 A 
ATOM     26  C   UNL     1       3.052  -6.521   1.965  0.00  0.00    +0.001 A 
ATOM     27  C   UNL     1       3.991  -6.968   1.037  0.00  0.00    +0.002 A 
ATOM     28  C   UNL     1       3.851  -6.697  -0.289  0.00  0.00    +0.028 A 
ENDBRANCH   6  19
BRANCH  12  30
ATOM     29  H   UNL     1      -1.617  -7.219   2.032  0.00  0.00    +0.294 HD
ATOM     30  O   UNL     1      -1.499  -7.135   1.076  0.00  0.00    -0.491 OA
ENDBRANCH  12  30
TORSDOF 2
