REMARK  Name = ZINC35918320
REMARK  14 active torsions:
REMARK  status: ('A' for Active; 'I' for Inactive)
REMARK    1  A    between atoms: C_1  and  C_2
REMARK    2  A    between atoms: C_5  and  C_8
REMARK    3  A    between atoms: N_11  and  C_25
REMARK    4  A    between atoms: C_13  and  C_15
REMARK    5  A    between atoms: C_15  and  N_16
REMARK    6  A    between atoms: N_16  and  C_17
REMARK    7  A    between atoms: C_17  and  C_18
REMARK    8  A    between atoms: C_17  and  C_19
REMARK    9  A    between atoms: C_20  and  C_22
REMARK   10  A    between atoms: C_22  and  C_23
REMARK   11  A    between atoms: C_22  and  C_24
REMARK   12  A    between atoms: C_25  and  C_26
REMARK   13  A    between atoms: C_31  and  O_32
REMARK   14  A    between atoms: O_32  and  C_33
REMARK                            x       y       z     vdW  Elec       q    Type
REMARK                         _______ _______ _______ _____ _____    ______ ____
ROOT
ATOM      1  C   UNL     1      -0.103  -3.111   3.663  0.00  0.00    +0.005 C 
ATOM      2  C   UNL     1      -0.160  -2.919   5.194  0.00  0.00    -0.070 C 
ATOM      3  N   UNL     1       0.684  -4.012   5.740  0.00  0.00    +0.383 N 
ATOM      4  C   UNL     1       1.832  -4.091   4.801  0.00  0.00    -0.073 C 
ATOM      5  C   UNL     1       1.206  -3.884   3.402  0.00  0.00    -0.005 C 
ATOM      6  H   UNL     1       0.173  -4.882   5.747  0.00  0.00    -0.081 HD
ENDROOT
BRANCH   1  11
ATOM      7  C   UNL     1       0.025   2.016   1.000  0.00  0.00    +0.044 C 
ATOM      8  C   UNL     1      -0.009   0.679   1.694  0.00  0.00    -0.050 A 
ATOM      9  C   UNL     1      -0.658  -0.390   1.105  0.00  0.00    +0.003 A 
ATOM     10  C   UNL     1      -0.688  -1.617   1.742  0.00  0.00    +0.004 A 
ATOM     11  C   UNL     1      -0.069  -1.774   2.968  0.00  0.00    -0.046 A 
ATOM     12  C   UNL     1       0.581  -0.706   3.557  0.00  0.00    +0.004 A 
ATOM     13  C   UNL     1       0.615   0.520   2.918  0.00  0.00    +0.003 A 
ENDBRANCH   1  11
BRANCH   5  14
ATOM     14  C   UNL     1       2.143  -3.059   2.517  0.00  0.00    +0.110 C 
BRANCH  14  15
ATOM     15  N   UNL     1       3.366  -3.823   2.256  0.00  0.00    -0.299 N 
ATOM     16  C   UNL     1       4.421  -3.712   3.087  0.00  0.00    +0.218 C 
ATOM     17  O   UNL     1       4.375  -2.945   4.026  0.00  0.00    -0.275 OA
BRANCH  15  18
ATOM     18  C   UNL     1       3.442  -4.707   1.090  0.00  0.00    +0.070 C 
ATOM     19  C   UNL     1       4.708  -4.390   0.291  0.00  0.00    +0.028 C 
ATOM     20  C   UNL     1       3.484  -6.163   1.556  0.00  0.00    +0.028 C 
ENDBRANCH  15  18
BRANCH  16  21
ATOM     21  C   UNL     1       5.657  -4.541   2.851  0.00  0.00    +0.069 C 
ATOM     22  C   UNL     1       6.722  -3.684   2.164  0.00  0.00    +0.017 C 
ATOM     23  C   UNL     1       6.195  -5.048   4.190  0.00  0.00    +0.017 C 
ENDBRANCH  16  21
ENDBRANCH  14  15
ENDBRANCH   5  14
BRANCH   3  24
ATOM     24  C   UNL     1       1.148  -3.676   7.093  0.00  0.00    -0.039 C 
BRANCH  24  25
ATOM     25  C   UNL     1      -0.029  -3.631   8.031  0.00  0.00    -0.022 A 
ATOM     26  C   UNL     1      -0.590  -2.417   8.379  0.00  0.00    +0.005 A 
ATOM     27  C   UNL     1      -1.670  -2.374   9.241  0.00  0.00    +0.000 A 
ATOM     28  C   UNL     1      -2.192  -3.546   9.757  0.00  0.00    +0.004 A 
ATOM     29  C   UNL     1      -1.636  -4.763   9.412  0.00  0.00    +0.046 A 
ATOM     30  C   UNL     1      -0.555  -4.808   8.543  0.00  0.00    +0.121 A 
BRANCH  30  31
ATOM     31  O   UNL     1      -0.009  -6.004   8.197  0.00  0.00    -0.495 OA
ATOM     32  C   UNL     1      -0.602  -7.175   8.762  0.00  0.00    +0.277 C 
ENDBRANCH  30  31
ENDBRANCH  24  25
ENDBRANCH   3  24
TORSDOF 8
