REMARK  Name = ZINC58556798
REMARK  6 active torsions:
REMARK  status: ('A' for Active; 'I' for Inactive)
REMARK    1  A    between atoms: C_4  and  S_12
REMARK    2  A    between atoms: C_5  and  O_7
REMARK    3  A    between atoms: O_7  and  C_8
REMARK    4  A    between atoms: S_12  and  N_15
REMARK    5  A    between atoms: C_22  and  S_24
REMARK    6  A    between atoms: S_24  and  N_27
REMARK                            x       y       z     vdW  Elec       q    Type
REMARK                         _______ _______ _______ _____ _____    ______ ____
ROOT
ATOM      1  N   UNL     1       4.062  -1.652   1.387  0.00  0.00    -0.202 N 
ATOM      2  C   UNL     1       4.650  -1.122   2.620  0.00  0.00    +0.136 C 
ATOM      3  C   UNL     1       4.525  -2.259   3.647  0.00  0.00    +0.058 C 
ATOM      4  C   UNL     1       3.853  -3.382   2.890  0.00  0.00    -0.021 A 
ATOM      5  C   UNL     1       3.611  -2.957   1.593  0.00  0.00    +0.055 A 
ATOM      6  C   UNL     1       2.987  -3.829   0.699  0.00  0.00    +0.027 A 
ATOM      7  C   UNL     1       2.614  -5.093   1.105  0.00  0.00    +0.030 A 
ATOM      8  C   UNL     1       2.857  -5.506   2.402  0.00  0.00    +0.105 A 
ATOM      9  C   UNL     1       3.482  -4.651   3.291  0.00  0.00    +0.034 A 
ENDROOT
BRANCH   1  10
ATOM     10  S   UNL     1       3.944  -0.822  -0.042  0.00  0.00    +0.078 S 
ATOM     11  O   UNL     1       3.854  -1.796  -1.072  0.00  0.00    -0.150 OA
ATOM     12  O   UNL     1       4.960   0.172  -0.019  0.00  0.00    -0.150 OA
BRANCH  10  16
ATOM     13  C   UNL     1      -0.017   1.377   0.010  0.00  0.00    +0.004 A 
ATOM     14  C   UNL     1       1.171   2.086   0.002  0.00  0.00    +0.002 A 
ATOM     15  C   UNL     1       2.379   1.415  -0.013  0.00  0.00    +0.032 A 
ATOM     16  C   UNL     1       2.403   0.033  -0.021  0.00  0.00    +0.150 A 
ATOM     17  C   UNL     1       1.214  -0.680  -0.013  0.00  0.00    +0.157 A 
ATOM     18  C   UNL     1       0.002  -0.004   0.002  0.00  0.00    +0.048 A 
BRANCH  17  19
ATOM     19  O   UNL     1       1.235  -2.039  -0.021  0.00  0.00    -0.404 OA
BRANCH  19  20
ATOM     20  C   UNL     1      -0.028  -2.708  -0.013  0.00  0.00    +0.575 C 
ATOM     21  F   UNL     1      -0.760  -2.336  -1.146  0.00  0.00    -0.133 F 
ATOM     22  F   UNL     1       0.176  -4.091  -0.023  0.00  0.00    -0.133 F 
ATOM     23  F   UNL     1      -0.738  -2.349   1.138  0.00  0.00    -0.133 F 
ENDBRANCH  19  20
ENDBRANCH  17  19
ENDBRANCH  10  16
ENDBRANCH   1  10
BRANCH   8  24
ATOM     24  S   UNL     1       2.378  -7.121   2.918  0.00  0.00    +0.056 S 
ATOM     25  O   UNL     1       2.224  -7.068   4.330  0.00  0.00    -0.153 OA
ATOM     26  O   UNL     1       1.329  -7.530   2.052  0.00  0.00    -0.153 OA
BRANCH  24  27
ATOM     27  N   UNL     1       3.658  -8.129   2.620  0.00  0.00    -0.204 NA
ATOM     28  H   UNL     1       4.472  -7.777   2.228  0.00  0.00    +0.144 HD
ATOM     29  H   UNL     1       3.593  -9.072   2.837  0.00  0.00    +0.144 HD
ENDBRANCH  24  27
ENDBRANCH   8  24
TORSDOF 6
