REMARK  Name = ZINC33723173
REMARK  10 active torsions:
REMARK  status: ('A' for Active; 'I' for Inactive)
REMARK    1  A    between atoms: C_1  and  C_2
REMARK    2  A    between atoms: C_2  and  C_4
REMARK    3  A    between atoms: C_2  and  N_10
REMARK    4  A    between atoms: C_11  and  C_13
REMARK    5  A    between atoms: C_16  and  C_18
REMARK    6  A    between atoms: C_18  and  N_19
REMARK    7  A    between atoms: N_19  and  C_20
REMARK    8  A    between atoms: N_19  and  C_27
REMARK    9  A    between atoms: C_20  and  C_21
REMARK   10  A    between atoms: C_27  and  C_28
REMARK                            x       y       z     vdW  Elec       q    Type
REMARK                         _______ _______ _______ _____ _____    ______ ____
ROOT
ATOM      1  C   UNL     1       1.179   3.813  -0.208  0.00  0.00    -0.002 C 
ENDROOT
BRANCH   1   5
ATOM      2  C   UNL     1      -1.764   1.723  -0.765  0.00  0.00    +0.189 A 
ATOM      3  C   UNL     1      -0.789   0.777  -0.898  0.00  0.00    +0.055 A 
ATOM      4  C   UNL     1       0.438   1.432  -0.711  0.00  0.00    +0.043 A 
ATOM      5  C   UNL     1       0.161   2.733  -0.469  0.00  0.00    +0.090 A 
ATOM      6  O   UNL     1      -1.167   2.903  -0.499  0.00  0.00    -0.457 OA
BRANCH   2   8
ATOM      7  N   UNL     1      -4.067   2.522  -0.731  0.00  0.00    -0.302 N 
ATOM      8  C   UNL     1      -3.208   1.496  -0.886  0.00  0.00    +0.280 C 
ATOM      9  O   UNL     1      -3.630   0.380  -1.127  0.00  0.00    -0.267 OA
ATOM     10  H   UNL     1      -3.686   3.531  -0.514  0.00  0.00    +0.150 HD
BRANCH   7  12
ATOM     11  C   UNL     1      -6.066   1.819   0.491  0.00  0.00    +0.033 C 
ATOM     12  C   UNL     1      -5.510   2.295  -0.853  0.00  0.00    +0.100 C 
BRANCH  12  13
ATOM     13  C   UNL     1      -6.189   3.580  -1.250  0.00  0.00    -0.027 A 
ATOM     14  C   UNL     1      -5.784   4.778  -0.691  0.00  0.00    +0.005 A 
ATOM     15  C   UNL     1      -6.404   5.957  -1.059  0.00  0.00    +0.000 A 
ATOM     16  C   UNL     1      -7.435   5.938  -1.979  0.00  0.00    +0.000 A 
ATOM     17  C   UNL     1      -7.844   4.740  -2.534  0.00  0.00    +0.000 A 
ATOM     18  C   UNL     1      -7.221   3.561  -2.170  0.00  0.00    +0.005 A 
ENDBRANCH  12  13
ENDBRANCH   7  12
ENDBRANCH   2   8
ENDBRANCH   1   5
BRANCH   1  19
ATOM     19  N   UNL     1       1.575   4.430  -1.480  0.00  0.00    +0.390 N 
ATOM     20  H   UNL     1       1.873   3.625  -2.168  0.00  0.00    -0.080 HD
BRANCH  19  21
ATOM     21  C   UNL     1       0.449   5.151  -2.089  0.00  0.00    -0.042 C 
BRANCH  21  22
ATOM     22  C   UNL     1       0.754   5.428  -3.539  0.00  0.00    -0.064 A 
ATOM     23  C   UNL     1       1.279   6.651  -3.913  0.00  0.00    +0.002 A 
ATOM     24  C   UNL     1       1.564   6.903  -5.242  0.00  0.00    +0.000 A 
ATOM     25  C   UNL     1       1.315   5.936  -6.198  0.00  0.00    +0.000 A 
ATOM     26  C   UNL     1       0.785   4.716  -5.824  0.00  0.00    +0.000 A 
ATOM     27  C   UNL     1       0.505   4.461  -4.495  0.00  0.00    +0.002 A 
ENDBRANCH  21  22
ENDBRANCH  19  21
BRANCH  19  28
ATOM     28  C   UNL     1       2.731   5.318  -1.297  0.00  0.00    -0.042 C 
BRANCH  28  29
ATOM     29  C   UNL     1       3.974   4.490  -1.097  0.00  0.00    -0.064 A 
ATOM     30  C   UNL     1       4.410   4.197   0.182  0.00  0.00    +0.004 A 
ATOM     31  C   UNL     1       5.547   3.434   0.366  0.00  0.00    +0.038 A 
ATOM     32  C   UNL     1       6.255   2.970  -0.730  0.00  0.00    +0.123 A 
ATOM     33  C   UNL     1       5.820   3.268  -2.010  0.00  0.00    +0.038 A 
ATOM     34  C   UNL     1       4.680   4.027  -2.192  0.00  0.00    +0.004 A 
ATOM     35  F   UNL     1       7.369   2.228  -0.550  0.00  0.00    -0.205 F 
ENDBRANCH  28  29
ENDBRANCH  19  28
ENDBRANCH   1  19
TORSDOF 9
