REMARK  Name = ZINC09881500
REMARK  7 active torsions:
REMARK  status: ('A' for Active; 'I' for Inactive)
REMARK    1  A    between atoms: C_1  and  C_2
REMARK    2  A    between atoms: C_2  and  C_4
REMARK    3  A    between atoms: C_2  and  S_16
REMARK    4  A    between atoms: S_16  and  C_17
REMARK    5  A    between atoms: C_20  and  C_29
REMARK    6  A    between atoms: N_21  and  C_22
REMARK    7  A    between atoms: C_29  and  N_64
REMARK                            x       y       z     vdW  Elec       q    Type
REMARK                         _______ _______ _______ _____ _____    ______ ____
ROOT
ATOM      1  C   UNL     1       7.143  -1.035  -0.543  0.00  0.00    +0.197 A 
ATOM      2  N   UNL     1       7.384   0.256  -0.531  0.00  0.00    -0.122 NA
ATOM      3  N   UNL     1       8.555   0.487  -1.006  0.00  0.00    -0.135 NA
ATOM      4  C   UNL     1       9.130  -0.632  -1.347  0.00  0.00    +0.122 A 
ATOM      5  N   UNL     1       8.253  -1.644  -1.060  0.00  0.00    -0.276 N 
ENDROOT
BRANCH   5   6
ATOM      6  C   UNL     1       8.451  -3.019  -1.258  0.00  0.00    +0.050 A 
ATOM      7  C   UNL     1       9.437  -3.689  -0.545  0.00  0.00    +0.029 A 
ATOM      8  C   UNL     1       9.627  -5.043  -0.738  0.00  0.00    +0.040 A 
ATOM      9  C   UNL     1       8.843  -5.731  -1.648  0.00  0.00    +0.124 A 
ATOM     10  C   UNL     1       7.863  -5.064  -2.364  0.00  0.00    +0.040 A 
ATOM     11  C   UNL     1       7.666  -3.710  -2.170  0.00  0.00    +0.029 A 
ATOM     12  F   UNL     1       9.034  -7.055  -1.839  0.00  0.00    -0.205 F 
ENDBRANCH   5   6
BRANCH   1  13
ATOM     13  S   UNL     1       5.672  -1.832   0.009  0.00  0.00    -0.073 S 
BRANCH  13  15
ATOM     14  C   UNL     1       5.412   0.275   1.728  0.00  0.00    +0.029 C 
ATOM     15  C   UNL     1       4.714  -0.391   0.541  0.00  0.00    +0.137 C 
BRANCH  15  16
ATOM     16  C   UNL     1       3.332  -0.830   0.952  0.00  0.00    +0.233 C 
ATOM     17  O   UNL     1       3.148  -1.961   1.347  0.00  0.00    -0.274 OA
ATOM     18  N   UNL     1       2.301   0.035   0.880  0.00  0.00    -0.270 N 
ATOM     19  C   UNL     1       2.531   1.444   0.533  0.00  0.00    +0.114 C 
ATOM     20  C   UNL     1       1.703   2.305   1.496  0.00  0.00    +0.024 C 
ATOM     21  C   UNL     1       0.221   2.005   1.277  0.00  0.00    +0.038 C 
ATOM     22  C   UNL     1      -0.030   0.521   1.331  0.00  0.00    -0.026 A 
ATOM     23  C   UNL     1       0.992  -0.394   1.133  0.00  0.00    +0.039 A 
ATOM     24  C   UNL     1       0.724  -1.757   1.186  0.00  0.00    +0.024 A 
ATOM     25  C   UNL     1      -0.559  -2.201   1.438  0.00  0.00    +0.002 A 
ATOM     26  C   UNL     1      -1.577  -1.288   1.638  0.00  0.00    +0.000 A 
ATOM     27  C   UNL     1      -1.314   0.068   1.585  0.00  0.00    +0.005 A 
ENDBRANCH  15  16
ENDBRANCH  13  15
ENDBRANCH   1  13
BRANCH   4  28
ATOM     28  C   UNL     1      10.506  -0.784  -1.943  0.00  0.00    -0.001 C 
BRANCH  28  34
ATOM     29  C   UNL     1      11.588   0.275  -0.054  0.00  0.00    -0.078 C 
ATOM     30  C   UNL     1      12.510   0.023   1.141  0.00  0.00    -0.019 C 
ATOM     31  C   UNL     1      13.895  -0.386   0.633  0.00  0.00    -0.004 C 
ATOM     32  C   UNL     1      13.760  -1.631  -0.248  0.00  0.00    -0.019 C 
ATOM     33  C   UNL     1      12.801  -1.331  -1.403  0.00  0.00    -0.078 C 
ATOM     34  N   UNL     1      11.480  -0.968  -0.847  0.00  0.00    +0.384 N 
ATOM     35  H   UNL     1      11.156  -1.726  -0.236  0.00  0.00    -0.081 HD
ENDBRANCH  28  34
ENDBRANCH   4  28
TORSDOF 6
