REMARK  Name = ZINC12815583
REMARK  6 active torsions:
REMARK  status: ('A' for Active; 'I' for Inactive)
REMARK    1  A    between atoms: C_4  and  C_7
REMARK    2  A    between atoms: C_7  and  C_9
REMARK    3  A    between atoms: C_7  and  O_12
REMARK    4  A    between atoms: O_12  and  C_13
REMARK    5  A    between atoms: C_13  and  C_15
REMARK    6  A    between atoms: C_19  and  N_21
REMARK                            x       y       z     vdW  Elec       q    Type
REMARK                         _______ _______ _______ _____ _____    ______ ____
ROOT
ATOM      1  O   UNL     1       3.641   3.507  -0.014  0.00  0.00    -0.444 OA
ENDROOT
BRANCH   1   2
ATOM      2  C   UNL     1       3.656   2.160  -0.021  0.00  0.00    +0.340 C 
ATOM      3  O   UNL     1       4.714   1.564  -0.034  0.00  0.00    -0.245 OA
BRANCH   2   4
ATOM      4  C   UNL     1       2.385   1.407  -0.013  0.00  0.00    +0.061 A 
ATOM      5  C   UNL     1       1.166   2.089   0.002  0.00  0.00    +0.016 A 
ATOM      6  C   UNL     1      -0.017   1.381   0.010  0.00  0.00    +0.018 A 
ATOM      7  C   UNL     1       0.002  -0.004   0.002  0.00  0.00    +0.048 A 
ATOM      8  C   UNL     1       1.207  -0.686  -0.013  0.00  0.00    +0.141 A 
ATOM      9  C   UNL     1       2.397   0.011  -0.020  0.00  0.00    +0.048 A 
ATOM     10 BR   UNL     1      -1.625  -0.968   0.012  0.00  0.00    -0.048 Br
BRANCH   8  11
ATOM     11  N   UNL     1       1.218  -2.166  -0.021  0.00  0.00    +0.058 N 
ATOM     12  O   UNL     1       2.277  -2.767  -0.035  0.00  0.00    -0.126 OA
ATOM     13  O   UNL     1       0.168  -2.783  -0.015  0.00  0.00    -0.126 OA
ENDBRANCH   8  11
ENDBRANCH   2   4
ENDBRANCH   1   2
BRANCH   1  14
ATOM     14  C   UNL     1       4.927   4.181  -0.022  0.00  0.00    +0.292 C 
BRANCH  14  18
ATOM     15  C   UNL     1       4.551   7.942  -2.013  0.00  0.00    +0.000 A 
ATOM     16  C   UNL     1       5.674   7.162  -2.215  0.00  0.00    +0.000 A 
ATOM     17  C   UNL     1       5.796   5.945  -1.571  0.00  0.00    +0.008 A 
ATOM     18  C   UNL     1       4.794   5.508  -0.724  0.00  0.00    +0.002 A 
ATOM     19  C   UNL     1       3.669   6.285  -0.526  0.00  0.00    +0.008 A 
ATOM     20  C   UNL     1       3.549   7.504  -1.167  0.00  0.00    +0.000 A 
ENDBRANCH  14  18
BRANCH  14  21
ATOM     21  C   UNL     1       5.386   4.406   1.395  0.00  0.00    +0.256 C 
ATOM     22  O   UNL     1       4.696   4.035   2.322  0.00  0.00    -0.272 OA
ATOM     23  N   UNL     1       6.562   5.019   1.634  0.00  0.00    -0.326 N 
ATOM     24  H   UNL     1       7.113   5.316   0.893  0.00  0.00    +0.145 HD
ATOM     25  H   UNL     1       6.857   5.165   2.546  0.00  0.00    +0.145 HD
ENDBRANCH  14  21
ENDBRANCH   1  14
TORSDOF 6
