REMARK  Name = ZINC39793553
REMARK  9 active torsions:
REMARK  status: ('A' for Active; 'I' for Inactive)
REMARK    1  A    between atoms: C_1  and  C_2
REMARK    2  A    between atoms: N_5  and  C_7
REMARK    3  A    between atoms: C_14  and  N_32
REMARK    4  A    between atoms: C_16  and  C_30
REMARK    5  A    between atoms: C_18  and  C_20
REMARK    6  A    between atoms: C_23  and  O_28
REMARK    7  A    between atoms: C_24  and  O_26
REMARK    8  A    between atoms: O_26  and  C_27
REMARK    9  A    between atoms: O_28  and  C_29
REMARK                            x       y       z     vdW  Elec       q    Type
REMARK                         _______ _______ _______ _____ _____    ______ ____
ROOT
ATOM      1  C   UNL     1      -0.674   1.966  -0.512  0.00  0.00    +0.068 C 
ATOM      2  C   UNL     1      -0.620   0.492  -0.205  0.00  0.00    +0.068 A 
ATOM      3  C   UNL     1      -0.329  -0.519  -1.113  0.00  0.00    +0.046 A 
ATOM      4  C   UNL     1      -0.381  -1.712  -0.450  0.00  0.00    +0.224 A 
ATOM      5  N   UNL     1      -0.694  -1.448   0.838  0.00  0.00    -0.200 N 
ATOM      6  N   UNL     1      -0.835  -0.058   0.967  0.00  0.00    -0.168 NA
ATOM      7  O   UNL     1      -0.149  -2.909  -1.050  0.00  0.00    -0.456 OA
ATOM      8  C   UNL     1      -0.206  -2.896  -2.483  0.00  0.00    +0.259 C 
ATOM      9  C   UNL     1       0.634  -1.732  -3.021  0.00  0.00    +0.159 C 
ATOM     10  C   UNL     1      -0.001  -0.404  -2.582  0.00  0.00    +0.078 C 
ENDROOT
BRANCH   5  11
ATOM     11  C   UNL     1      -0.846  -2.393   1.862  0.00  0.00    +0.069 A 
ATOM     12  C   UNL     1      -1.381  -3.643   1.582  0.00  0.00    +0.028 A 
ATOM     13  C   UNL     1      -1.528  -4.572   2.593  0.00  0.00    +0.002 A 
ATOM     14  C   UNL     1      -1.144  -4.258   3.884  0.00  0.00    +0.000 A 
ATOM     15  C   UNL     1      -0.611  -3.014   4.166  0.00  0.00    +0.002 A 
ATOM     16  C   UNL     1      -0.456  -2.083   3.158  0.00  0.00    +0.028 A 
ENDBRANCH   5  11
BRANCH  10  17
ATOM     17  C   UNL     1       0.972   0.726  -2.802  0.00  0.00    -0.035 A 
ATOM     18  C   UNL     1       2.047   0.885  -1.948  0.00  0.00    +0.008 A 
ATOM     19  C   UNL     1       2.943   1.920  -2.146  0.00  0.00    +0.050 A 
ATOM     20  C   UNL     1       2.763   2.800  -3.201  0.00  0.00    +0.162 A 
ATOM     21  C   UNL     1       1.681   2.639  -4.061  0.00  0.00    +0.162 A 
ATOM     22  C   UNL     1       0.790   1.597  -3.860  0.00  0.00    +0.053 A 
BRANCH  21  23
ATOM     23  O   UNL     1       1.500   3.499  -5.098  0.00  0.00    -0.491 OA
ATOM     24  C   UNL     1       0.367   3.273  -5.939  0.00  0.00    +0.277 C 
ENDBRANCH  21  23
BRANCH  20  25
ATOM     25  O   UNL     1       3.643   3.818  -3.397  0.00  0.00    -0.491 OA
ATOM     26  C   UNL     1       4.730   3.922  -2.475  0.00  0.00    +0.277 C 
ENDBRANCH  20  25
ENDBRANCH  10  17
BRANCH   8  27
ATOM     27  N   UNL     1       0.324  -4.162  -3.005  0.00  0.00    -0.295 NA
ATOM     28  H   UNL     1      -0.215  -4.946  -2.667  0.00  0.00    +0.122 HD
ATOM     29  H   UNL     1       0.355  -4.153  -4.014  0.00  0.00    +0.122 HD
ENDBRANCH   8  27
BRANCH   9  30
ATOM     30  C   UNL     1       2.002  -1.825  -2.485  0.00  0.00    +0.072 C 
ATOM     31  N   UNL     1       3.057  -1.897  -2.071  0.00  0.00    -0.196 NA
ENDBRANCH   9  30
TORSDOF 6
