REMARK  Name = ZINC35183128
REMARK  10 active torsions:
REMARK  status: ('A' for Active; 'I' for Inactive)
REMARK    1  A    between atoms: C_1  and  C_2
REMARK    2  A    between atoms: C_3  and  C_4
REMARK    3  A    between atoms: C_4  and  O_6
REMARK    4  A    between atoms: O_6  and  C_7
REMARK    5  A    between atoms: C_7  and  C_8
REMARK    6  A    between atoms: C_8  and  C_10
REMARK    7  A    between atoms: C_10  and  O_35
REMARK    8  A    between atoms: C_15  and  C_34
REMARK    9  A    between atoms: C_17  and  O_33
REMARK   10  A    between atoms: C_31  and  C_32
REMARK                            x       y       z     vdW  Elec       q    Type
REMARK                         _______ _______ _______ _____ _____    ______ ____
ROOT
ATOM      1  C   UNL     1      -3.747  -6.357   0.004  0.00  0.00    +0.133 C 
ATOM      2  C   UNL     1      -3.839  -6.894   1.446  0.00  0.00    +0.043 C 
ATOM      3  C   UNL     1      -5.174  -7.674   1.535  0.00  0.00    +0.008 C 
ATOM      4  C   UNL     1      -5.445  -8.059   0.069  0.00  0.00    +0.002 C 
ATOM      5  C   UNL     1      -5.059  -6.785  -0.706  0.00  0.00    +0.009 C 
ATOM      6  C   UNL     1      -6.112  -5.710  -0.471  0.00  0.00    +0.041 C 
ATOM      7  C   UNL     1      -7.513  -6.214  -0.854  0.00  0.00    +0.119 C 
ATOM      8  C   UNL     1      -7.895  -7.393   0.035  0.00  0.00    +0.031 C 
ATOM      9  C   UNL     1      -6.867  -8.510  -0.167  0.00  0.00    -0.001 C 
ATOM     10  C   UNL     1      -7.158  -9.707   0.744  0.00  0.00    +0.008 C 
ATOM     11  C   UNL     1      -8.528 -10.302   0.393  0.00  0.00    +0.032 C 
ATOM     12  C   UNL     1      -9.526  -9.169   0.557  0.00  0.00    -0.060 C 
ATOM     13  C   UNL     1     -10.542  -9.339   1.395  0.00  0.00    +0.046 C 
ATOM     14  C   UNL     1     -11.494  -8.248   1.634  0.00  0.00    +0.156 C 
ATOM     15  O   UNL     1     -12.595  -8.433   2.104  0.00  0.00    -0.293 OA
ATOM     16  C   UNL     1     -10.993  -6.856   1.286  0.00  0.00    +0.080 C 
ATOM     17  C   UNL     1     -10.420  -6.928  -0.128  0.00  0.00    +0.019 C 
ATOM     18  C   UNL     1      -9.293  -7.922  -0.255  0.00  0.00    -0.005 C 
ATOM     19  C   UNL     1      -9.334  -8.371  -1.721  0.00  0.00    +0.016 C 
ATOM     20  C   UNL     1      -4.828  -7.066  -2.192  0.00  0.00    +0.015 C 
ENDROOT
BRANCH   1  21
ATOM     21  C   UNL     1      -3.570  -4.865   0.010  0.00  0.00    +0.202 C 
ATOM     22  O   UNL     1      -4.537  -4.143   0.023  0.00  0.00    -0.291 OA
BRANCH  21  23
ATOM     23  C   UNL     1      -2.185  -4.270   0.000  0.00  0.00    +0.309 C 
BRANCH  23  24
ATOM     24  O   UNL     1      -2.279  -2.844   0.009  0.00  0.00    -0.454 OA
BRANCH  24  25
ATOM     25  C   UNL     1      -1.121  -2.154   0.001  0.00  0.00    +0.332 C 
ATOM     26  O   UNL     1      -0.061  -2.748  -0.012  0.00  0.00    -0.246 OA
BRANCH  25  29
ATOM     27  C   UNL     1      -0.018   1.503   0.010  0.00  0.00    +0.035 C 
ATOM     28  C   UNL     1       0.002  -0.004   0.002  0.00  0.00    -0.023 C 
ATOM     29  C   UNL     1      -1.141  -0.685   0.009  0.00  0.00    +0.087 C 
ENDBRANCH  25  29
ENDBRANCH  24  25
ENDBRANCH  23  24
ENDBRANCH  21  23
ENDBRANCH   1  21
BRANCH   7  30
ATOM     30  O   UNL     1      -8.394  -5.102  -0.660  0.00  0.00    -0.391 OA
ATOM     31  H   UNL     1      -8.176  -4.329  -1.199  0.00  0.00    +0.210 HD
ENDBRANCH   7  30
BRANCH   1  32
ATOM     32  O   UNL     1      -2.629  -6.967  -0.657  0.00  0.00    -0.380 OA
ATOM     33  H   UNL     1      -1.775  -6.773  -0.246  0.00  0.00    +0.211 HD
ENDBRANCH   1  32
TORSDOF 7
