REMARK  Name = ZINC39355523
REMARK  8 active torsions:
REMARK  status: ('A' for Active; 'I' for Inactive)
REMARK    1  A    between atoms: C_1  and  C_2
REMARK    2  A    between atoms: C_2  and  C_3
REMARK    3  A    between atoms: C_2  and  C_4
REMARK    4  A    between atoms: C_4  and  C_5
REMARK    5  A    between atoms: C_7  and  C_11
REMARK    6  A    between atoms: C_11  and  N_12
REMARK    7  A    between atoms: C_25  and  C_27
REMARK    8  A    between atoms: C_31  and  O_33
REMARK                            x       y       z     vdW  Elec       q    Type
REMARK                         _______ _______ _______ _____ _____    ______ ____
ROOT
ATOM      1  N   UNL     1      -2.674  -6.314  -0.180  0.00  0.00    -0.288 NA
ATOM      2  C   UNL     1      -1.573  -7.171   0.267  0.00  0.00    +0.086 C 
ATOM      3  C   UNL     1      -1.396  -8.385  -0.652  0.00  0.00    +0.029 C 
ATOM      4  C   UNL     1      -2.658  -9.246  -0.551  0.00  0.00    +0.069 C 
ATOM      5  C   UNL     1      -2.763 -10.265  -1.636  0.00  0.00    -0.013 A 
ATOM      6  C   UNL     1      -1.973 -11.332  -1.992  0.00  0.00    +0.006 A 
ATOM      7  C   UNL     1      -2.397 -12.100  -3.073  0.00  0.00    +0.000 A 
ATOM      8  C   UNL     1      -3.559 -11.804  -3.756  0.00  0.00    +0.002 A 
ATOM      9  C   UNL     1      -4.360 -10.727  -3.414  0.00  0.00    +0.028 A 
ATOM     10  C   UNL     1      -3.943  -9.938  -2.334  0.00  0.00    +0.068 A 
ATOM     11  N   UNL     1      -4.494  -8.806  -1.821  0.00  0.00    -0.254 NA
ATOM     12  C   UNL     1      -3.829  -8.305  -0.831  0.00  0.00    +0.049 C 
ATOM     13  C   UNL     1      -3.981  -6.997  -0.092  0.00  0.00    +0.133 C 
ENDROOT
BRANCH  13  14
ATOM     14  C   UNL     1      -5.048  -6.156  -0.744  0.00  0.00    -0.021 A 
ATOM     15  C   UNL     1      -4.775  -5.485  -1.922  0.00  0.00    +0.006 A 
ATOM     16  C   UNL     1      -5.752  -4.713  -2.522  0.00  0.00    +0.004 A 
ATOM     17  C   UNL     1      -7.004  -4.610  -1.947  0.00  0.00    +0.045 A 
ATOM     18  C   UNL     1      -7.280  -5.282  -0.765  0.00  0.00    +0.117 A 
ATOM     19  C   UNL     1      -6.300  -6.061  -0.168  0.00  0.00    +0.051 A 
BRANCH  18  20
ATOM     20  O   UNL     1      -8.511  -5.183  -0.197  0.00  0.00    -0.507 OA
ATOM     21  H   UNL     1      -9.137  -5.856  -0.495  0.00  0.00    +0.292 HD
ENDBRANCH  18  20
ENDBRANCH  13  14
BRANCH   1  22
ATOM     22  C   UNL     1      -2.690  -5.047   0.564  0.00  0.00    +0.118 C 
BRANCH  22  25
ATOM     23  C   UNL     1      -1.416  -2.035  -0.119  0.00  0.00    +0.062 C 
ATOM     24  C   UNL     1      -1.465  -2.886   0.907  0.00  0.00    +0.027 C 
ATOM     25  C   UNL     1      -1.420  -4.254   0.250  0.00  0.00    +0.167 C 
ATOM     26  N   UNL     1      -1.346  -3.930  -1.185  0.00  0.00    -0.179 NA
ATOM     27  N   UNL     1      -1.355  -2.701  -1.293  0.00  0.00    -0.159 NA
BRANCH  23  28
ATOM     28  C   UNL     1      -1.433  -0.534   0.013  0.00  0.00    +0.060 C 
BRANCH  28  30
ATOM     29  C   UNL     1      -0.019   1.526   0.010  0.00  0.00    +0.007 C 
ATOM     30  C   UNL     1       0.002  -0.004   0.002  0.00  0.00    -0.011 C 
ATOM     31  C   UNL     1       0.742  -0.511   1.242  0.00  0.00    +0.007 C 
ENDBRANCH  28  30
ENDBRANCH  23  28
ENDBRANCH  22  25
ENDBRANCH   1  22
TORSDOF 6
