REMARK  Name = ZINC66795450
REMARK  8 active torsions:
REMARK  status: ('A' for Active; 'I' for Inactive)
REMARK    1  A    between atoms: C_1  and  C_2
REMARK    2  A    between atoms: C_2  and  C_4
REMARK    3  A    between atoms: C_2  and  C_23
REMARK    4  A    between atoms: C_4  and  N_5
REMARK    5  A    between atoms: N_5  and  C_6
REMARK    6  A    between atoms: N_5  and  C_7
REMARK    7  A    between atoms: C_7  and  N_8
REMARK    8  A    between atoms: N_11  and  C_20
REMARK                            x       y       z     vdW  Elec       q    Type
REMARK                         _______ _______ _______ _____ _____    ______ ____
ROOT
ATOM      1  N   UNL     1      -4.356  -0.254  -2.390  0.00  0.00    -0.256 N 
ATOM      2  C   UNL     1      -5.163   0.827  -2.348  0.00  0.00    +0.178 A 
ATOM      3  S   UNL     1      -5.765   1.584  -0.936  0.00  0.00    -0.011 S 
ATOM      4  N   UNL     1      -5.407   1.202  -3.619  0.00  0.00    -0.288 N 
ATOM      5  C   UNL     1      -4.742   0.340  -4.460  0.00  0.00    +0.218 A 
ATOM      6  N   UNL     1      -4.103  -0.535  -3.740  0.00  0.00    -0.136 NA
ATOM      7  N   UNL     1      -4.748   0.398  -5.846  0.00  0.00    -0.300 N 
ATOM      8  C   UNL     1      -3.541   0.063  -6.614  0.00  0.00    +0.108 C 
ATOM      9  C   UNL     1      -3.897  -1.008  -7.650  0.00  0.00    +0.019 C 
ATOM     10  C   UNL     1      -5.069  -0.517  -8.503  0.00  0.00    +0.003 C 
ATOM     11  C   UNL     1      -6.290  -0.283  -7.610  0.00  0.00    +0.019 C 
ATOM     12  C   UNL     1      -5.962   0.790  -6.574  0.00  0.00    +0.108 C 
ENDROOT
BRANCH   4  13
ATOM     13  C   UNL     1      -6.240   2.333  -4.034  0.00  0.00    +0.093 C 
ATOM     14  C   UNL     1      -6.583   3.384  -2.976  0.00  0.00    +0.027 C 
ATOM     15  C   UNL     1      -7.659   2.412  -3.466  0.00  0.00    +0.027 C 
ENDBRANCH   4  13
BRANCH   1  16
ATOM     16  C   UNL     1      -3.835  -0.993  -1.238  0.00  0.00    +0.071 C 
BRANCH  16  17
ATOM     17  N   UNL     1      -2.418  -0.659  -1.041  0.00  0.00    +0.391 N 
ATOM     18  C   UNL     1      -1.639  -1.134  -2.192  0.00  0.00    -0.093 C 
ATOM     19  H   UNL     1      -2.317   0.341  -0.956  0.00  0.00    -0.080 HD
BRANCH  17  20
ATOM     20  C   UNL     1      -1.927  -1.306   0.183  0.00  0.00    -0.069 C 
BRANCH  20  22
ATOM     21  C   UNL     1      -0.471   0.641   0.755  0.00  0.00    +0.010 C 
ATOM     22  C   UNL     1      -0.490  -0.859   0.455  0.00  0.00    -0.001 C 
BRANCH  22  23
ATOM     23  C   UNL     1       0.055  -1.615   1.639  0.00  0.00    -0.046 A 
ATOM     24  C   UNL     1      -0.569  -1.517   2.869  0.00  0.00    +0.004 A 
ATOM     25  C   UNL     1      -0.068  -2.210   3.955  0.00  0.00    +0.000 A 
ATOM     26  C   UNL     1       1.056  -3.002   3.812  0.00  0.00    +0.000 A 
ATOM     27  C   UNL     1       1.679  -3.101   2.582  0.00  0.00    +0.000 A 
ATOM     28  C   UNL     1       1.176  -2.411   1.495  0.00  0.00    +0.004 A 
ENDBRANCH  22  23
ENDBRANCH  20  22
ENDBRANCH  17  20
ENDBRANCH  16  17
ENDBRANCH   1  16
TORSDOF 6
