REMARK  Name = ZINC14720269
REMARK  17 active torsions:
REMARK  status: ('A' for Active; 'I' for Inactive)
REMARK    1  A    between atoms: C_1  and  C_2
REMARK    2  A    between atoms: C_2  and  C_3
REMARK    3  A    between atoms: C_3  and  C_4
REMARK    4  A    between atoms: C_4  and  N_5
REMARK    5  A    between atoms: N_5  and  C_6
REMARK    6  A    between atoms: C_7  and  N_19
REMARK    7  A    between atoms: N_8  and  C_15
REMARK    8  A    between atoms: C_15  and  C_16
REMARK    9  A    between atoms: C_16  and  C_17
REMARK   10  A    between atoms: C_16  and  C_18
REMARK   11  A    between atoms: C_20  and  C_22
REMARK   12  A    between atoms: C_23  and  C_24
REMARK   13  A    between atoms: C_27  and  O_33
REMARK   14  A    between atoms: C_28  and  O_30
REMARK   15  A    between atoms: O_30  and  C_31
REMARK   16  A    between atoms: C_31  and  C_32
REMARK   17  A    between atoms: O_33  and  C_34
REMARK                            x       y       z     vdW  Elec       q    Type
REMARK                         _______ _______ _______ _____ _____    ______ ____
ROOT
ATOM      1  N   UNL     1       2.401   4.038   0.394  0.00  0.00    -0.261 N 
ATOM      2  C   UNL     1       3.611   3.444   0.432  0.00  0.00    +0.244 C 
ATOM      3  O   UNL     1       3.716   2.259   0.176  0.00  0.00    -0.270 OA
ENDROOT
BRANCH   1   4
ATOM      4  C   UNL     1       1.243   3.264   0.171  0.00  0.00    +0.140 A 
ATOM      5  C   UNL     1       0.495   3.435  -0.976  0.00  0.00    +0.127 A 
ATOM      6  N   UNL     1      -0.629   2.666  -1.165  0.00  0.00    -0.280 N 
ATOM      7  C   UNL     1      -0.998   1.761  -0.240  0.00  0.00    +0.331 A 
ATOM      8  O   UNL     1      -1.999   1.094  -0.423  0.00  0.00    -0.246 OA
ATOM      9  N   UNL     1      -0.279   1.577   0.881  0.00  0.00    -0.273 N 
ATOM     10  H   UNL     1      -0.570   0.892   1.548  0.00  0.00    +0.173 HD
ATOM     11  C   UNL     1       0.831   2.305   1.115  0.00  0.00    +0.277 A 
ATOM     12  O   UNL     1       1.474   2.133   2.136  0.00  0.00    -0.266 OA
BRANCH   5  13
ATOM     13  N   UNL     1       0.869   4.363  -1.919  0.00  0.00    -0.343 N 
ATOM     14  H   UNL     1       0.379   4.431  -2.753  0.00  0.00    +0.144 HD
ATOM     15  H   UNL     1       1.623   4.950  -1.749  0.00  0.00    +0.144 HD
ENDBRANCH   5  13
BRANCH   6  16
ATOM     16  C   UNL     1      -1.433   2.836  -2.378  0.00  0.00    +0.131 C 
BRANCH  16  17
ATOM     17  C   UNL     1      -0.916   1.896  -3.469  0.00  0.00    +0.003 C 
ATOM     18  C   UNL     1      -1.831   1.983  -4.692  0.00  0.00    +0.009 C 
ATOM     19  C   UNL     1       0.504   2.305  -3.864  0.00  0.00    +0.009 C 
ENDBRANCH  16  17
ENDBRANCH   6  16
ENDBRANCH   1   4
BRANCH   2  20
ATOM     20  C   UNL     1       4.798   4.225   0.782  0.00  0.00    +0.068 C 
ATOM     21  C   UNL     1       6.009   3.630   0.820  0.00  0.00    +0.013 C 
BRANCH  21  22
ATOM     22  C   UNL     1       7.202   4.415   1.171  0.00  0.00    -0.021 A 
ATOM     23  C   UNL     1       7.083   5.778   1.466  0.00  0.00    +0.012 A 
ATOM     24  C   UNL     1       8.203   6.510   1.795  0.00  0.00    +0.050 A 
ATOM     25  C   UNL     1       9.449   5.900   1.835  0.00  0.00    +0.168 A 
ATOM     26  C   UNL     1       9.575   4.542   1.543  0.00  0.00    +0.163 A 
ATOM     27  C   UNL     1       8.458   3.799   1.218  0.00  0.00    +0.057 A 
BRANCH  26  28
ATOM     28  O   UNL     1      10.798   3.949   1.584  0.00  0.00    -0.489 OA
BRANCH  28  29
ATOM     29  C   UNL     1      10.853   2.555   1.273  0.00  0.00    +0.226 C 
ATOM     30  C   UNL     1      12.300   2.068   1.371  0.00  0.00    +0.048 C 
ENDBRANCH  28  29
ENDBRANCH  26  28
BRANCH  25  31
ATOM     31  O   UNL     1      10.549   6.628   2.160  0.00  0.00    -0.431 OA
BRANCH  31  32
ATOM     32  C   UNL     1      10.349   8.013   2.448  0.00  0.00    +0.541 C 
ATOM     33  F   UNL     1       9.796   8.646   1.330  0.00  0.00    -0.166 F 
ATOM     34  F   UNL     1       9.478   8.142   3.535  0.00  0.00    -0.166 F 
ENDBRANCH  31  32
ENDBRANCH  25  31
ENDBRANCH  21  22
ENDBRANCH   2  20
BRANCH   1  35
ATOM     35  C   UNL     1       2.290   5.486   0.583  0.00  0.00    +0.114 C 
BRANCH  35  36
ATOM     36  C   UNL     1       1.995   5.787   2.054  0.00  0.00    +0.019 C 
BRANCH  36  38
ATOM     37  C   UNL     1       1.584   7.600   3.723  0.00  0.00    +0.004 C 
ATOM     38  C   UNL     1       1.879   7.300   2.252  0.00  0.00    -0.002 C 
ENDBRANCH  36  38
ENDBRANCH  35  36
ENDBRANCH   1  35
TORSDOF 13
