REMARK  Name = ZINC03593584
REMARK  5 active torsions:
REMARK  status: ('A' for Active; 'I' for Inactive)
REMARK    1  A    between atoms: C_1  and  C_2
REMARK    2  A    between atoms: C_9  and  C_11
REMARK    3  A    between atoms: C_11  and  N_12
REMARK    4  A    between atoms: C_15  and  C_19
REMARK    5  A    between atoms: C_15  and  C_20
REMARK                            x       y       z     vdW  Elec       q    Type
REMARK                         _______ _______ _______ _____ _____    ______ ____
ROOT
ATOM      1  N   UNL     1       4.858   0.850  -0.392  0.00  0.00    -0.215 N 
ATOM      2  C   UNL     1       5.296   0.233  -1.507  0.00  0.00    +0.251 C 
ATOM      3  O   UNL     1       4.944   0.446  -2.648  0.00  0.00    -0.272 OA
ATOM      4  C   UNL     1       6.322  -0.781  -1.040  0.00  0.00    +0.136 C 
ATOM      5  N   UNL     1       6.344  -0.601   0.422  0.00  0.00    -0.281 N 
ATOM      6  C   UNL     1       5.462   0.374   0.704  0.00  0.00    +0.310 C 
ATOM      7  O   UNL     1       5.235   0.776   1.828  0.00  0.00    -0.252 OA
ATOM      8  C   UNL     1       5.878  -2.200  -1.401  0.00  0.00    +0.047 C 
ATOM      9  H   UNL     1       6.892  -1.089   1.057  0.00  0.00    +0.152 HD
ENDROOT
BRANCH   4  10
ATOM     10  C   UNL     1       7.674  -0.479  -1.632  0.00  0.00    +0.003 A 
ATOM     11  C   UNL     1       8.746  -0.207  -0.803  0.00  0.00    +0.007 A 
ATOM     12  C   UNL     1       9.988   0.065  -1.347  0.00  0.00    +0.000 A 
ATOM     13  C   UNL     1      10.156   0.075  -2.719  0.00  0.00    +0.001 A 
ATOM     14  C   UNL     1       9.083  -0.192  -3.548  0.00  0.00    +0.020 A 
ATOM     15  C   UNL     1       7.841  -0.469  -3.005  0.00  0.00    +0.047 A 
ATOM     16 CL   UNL     1       6.493  -0.803  -4.047  0.00  0.00    -0.083 Cl
ENDBRANCH   4  10
BRANCH   1  17
ATOM     17  C   UNL     1       3.851   1.913  -0.380  0.00  0.00    +0.213 C 
BRANCH  17  25
ATOM     18  C   UNL     1       0.148   0.002   0.061  0.00  0.00    +0.028 C 
ATOM     19  C   UNL     1       0.058   1.529   0.037  0.00  0.00    +0.073 C 
ATOM     20  C   UNL     1      -0.882   1.971  -1.089  0.00  0.00    +0.022 C 
ATOM     21  C   UNL     1      -0.860   3.497  -1.197  0.00  0.00    +0.003 C 
ATOM     22  C   UNL     1       0.557   3.966  -1.538  0.00  0.00    +0.019 C 
ATOM     23  C   UNL     1       1.513   3.546  -0.417  0.00  0.00    +0.108 C 
ATOM     24  N   UNL     1       1.390   2.097  -0.208  0.00  0.00    -0.297 N 
ATOM     25  C   UNL     1       2.479   1.304  -0.242  0.00  0.00    +0.234 C 
ATOM     26  O   UNL     1       2.356   0.100  -0.160  0.00  0.00    -0.274 OA
ENDBRANCH  17  25
ENDBRANCH   1  17
TORSDOF 3
