REMARK  Name = ZINC40124673
REMARK  7 active torsions:
REMARK  status: ('A' for Active; 'I' for Inactive)
REMARK    1  A    between atoms: C_1  and  C_2
REMARK    2  A    between atoms: C_2  and  C_3
REMARK    3  A    between atoms: C_2  and  C_4
REMARK    4  A    between atoms: C_2  and  C_5
REMARK    5  A    between atoms: C_8  and  C_11
REMARK    6  A    between atoms: C_13  and  C_19
REMARK    7  A    between atoms: C_19  and  C_21
REMARK                            x       y       z     vdW  Elec       q    Type
REMARK                         _______ _______ _______ _____ _____    ______ ____
ROOT
ATOM      1  C   UNL     1       2.678  -1.683  -4.575  0.00  0.00    +0.142 C 
ATOM      2  C   UNL     1       2.635  -0.815  -5.811  0.00  0.00    +0.079 C 
ATOM      3  C   UNL     1       3.915  -0.648  -6.215  0.00  0.00    +0.249 C 
ATOM      4  C   UNL     1       4.814  -1.372  -5.294  0.00  0.00    +0.285 C 
ATOM      5  O   UNL     1       6.025  -1.414  -5.390  0.00  0.00    -0.267 OA
ATOM      6  N   UNL     1       4.095  -1.981  -4.332  0.00  0.00    -0.298 N 
ATOM      7  O   UNL     1       4.310   0.070  -7.293  0.00  0.00    -0.282 OA
ATOM      8  H   UNL     1       4.449  -2.519  -3.607  0.00  0.00    +0.150 HD
ENDROOT
BRANCH   1  12
ATOM      9  C   UNL     1       1.030   0.421  -1.242  0.00  0.00    -0.042 A 
ATOM     10  C   UNL     1       0.335  -0.632  -1.807  0.00  0.00    +0.004 A 
ATOM     11  C   UNL     1       0.868  -1.313  -2.886  0.00  0.00    +0.006 A 
ATOM     12  C   UNL     1       2.096  -0.940  -3.400  0.00  0.00    -0.023 A 
ATOM     13  C   UNL     1       2.791   0.114  -2.835  0.00  0.00    +0.006 A 
ATOM     14  C   UNL     1       2.255   0.797  -1.760  0.00  0.00    +0.004 A 
BRANCH   9  16
ATOM     15  C   UNL     1       0.257   2.635  -0.437  0.00  0.00    +0.015 C 
ATOM     16  C   UNL     1       0.448   1.163  -0.067  0.00  0.00    -0.013 C 
ATOM     17  C   UNL     1       1.401   1.056   1.126  0.00  0.00    +0.015 C 
ATOM     18  C   UNL     1      -0.904   0.551   0.305  0.00  0.00    +0.015 C 
ENDBRANCH   9  16
ENDBRANCH   1  12
BRANCH   2  19
ATOM     19  C   UNL     1       1.436  -0.261  -6.450  0.00  0.00    +0.230 C 
ATOM     20  O   UNL     1       1.258   0.944  -6.470  0.00  0.00    -0.283 OA
BRANCH  19  21
ATOM     21  C   UNL     1       0.450  -1.160  -7.065  0.00  0.00    +0.176 A 
ATOM     22  C   UNL     1      -0.654  -0.759  -7.753  0.00  0.00    +0.061 A 
ATOM     23  C   UNL     1      -1.333  -1.981  -8.177  0.00  0.00    +0.021 A 
ATOM     24  C   UNL     1      -2.497  -2.247  -8.903  0.00  0.00    +0.011 A 
ATOM     25  C   UNL     1      -2.869  -3.541  -9.135  0.00  0.00    +0.001 A 
ATOM     26  C   UNL     1      -2.098  -4.592  -8.655  0.00  0.00    +0.004 A 
ATOM     27  C   UNL     1      -0.947  -4.351  -7.937  0.00  0.00    +0.047 A 
ATOM     28  C   UNL     1      -0.548  -3.043  -7.688  0.00  0.00    +0.136 A 
ATOM     29  O   UNL     1       0.504  -2.507  -7.038  0.00  0.00    -0.452 OA
ENDBRANCH  19  21
ENDBRANCH   2  19
TORSDOF 4
