REMARK  Name = ZINC36206836
REMARK  17 active torsions:
REMARK  status: ('A' for Active; 'I' for Inactive)
REMARK    1  A    between atoms: C_1  and  C_2
REMARK    2  A    between atoms: C_2  and  O_3
REMARK    3  A    between atoms: O_3  and  C_4
REMARK    4  A    between atoms: C_4  and  C_5
REMARK    5  A    between atoms: C_5  and  C_7
REMARK    6  A    between atoms: C_5  and  O_35
REMARK    7  A    between atoms: C_7  and  N_8
REMARK    8  A    between atoms: N_8  and  C_9
REMARK    9  A    between atoms: N_8  and  C_16
REMARK   10  A    between atoms: C_9  and  C_10
REMARK   11  A    between atoms: C_16  and  C_17
REMARK   12  A    between atoms: C_23  and  C_34
REMARK   13  A    between atoms: C_24  and  C_28
REMARK   14  A    between atoms: C_28  and  O_30
REMARK   15  A    between atoms: O_30  and  C_31
REMARK   16  A    between atoms: C_31  and  C_32
REMARK   17  A    between atoms: C_31  and  C_33
REMARK                            x       y       z     vdW  Elec       q    Type
REMARK                         _______ _______ _______ _____ _____    ______ ____
ROOT
ATOM      1  C   UNL     1      -4.415  -5.456  -0.188  0.00  0.00    -0.003 C 
ENDROOT
BRANCH   1   2
ATOM      2  C   UNL     1      -5.837  -5.891  -0.434  0.00  0.00    +0.094 A 
ATOM      3  N   UNL     1      -6.105  -7.212  -0.576  0.00  0.00    -0.312 N 
ATOM      4  H   UNL     1      -5.380  -7.853  -0.518  0.00  0.00    +0.170 HD
ATOM      5  C   UNL     1      -7.359  -7.653  -0.796  0.00  0.00    +0.260 A 
ATOM      6  O   UNL     1      -7.590  -8.842  -0.922  0.00  0.00    -0.267 OA
ATOM      7  C   UNL     1      -8.449  -6.654  -0.881  0.00  0.00    +0.076 A 
ATOM      8  C   UNL     1      -9.814  -6.854  -1.099  0.00  0.00    -0.015 A 
ATOM      9  C   UNL     1     -10.659  -5.782  -1.141  0.00  0.00    +0.102 A 
ATOM     10  S   UNL     1      -9.559  -4.402  -0.872  0.00  0.00    -0.062 S 
ATOM     11  C   UNL     1      -8.042  -5.310  -0.717  0.00  0.00    +0.116 A 
ATOM     12  N   UNL     1      -6.774  -4.985  -0.498  0.00  0.00    -0.229 NA
ATOM     13  C   UNL     1     -10.353  -8.249  -1.287  0.00  0.00    +0.046 C 
BRANCH   9  14
ATOM     14  C   UNL     1     -12.107  -5.769  -1.355  0.00  0.00    +0.346 C 
ATOM     15  O   UNL     1     -12.707  -6.813  -1.524  0.00  0.00    -0.244 OA
BRANCH  14  16
ATOM     16  O   UNL     1     -12.777  -4.598  -1.364  0.00  0.00    -0.458 OA
BRANCH  16  17
ATOM     17  C   UNL     1     -14.188  -4.659  -1.578  0.00  0.00    +0.171 C 
ATOM     18  C   UNL     1     -14.865  -3.491  -0.857  0.00  0.00    +0.052 C 
ATOM     19  C   UNL     1     -14.481  -4.571  -3.077  0.00  0.00    +0.052 C 
ENDBRANCH  16  17
ENDBRANCH  14  16
ENDBRANCH   9  14
ENDBRANCH   1   2
BRANCH   1  20
ATOM     20  N   UNL     1      -4.365  -3.993  -0.061  0.00  0.00    +0.389 N 
ATOM     21  H   UNL     1      -4.780  -3.570  -0.878  0.00  0.00    -0.081 HD
BRANCH  20  22
ATOM     22  C   UNL     1      -2.967  -3.559   0.058  0.00  0.00    -0.044 C 
BRANCH  22  23
ATOM     23  C   UNL     1      -2.879  -2.050  -0.180  0.00  0.00    +0.124 C 
BRANCH  23  24
ATOM     24  O   UNL     1      -3.531  -1.361   0.889  0.00  0.00    -0.391 OA
ATOM     25  H   UNL     1      -3.079  -1.436   1.740  0.00  0.00    +0.210 HD
ENDBRANCH  23  24
BRANCH  23  26
ATOM     26  C   UNL     1      -1.410  -1.627  -0.238  0.00  0.00    +0.189 C 
BRANCH  26  27
ATOM     27  O   UNL     1      -1.326  -0.241  -0.575  0.00  0.00    -0.378 OA
BRANCH  27  29
ATOM     28  C   UNL     1      -0.020   1.743  -1.021  0.00  0.00    +0.034 C 
ATOM     29  C   UNL     1       0.011   0.257  -0.656  0.00  0.00    +0.156 C 
ENDBRANCH  27  29
ENDBRANCH  26  27
ENDBRANCH  23  26
ENDBRANCH  22  23
ENDBRANCH  20  22
BRANCH  20  30
ATOM     30  C   UNL     1      -5.110  -3.580   1.135  0.00  0.00    -0.042 C 
BRANCH  30  31
ATOM     31  C   UNL     1      -4.576  -4.314   2.338  0.00  0.00    -0.064 A 
ATOM     32  C   UNL     1      -5.132  -5.523   2.712  0.00  0.00    +0.002 A 
ATOM     33  C   UNL     1      -4.642  -6.197   3.816  0.00  0.00    +0.000 A 
ATOM     34  C   UNL     1      -3.596  -5.662   4.544  0.00  0.00    +0.000 A 
ATOM     35  C   UNL     1      -3.040  -4.453   4.169  0.00  0.00    +0.000 A 
ATOM     36  C   UNL     1      -3.527  -3.781   3.063  0.00  0.00    +0.002 A 
ENDBRANCH  30  31
ENDBRANCH  20  30
ENDBRANCH   1  20
TORSDOF 13
