REMARK  Name = ZINC05018201
REMARK  8 active torsions:
REMARK  status: ('A' for Active; 'I' for Inactive)
REMARK    1  A    between atoms: C_1  and  C_2
REMARK    2  A    between atoms: C_5  and  C_8
REMARK    3  A    between atoms: C_10  and  C_23
REMARK    4  A    between atoms: C_11  and  C_16
REMARK    5  A    between atoms: C_16  and  N_52
REMARK    6  A    between atoms: C_17  and  N_52
REMARK    7  A    between atoms: C_23  and  O_25
REMARK    8  A    between atoms: O_25  and  C_26
REMARK                            x       y       z     vdW  Elec       q    Type
REMARK                         _______ _______ _______ _____ _____    ______ ____
ROOT
ATOM      1  C   UNL     1       1.220   3.440  -0.212  0.00  0.00    +0.143 C 
ATOM      2  C   UNL     1       1.210   1.928  -0.111  0.00  0.00    +0.076 C 
ATOM      3  C   UNL     1       2.391   1.304   0.093  0.00  0.00    +0.007 C 
ATOM      4  N   UNL     1       3.554   2.012   0.193  0.00  0.00    -0.274 N 
ATOM      5  C   UNL     1       3.620   3.347   0.112  0.00  0.00    +0.304 C 
ATOM      6  O   UNL     1       4.703   3.889   0.218  0.00  0.00    -0.252 OA
ATOM      7  N   UNL     1       2.526   4.109  -0.085  0.00  0.00    -0.288 N 
ATOM      8  H   UNL     1       4.378   1.521   0.335  0.00  0.00    +0.156 HD
ATOM      9  H   UNL     1       2.597   5.075  -0.141  0.00  0.00    +0.151 HD
ENDROOT
BRANCH   1  14
ATOM     10  C   UNL     1      -2.258   5.521   3.906  0.00  0.00    +0.044 C 
ATOM     11  C   UNL     1      -1.351   4.979   2.832  0.00  0.00    -0.050 A 
ATOM     12  C   UNL     1      -1.804   4.880   1.530  0.00  0.00    +0.004 A 
ATOM     13  C   UNL     1      -0.972   4.382   0.545  0.00  0.00    +0.006 A 
ATOM     14  C   UNL     1       0.313   3.983   0.862  0.00  0.00    -0.022 A 
ATOM     15  C   UNL     1       0.764   4.077   2.165  0.00  0.00    +0.006 A 
ATOM     16  C   UNL     1      -0.066   4.580   3.149  0.00  0.00    +0.004 A 
ENDBRANCH   1  14
BRANCH   2  17
ATOM     17  C   UNL     1       0.005   1.196  -0.222  0.00  0.00    +0.338 C 
ATOM     18  O   UNL     1      -0.478   0.981  -1.317  0.00  0.00    -0.245 OA
BRANCH  17  19
ATOM     19  O   UNL     1      -0.611   0.740   0.889  0.00  0.00    -0.465 OA
ATOM     20  C   UNL     1      -1.827   0.013   0.704  0.00  0.00    +0.280 C 
ENDBRANCH  17  19
ENDBRANCH   2  17
BRANCH   3  21
ATOM     21  C   UNL     1       2.425  -0.198   0.205  0.00  0.00    -0.030 C 
BRANCH  21  22
ATOM     22  N   UNL     1       3.178  -0.751  -0.937  0.00  0.00    +0.384 N 
ATOM     23  H   UNL     1       4.134  -0.379  -0.924  0.00  0.00    -0.085 HD
ATOM     24  H   UNL     1       2.715  -0.478  -1.812  0.00  0.00    -0.085 HD
BRANCH  22  25
ATOM     25  C   UNL     1       3.228  -2.223  -0.853  0.00  0.00    -0.071 C 
ATOM     26  C   UNL     1       4.396  -2.644   0.041  0.00  0.00    -0.016 C 
ATOM     27  C   UNL     1       4.452  -4.171   0.121  0.00  0.00    -0.002 C 
ATOM     28  C   UNL     1       4.650  -4.748  -1.283  0.00  0.00    -0.000 C 
ATOM     29  C   UNL     1       3.482  -4.327  -2.176  0.00  0.00    -0.002 C 
ATOM     30  C   UNL     1       3.425  -2.800  -2.256  0.00  0.00    -0.016 C 
ENDBRANCH  22  25
ENDBRANCH  21  22
ENDBRANCH   3  21
TORSDOF 6
