REMARK  Name = ZINC09491467
REMARK  7 active torsions:
REMARK  status: ('A' for Active; 'I' for Inactive)
REMARK    1  A    between atoms: C_7  and  C_11
REMARK    2  A    between atoms: C_11  and  C_13
REMARK    3  A    between atoms: C_11  and  C_26
REMARK    4  A    between atoms: C_13  and  N_14
REMARK    5  A    between atoms: C_15  and  C_17
REMARK    6  A    between atoms: C_17  and  N_18
REMARK    7  A    between atoms: C_19  and  C_21
REMARK                            x       y       z     vdW  Elec       q    Type
REMARK                         _______ _______ _______ _____ _____    ______ ____
ROOT
ATOM      1  C   UNL     1       2.452   3.936   0.000  0.00  0.00    +0.069 C 
ENDROOT
BRANCH   1   8
ATOM      2  C   UNL     1       4.039   6.476  -3.606  0.00  0.00    +0.001 A 
ATOM      3  C   UNL     1       4.728   5.715  -4.541  0.00  0.00    +0.002 A 
ATOM      4  C   UNL     1       4.889   4.359  -4.363  0.00  0.00    +0.026 A 
ATOM      5  C   UNL     1       4.358   3.742  -3.234  0.00  0.00    +0.047 A 
ATOM      6  C   UNL     1       3.661   4.517  -2.290  0.00  0.00    +0.003 A 
ATOM      7  C   UNL     1       3.509   5.891  -2.491  0.00  0.00    +0.010 A 
ATOM      8  C   UNL     1       3.236   3.589  -1.239  0.00  0.00    -0.013 A 
ATOM      9  C   UNL     1       3.681   2.372  -1.587  0.00  0.00    +0.088 A 
ATOM     10  N   UNL     1       4.349   2.443  -2.780  0.00  0.00    -0.360 N 
ATOM     11  H   UNL     1       4.759   1.690  -3.235  0.00  0.00    +0.165 HD
ENDBRANCH   1   8
BRANCH   1  12
ATOM     12  C   UNL     1       1.157   3.165   0.008  0.00  0.00    -0.020 A 
ATOM     13  C   UNL     1       1.175   1.783   0.000  0.00  0.00    +0.006 A 
ATOM     14  C   UNL     1      -0.013   1.076   0.008  0.00  0.00    +0.000 A 
ATOM     15  C   UNL     1      -1.219   1.750   0.017  0.00  0.00    +0.001 A 
ATOM     16  C   UNL     1      -1.239   3.132   0.031  0.00  0.00    +0.020 A 
ATOM     17  C   UNL     1      -0.050   3.841   0.023  0.00  0.00    +0.045 A 
ATOM     18 CL   UNL     1      -0.074   5.576   0.032  0.00  0.00    -0.083 Cl
ENDBRANCH   1  12
BRANCH   1  19
ATOM     19  C   UNL     1       3.271   3.570   1.240  0.00  0.00    +0.117 C 
BRANCH  19  20
ATOM     20  N   UNL     1       2.562   4.016   2.442  0.00  0.00    -0.313 N 
ATOM     21  C   UNL     1       3.097   3.799   3.660  0.00  0.00    +0.230 C 
ATOM     22  O   UNL     1       4.167   3.236   3.760  0.00  0.00    -0.274 OA
ATOM     23  H   UNL     1       1.706   4.466   2.362  0.00  0.00    +0.149 HD
BRANCH  21  24
ATOM     24  C   UNL     1       2.368   4.258   4.896  0.00  0.00    +0.200 C 
BRANCH  24  25
ATOM     25  N   UNL     1       3.152   3.907   6.083  0.00  0.00    -0.300 N 
ATOM     26  C   UNL     1       2.692   4.221   7.311  0.00  0.00    +0.280 C 
ATOM     27  O   UNL     1       1.627   4.796   7.433  0.00  0.00    -0.267 OA
ATOM     28  H   UNL     1       4.001   3.450   5.986  0.00  0.00    +0.150 HD
BRANCH  26  29
ATOM     29  C   UNL     1       3.477   3.871   8.499  0.00  0.00    +0.189 A 
ATOM     30  C   UNL     1       3.130   4.129   9.795  0.00  0.00    +0.054 A 
ATOM     31  C   UNL     1       4.164   3.623  10.598  0.00  0.00    +0.042 A 
ATOM     32  C   UNL     1       5.085   3.086   9.768  0.00  0.00    +0.196 A 
ATOM     33  O   UNL     1       4.665   3.232   8.505  0.00  0.00    -0.458 OA
ENDBRANCH  26  29
ENDBRANCH  24  25
ENDBRANCH  21  24
ENDBRANCH  19  20
ENDBRANCH   1  19
TORSDOF 7
