REMARK  Name = ZINC44852249
REMARK  8 active torsions:
REMARK  status: ('A' for Active; 'I' for Inactive)
REMARK    1  A    between atoms: C_1  and  C_2
REMARK    2  A    between atoms: C_2  and  C_4
REMARK    3  A    between atoms: C_2  and  C_15
REMARK    4  A    between atoms: C_4  and  C_5
REMARK    5  A    between atoms: C_15  and  N_16
REMARK    6  A    between atoms: C_17  and  C_19
REMARK    7  A    between atoms: N_24  and  C_26
REMARK    8  A    between atoms: C_26  and  C_27
REMARK                            x       y       z     vdW  Elec       q    Type
REMARK                         _______ _______ _______ _____ _____    ______ ____
ROOT
ATOM      1  N   UNL     1      -0.008  -0.140   2.444  0.00  0.00    -0.315 N 
ATOM      2  C   UNL     1       0.457  -0.484   3.661  0.00  0.00    +0.214 C 
ATOM      3  O   UNL     1       1.496  -1.101   3.761  0.00  0.00    -0.276 OA
ATOM      4  H   UNL     1      -0.840   0.353   2.364  0.00  0.00    +0.149 HD
ENDROOT
BRANCH   2   5
ATOM      5  C   UNL     1      -0.315  -0.103   4.898  0.00  0.00    +0.058 C 
ATOM      6  C   UNL     1      -0.444   1.422   4.971  0.00  0.00    +0.009 C 
ATOM      7  C   UNL     1      -1.161   1.802   6.269  0.00  0.00    -0.018 C 
ATOM      8  C   UNL     1      -0.388   1.228   7.459  0.00  0.00    -0.078 C 
ATOM      9  N   UNL     1      -0.323  -0.234   7.345  0.00  0.00    +0.383 N 
ATOM     10  C   UNL     1       0.425  -0.607   6.138  0.00  0.00    -0.066 C 
ATOM     11  H   UNL     1      -1.258  -0.608   7.288  0.00  0.00    -0.081 HD
BRANCH   9  12
ATOM     12  C   UNL     1       0.351  -0.786   8.528  0.00  0.00    -0.039 C 
BRANCH  12  13
ATOM     13  C   UNL     1      -0.484  -0.518   9.753  0.00  0.00    -0.010 A 
ATOM     14  C   UNL     1      -0.301   0.649  10.474  0.00  0.00    +0.126 A 
ATOM     15  C   UNL     1      -1.069   0.894  11.600  0.00  0.00    +0.038 A 
ATOM     16  C   UNL     1      -2.018  -0.027  12.003  0.00  0.00    +0.004 A 
ATOM     17  C   UNL     1      -2.201  -1.192  11.283  0.00  0.00    +0.020 A 
ATOM     18  C   UNL     1      -1.438  -1.436  10.154  0.00  0.00    +0.045 A 
ATOM     19 CL   UNL     1      -1.673  -2.897   9.246  0.00  0.00    -0.083 Cl
ATOM     20  F   UNL     1       0.626   1.549  10.080  0.00  0.00    -0.205 F 
ENDBRANCH  12  13
ENDBRANCH   9  12
ENDBRANCH   2   5
BRANCH   1  21
ATOM     21  C   UNL     1       0.742  -0.511   1.242  0.00  0.00    +0.107 C 
BRANCH  21  23
ATOM     22  C   UNL     1      -0.019   1.526   0.010  0.00  0.00    +0.009 C 
ATOM     23  C   UNL     1       0.002  -0.004   0.002  0.00  0.00    +0.007 C 
BRANCH  23  24
ATOM     24  C   UNL     1       0.718  -0.497  -1.257  0.00  0.00    +0.040 C 
BRANCH  24  25
ATOM     25  C   UNL     1      -0.077  -0.103  -2.474  0.00  0.00    -0.039 A 
ATOM     26  C   UNL     1      -0.964  -0.977  -3.025  0.00  0.00    +0.004 A 
ATOM     27  C   UNL     1      -1.708  -0.629  -4.151  0.00  0.00    +0.001 A 
ATOM     28  C   UNL     1      -1.569   0.593  -4.733  0.00  0.00    +0.008 A 
ATOM     29  C   UNL     1      -0.664   1.522  -4.193  0.00  0.00    -0.018 A 
ATOM     30  C   UNL     1       0.089   1.171  -3.044  0.00  0.00    -0.015 A 
ATOM     31  C   UNL     1       0.991   2.102  -2.501  0.00  0.00    +0.009 A 
ATOM     32  C   UNL     1       1.125   3.326  -3.079  0.00  0.00    +0.001 A 
ATOM     33  C   UNL     1       0.380   3.673  -4.205  0.00  0.00    +0.001 A 
ATOM     34  C   UNL     1      -0.493   2.793  -4.767  0.00  0.00    +0.008 A 
ENDBRANCH  24  25
ENDBRANCH  23  24
ENDBRANCH  21  23
ENDBRANCH   1  21
TORSDOF 7
