REMARK  Name = ZINC16488147
REMARK  8 active torsions:
REMARK  status: ('A' for Active; 'I' for Inactive)
REMARK    1  A    between atoms: C_4  and  N_7
REMARK    2  A    between atoms: N_7  and  N_8
REMARK    3  A    between atoms: C_10  and  C_24
REMARK    4  A    between atoms: N_16  and  N_17
REMARK    5  A    between atoms: N_17  and  C_18
REMARK    6  A    between atoms: C_24  and  C_26
REMARK    7  A    between atoms: C_24  and  O_28
REMARK    8  A    between atoms: C_26  and  O_27
REMARK                            x       y       z     vdW  Elec       q    Type
REMARK                         _______ _______ _______ _____ _____    ______ ____
ROOT
ATOM      1  N   UNL     1       3.639  -2.048  -0.044  0.00  0.00    -0.181 NA
ATOM      2  C   UNL     1       4.775  -2.681  -0.059  0.00  0.00    +0.136 C 
ATOM      3  C   UNL     1       6.165  -2.084  -0.063  0.00  0.00    +0.260 C 
ATOM      4  O   UNL     1       7.089  -3.171  -0.081  0.00  0.00    -0.448 OA
ATOM      5  C   UNL     1       6.448  -4.348  -0.088  0.00  0.00    +0.362 C 
ATOM      6  O   UNL     1       6.994  -5.434  -0.103  0.00  0.00    -0.243 OA
ATOM      7  C   UNL     1       4.992  -4.143  -0.069  0.00  0.00    +0.192 C 
ATOM      8  N   UNL     1       4.066  -5.076  -0.063  0.00  0.00    -0.173 NA
ENDROOT
BRANCH   1   9
ATOM      9  N   UNL     1       3.619  -0.647  -0.036  0.00  0.00    -0.237 N 
ATOM     10  H   UNL     1       4.451  -0.150  -0.042  0.00  0.00    +0.174 HD
BRANCH   9  14
ATOM     11  C   UNL     1      -0.017   1.379   0.010  0.00  0.00    +0.000 A 
ATOM     12  C   UNL     1       1.169   2.090   0.002  0.00  0.00    +0.002 A 
ATOM     13  C   UNL     1       2.377   1.421  -0.013  0.00  0.00    +0.025 A 
ATOM     14  C   UNL     1       2.400   0.032  -0.021  0.00  0.00    +0.048 A 
ATOM     15  C   UNL     1       1.206  -0.680  -0.013  0.00  0.00    +0.025 A 
ATOM     16  C   UNL     1       0.002  -0.004   0.002  0.00  0.00    +0.002 A 
ENDBRANCH   9  14
ENDBRANCH   1   9
BRANCH   8  17
ATOM     17  N   UNL     1       4.433  -6.428  -0.074  0.00  0.00    -0.237 N 
ATOM     18  H   UNL     1       5.371  -6.676  -0.085  0.00  0.00    +0.174 HD
BRANCH  17  19
ATOM     19  C   UNL     1       3.451  -7.418  -0.069  0.00  0.00    +0.048 A 
ATOM     20  C   UNL     1       2.106  -7.065  -0.059  0.00  0.00    +0.025 A 
ATOM     21  C   UNL     1       1.136  -8.048  -0.054  0.00  0.00    +0.002 A 
ATOM     22  C   UNL     1       1.501  -9.382  -0.059  0.00  0.00    +0.000 A 
ATOM     23  C   UNL     1       2.838  -9.737  -0.068  0.00  0.00    +0.002 A 
ATOM     24  C   UNL     1       3.813  -8.760  -0.079  0.00  0.00    +0.025 A 
ENDBRANCH  17  19
ENDBRANCH   8  17
BRANCH   3  25
ATOM     25  C   UNL     1       6.372  -1.238   1.195  0.00  0.00    +0.187 C 
BRANCH  25  26
ATOM     26  O   UNL     1       6.103  -2.033   2.352  0.00  0.00    -0.385 OA
ATOM     27  H   UNL     1       6.670  -2.812   2.435  0.00  0.00    +0.210 HD
ENDBRANCH  25  26
BRANCH  25  28
ATOM     28  C   UNL     1       7.819  -0.742   1.242  0.00  0.00    +0.191 C 
BRANCH  28  29
ATOM     29  O   UNL     1       7.982   0.142   2.354  0.00  0.00    -0.392 OA
ATOM     30  H   UNL     1       8.877   0.496   2.446  0.00  0.00    +0.210 HD
ENDBRANCH  28  29
ENDBRANCH  25  28
ENDBRANCH   3  25
TORSDOF 8
