REMARK  Name = ZINC12756834
REMARK  9 active torsions:
REMARK  status: ('A' for Active; 'I' for Inactive)
REMARK    1  A    between atoms: C_1  and  C_2
REMARK    2  A    between atoms: C_7  and  C_9
REMARK    3  A    between atoms: C_7  and  C_27
REMARK    4  A    between atoms: C_7  and  N_63
REMARK    5  A    between atoms: C_9  and  N_10
REMARK    6  A    between atoms: C_11  and  C_13
REMARK    7  A    between atoms: C_13  and  O_14
REMARK    8  A    between atoms: O_14  and  C_15
REMARK    9  A    between atoms: C_18  and  C_21
REMARK                            x       y       z     vdW  Elec       q    Type
REMARK                         _______ _______ _______ _____ _____    ______ ____
ROOT
ATOM      1  N   UNL     1      -2.545   3.705  -1.497  0.00  0.00    -0.314 N 
ATOM      2  C   UNL     1      -2.971   4.175  -2.686  0.00  0.00    +0.251 C 
ATOM      3  O   UNL     1      -2.417   3.828  -3.708  0.00  0.00    -0.272 OA
ATOM      4  H   UNL     1      -2.988   3.982  -0.679  0.00  0.00    +0.149 HD
ENDROOT
BRANCH   1   5
ATOM      5  C   UNL     1      -1.414   2.776  -1.439  0.00  0.00    +0.094 C 
BRANCH   5   6
ATOM      6  C   UNL     1      -1.210   2.310   0.004  0.00  0.00    -0.013 C 
BRANCH   6  13
ATOM      7  C   UNL     1      -5.637  -0.652   2.078  0.00  0.00    +0.007 C 
ATOM      8  C   UNL     1      -4.252  -0.262   1.559  0.00  0.00    -0.018 C 
ATOM      9  C   UNL     1      -3.659   0.831   2.453  0.00  0.00    -0.015 C 
ATOM     10  C   UNL     1      -2.301   1.260   1.893  0.00  0.00    -0.078 C 
ATOM     11  C   UNL     1      -2.994   0.714  -0.364  0.00  0.00    -0.078 C 
ATOM     12  C   UNL     1      -4.373   0.269   0.128  0.00  0.00    -0.015 C 
ATOM     13  N   UNL     1      -2.490   1.784   0.524  0.00  0.00    +0.386 N 
ATOM     14  H   UNL     1      -3.177   2.546   0.550  0.00  0.00    -0.081 HD
ENDBRANCH   6  13
BRANCH   6  15
ATOM     15  C   UNL     1      -0.784   3.478   0.855  0.00  0.00    -0.022 A 
ATOM     16  C   UNL     1       0.459   3.820   1.274  0.00  0.00    +0.009 A 
ATOM     17  C   UNL     1       0.617   4.952   2.052  0.00  0.00    +0.008 A 
ATOM     18  C   UNL     1      -0.476   5.687   2.372  0.00  0.00    +0.045 A 
ATOM     19  S   UNL     1      -1.783   4.777   1.564  0.00  0.00    -0.103 S 
ENDBRANCH   6  15
ENDBRANCH   5   6
ENDBRANCH   1   5
BRANCH   2  20
ATOM     20  C   UNL     1      -4.135   5.130  -2.746  0.00  0.00    +0.324 C 
BRANCH  20  21
ATOM     21  O   UNL     1      -4.393   5.481  -4.107  0.00  0.00    -0.483 OA
BRANCH  21  22
ATOM     22  C   UNL     1      -5.419   6.342  -4.338  0.00  0.00    +0.121 A 
ATOM     23  C   UNL     1      -6.165   6.834  -3.277  0.00  0.00    +0.046 A 
ATOM     24  C   UNL     1      -7.204   7.714  -3.514  0.00  0.00    +0.009 A 
ATOM     25  C   UNL     1      -7.508   8.094  -4.808  0.00  0.00    -0.024 A 
ATOM     26  C   UNL     1      -6.769   7.601  -5.868  0.00  0.00    +0.009 A 
ATOM     27  C   UNL     1      -5.726   6.725  -5.636  0.00  0.00    +0.046 A 
BRANCH  25  28
ATOM     28  C   UNL     1      -8.645   9.049  -5.064  0.00  0.00    +0.133 C 
ATOM     29  S   UNL     1      -8.335  10.613  -4.194  0.00  0.00    -0.142 S 
ATOM     30  C   UNL     1      -9.836  11.582  -4.503  0.00  0.00    +0.071 C 
ATOM     31  C   UNL     1     -11.046  10.877  -3.901  0.00  0.00    +0.021 C 
ATOM     32  C   UNL     1     -11.416   9.642  -4.715  0.00  0.00    +0.071 C 
ATOM     33  S   UNL     1     -10.194   8.330  -4.445  0.00  0.00    -0.142 S 
ENDBRANCH  25  28
ENDBRANCH  21  22
ENDBRANCH  20  21
ENDBRANCH   2  20
TORSDOF 8
