REMARK  Name = ZINC64714115
REMARK  6 active torsions:
REMARK  status: ('A' for Active; 'I' for Inactive)
REMARK    1  A    between atoms: C_1  and  C_2
REMARK    2  A    between atoms: C_3  and  C_14
REMARK    3  A    between atoms: C_5  and  C_7
REMARK    4  A    between atoms: C_14  and  S_15
REMARK    5  A    between atoms: S_15  and  C_16
REMARK    6  A    between atoms: C_26  and  C_29
REMARK                            x       y       z     vdW  Elec       q    Type
REMARK                         _______ _______ _______ _____ _____    ______ ____
ROOT
ATOM      1  C   UNL     1      -4.780   0.423  -1.402  0.00  0.00    +0.269 C 
ATOM      2  N   UNL     1      -4.723   1.717  -0.700  0.00  0.00    -0.163 NA
ATOM      3  N   UNL     1      -4.794   1.827   0.525  0.00  0.00    -0.081 NA
ATOM      4  C   UNL     1      -4.901   0.774   1.373  0.00  0.00    +0.272 C 
ATOM      5  O   UNL     1      -5.070   0.930   2.559  0.00  0.00    -0.270 OA
ATOM      6  C   UNL     1      -4.801  -0.595   0.764  0.00  0.00    +0.167 C 
ATOM      7  N   UNL     1      -5.505  -0.499  -0.551  0.00  0.00    -0.196 NA
ATOM      8  N   UNL     1      -5.737  -1.856  -0.964  0.00  0.00    -0.243 NA
ATOM      9  C   UNL     1      -5.929  -2.654   0.279  0.00  0.00    +0.108 C 
ATOM     10  C   UNL     1      -5.633  -1.676   1.473  0.00  0.00    +0.055 C 
ATOM     11  H   UNL     1      -6.547  -1.919  -1.562  0.00  0.00    +0.142 HD
ENDROOT
BRANCH   9  12
ATOM     12  C   UNL     1      -7.342  -3.174   0.350  0.00  0.00    +0.008 A 
ATOM     13  C   UNL     1      -7.788  -4.375   0.794  0.00  0.00    +0.013 A 
ATOM     14  C   UNL     1      -9.145  -4.637   0.767  0.00  0.00    +0.008 A 
ATOM     15  C   UNL     1      -9.989  -3.686   0.298  0.00  0.00    +0.045 A 
ATOM     16  S   UNL     1      -8.863  -2.366  -0.120  0.00  0.00    -0.100 S 
ENDBRANCH   9  12
BRANCH   1  17
ATOM     17  S   UNL     1      -3.101  -0.196  -1.694  0.00  0.00    -0.110 S 
BRANCH  17  18
ATOM     18  C   UNL     1      -2.509   0.784  -3.101  0.00  0.00    +0.131 C 
BRANCH  18  21
ATOM     19  C   UNL     1      -1.781  -1.461  -5.151  0.00  0.00    +0.088 C 
ATOM     20  C   UNL     1      -0.808  -0.628  -4.358  0.00  0.00    +0.127 A 
ATOM     21  C   UNL     1      -1.119   0.338  -3.475  0.00  0.00    +0.093 A 
ATOM     22  N   UNL     1       0.028   0.835  -2.987  0.00  0.00    -0.213 NA
ATOM     23  C   UNL     1       1.031   0.200  -3.546  0.00  0.00    +0.228 A 
ATOM     24  O   UNL     1       0.537  -0.716  -4.397  0.00  0.00    -0.440 OA
BRANCH  23  25
ATOM     25  C   UNL     1       2.464   0.448  -3.282  0.00  0.00    +0.037 A 
ATOM     26  C   UNL     1       2.848   1.426  -2.363  0.00  0.00    +0.014 A 
ATOM     27  C   UNL     1       4.187   1.652  -2.120  0.00  0.00    +0.021 A 
ATOM     28  C   UNL     1       5.149   0.912  -2.787  0.00  0.00    +0.041 A 
ATOM     29  C   UNL     1       4.774  -0.060  -3.699  0.00  0.00    +0.021 A 
ATOM     30  C   UNL     1       3.438  -0.300  -3.946  0.00  0.00    +0.014 A 
ATOM     31 CL   UNL     1       6.832   1.203  -2.477  0.00  0.00    -0.084 Cl
ENDBRANCH  23  25
ENDBRANCH  18  21
ENDBRANCH  17  18
ENDBRANCH   1  17
TORSDOF 5
