REMARK  Name = ZINC18062322
REMARK  5 active torsions:
REMARK  status: ('A' for Active; 'I' for Inactive)
REMARK    1  A    between atoms: C_4  and  C_7
REMARK    2  A    between atoms: C_7  and  O_8
REMARK    3  A    between atoms: O_8  and  C_9
REMARK    4  A    between atoms: C_9  and  C_11
REMARK    5  A    between atoms: N_20  and  C_23
REMARK                            x       y       z     vdW  Elec       q    Type
REMARK                         _______ _______ _______ _____ _____    ______ ____
ROOT
ATOM      1  C   UNL     1       5.973  -2.091   2.550  0.00  0.00    +0.157 C 
ATOM      2  N   UNL     1       5.254  -1.592   3.504  0.00  0.00    -0.183 NA
ATOM      3  N   UNL     1       5.705  -1.731   4.690  0.00  0.00    -0.255 N 
ATOM      4  C   UNL     1       6.987  -2.454   4.676  0.00  0.00    +0.194 C 
ATOM      5  C   UNL     1       7.202  -2.733   3.162  0.00  0.00    +0.164 C 
ATOM      6  C   UNL     1       8.422  -1.905   2.828  0.00  0.00    +0.238 C 
ATOM      7  O   UNL     1       8.938  -1.828   1.733  0.00  0.00    -0.274 OA
ATOM      8  N   UNL     1       8.843  -1.270   3.927  0.00  0.00    -0.208 N 
ATOM      9  C   UNL     1       8.106  -1.506   5.042  0.00  0.00    +0.249 C 
ATOM     10  O   UNL     1       8.303  -1.048   6.148  0.00  0.00    -0.273 OA
ATOM     11  H   UNL     1       5.264  -1.405   5.490  0.00  0.00    +0.169 HD
ENDROOT
BRANCH   8  12
ATOM     12  C   UNL     1       9.961  -0.424   3.932  0.00  0.00    +0.047 A 
ATOM     13  C   UNL     1      11.104  -0.787   4.631  0.00  0.00    +0.044 A 
ATOM     14  C   UNL     1      12.206   0.049   4.635  0.00  0.00    +0.044 A 
ATOM     15  C   UNL     1      12.169   1.247   3.942  0.00  0.00    +0.040 A 
ATOM     16  C   UNL     1      11.031   1.611   3.245  0.00  0.00    +0.044 A 
ATOM     17  C   UNL     1       9.929   0.775   3.234  0.00  0.00    +0.044 A 
ATOM     18 CL   UNL     1      10.989   3.114   2.377  0.00  0.00    -0.083 Cl
ATOM     19 CL   UNL     1      13.635  -0.404   5.509  0.00  0.00    -0.083 Cl
ENDBRANCH   8  12
BRANCH   1  20
ATOM     20  C   UNL     1       5.650  -2.048   1.125  0.00  0.00    +0.356 C 
ATOM     21  O   UNL     1       6.402  -2.558   0.316  0.00  0.00    -0.244 OA
BRANCH  20  22
ATOM     22  O   UNL     1       4.519  -1.442   0.707  0.00  0.00    -0.456 OA
BRANCH  22  23
ATOM     23  C   UNL     1       4.267  -1.438  -0.700  0.00  0.00    +0.268 C 
BRANCH  23  27
ATOM     24  C   UNL     1       0.589   0.587  -1.483  0.00  0.00    +0.000 A 
ATOM     25  C   UNL     1       1.776   1.295  -1.458  0.00  0.00    +0.000 A 
ATOM     26  C   UNL     1       2.966   0.640  -1.204  0.00  0.00    +0.007 A 
ATOM     27  C   UNL     1       2.969  -0.723  -0.975  0.00  0.00    -0.010 A 
ATOM     28  C   UNL     1       1.782  -1.431  -0.999  0.00  0.00    +0.007 A 
ATOM     29  C   UNL     1       0.592  -0.776  -1.254  0.00  0.00    +0.000 A 
ENDBRANCH  23  27
ENDBRANCH  22  23
ENDBRANCH  20  22
ENDBRANCH   1  20
TORSDOF 5
