REMARK  Name = ZINC39481230
REMARK  9 active torsions:
REMARK  status: ('A' for Active; 'I' for Inactive)
REMARK    1  A    between atoms: C_1  and  C_2
REMARK    2  A    between atoms: C_2  and  C_3
REMARK    3  A    between atoms: C_6  and  N_25
REMARK    4  A    between atoms: C_7  and  N_9
REMARK    5  A    between atoms: C_13  and  S_16
REMARK    6  A    between atoms: S_16  and  C_19
REMARK    7  A    between atoms: N_25  and  S_26
REMARK    8  A    between atoms: S_26  and  C_29
REMARK    9  A    between atoms: C_34  and  O_35
REMARK                            x       y       z     vdW  Elec       q    Type
REMARK                         _______ _______ _______ _____ _____    ______ ____
ROOT
ATOM      1  C   UNL     1      -2.147   0.493  -0.226  0.00  0.00    -0.046 A 
ATOM      2  C   UNL     1      -2.571   0.063   1.017  0.00  0.00    +0.005 A 
ATOM      3  C   UNL     1      -3.716  -0.703   1.134  0.00  0.00    +0.026 A 
ATOM      4  C   UNL     1      -4.443  -1.041   0.003  0.00  0.00    +0.069 A 
ATOM      5  C   UNL     1      -4.015  -0.606  -1.252  0.00  0.00    +0.053 A 
ATOM      6  C   UNL     1      -2.868   0.165  -1.359  0.00  0.00    +0.028 A 
ENDROOT
BRANCH   5   7
ATOM      7  N   UNL     1      -4.744  -0.945  -2.398  0.00  0.00    -0.324 N 
ATOM      8  C   UNL     1      -5.822  -0.074  -2.891  0.00  0.00    +0.120 C 
ATOM      9  C   UNL     1      -5.586   0.197  -4.381  0.00  0.00    +0.101 C 
ATOM     10  N   UNL     1      -5.445  -1.081  -5.092  0.00  0.00    -0.292 NA
ATOM     11  C   UNL     1      -4.269  -1.826  -4.621  0.00  0.00    +0.220 C 
ATOM     12  C   UNL     1      -4.447  -2.177  -3.145  0.00  0.00    +0.147 C 
ATOM     13  H   UNL     1      -6.283  -1.637  -5.006  0.00  0.00    +0.124 HD
BRANCH  11  14
ATOM     14  S   UNL     1      -4.089  -3.349  -5.590  0.00  0.00    +0.014 S 
ATOM     15  O   UNL     1      -2.862  -3.990  -5.271  0.00  0.00    -0.168 OA
ATOM     16  O   UNL     1      -5.309  -4.077  -5.588  0.00  0.00    -0.168 OA
BRANCH  14  17
ATOM     17  C   UNL     1      -3.893  -2.805  -7.255  0.00  0.00    +0.090 A 
ATOM     18  C   UNL     1      -5.003  -2.629  -8.060  0.00  0.00    +0.027 A 
ATOM     19  C   UNL     1      -4.849  -2.202  -9.366  0.00  0.00    +0.002 A 
ATOM     20  C   UNL     1      -3.585  -1.952  -9.867  0.00  0.00    +0.000 A 
ATOM     21  C   UNL     1      -2.475  -2.127  -9.062  0.00  0.00    +0.002 A 
ATOM     22  C   UNL     1      -2.630  -2.550  -7.754  0.00  0.00    +0.027 A 
ENDBRANCH  14  17
ENDBRANCH  11  14
ENDBRANCH   5   7
BRANCH   1  24
ATOM     23  C   UNL     1      -1.261   2.810  -0.234  0.00  0.00    +0.009 C 
ATOM     24  C   UNL     1      -0.897   1.328  -0.346  0.00  0.00    +0.032 C 
ENDBRANCH   1  24
BRANCH   4  25
ATOM     25  N   UNL     1      -5.603  -1.817   0.119  0.00  0.00    -0.214 N 
ATOM     26  H   UNL     1      -5.826  -2.462  -0.570  0.00  0.00    +0.174 HD
BRANCH  25  27
ATOM     27  S   UNL     1      -6.593  -1.633   1.433  0.00  0.00    +0.076 S 
ATOM     28  O   UNL     1      -6.769  -0.235   1.618  0.00  0.00    -0.150 OA
ATOM     29  O   UNL     1      -7.687  -2.521   1.244  0.00  0.00    -0.150 OA
BRANCH  27  30
ATOM     30  C   UNL     1      -5.707  -2.219   2.839  0.00  0.00    +0.150 A 
ATOM     31  C   UNL     1      -5.383  -1.351   3.864  0.00  0.00    +0.032 A 
ATOM     32  C   UNL     1      -4.688  -1.809   4.967  0.00  0.00    +0.002 A 
ATOM     33  C   UNL     1      -4.314  -3.138   5.048  0.00  0.00    +0.004 A 
ATOM     34  C   UNL     1      -4.636  -4.011   4.027  0.00  0.00    +0.047 A 
ATOM     35  C   UNL     1      -5.338  -3.554   2.921  0.00  0.00    +0.143 A 
BRANCH  35  36
ATOM     36  O   UNL     1      -5.661  -4.412   1.917  0.00  0.00    -0.505 OA
ATOM     37  H   UNL     1      -4.984  -4.486   1.231  0.00  0.00    +0.292 HD
ENDBRANCH  35  36
ENDBRANCH  27  30
ENDBRANCH  25  27
ENDBRANCH   4  25
TORSDOF 8
