REMARK  Name = ZINC20220455
REMARK  5 active torsions:
REMARK  status: ('A' for Active; 'I' for Inactive)
REMARK    1  A    between atoms: C_1  and  O_2
REMARK    2  A    between atoms: O_2  and  C_3
REMARK    3  A    between atoms: C_3  and  C_5
REMARK    4  A    between atoms: C_9  and  C_10
REMARK    5  A    between atoms: C_26  and  C_28
REMARK                            x       y       z     vdW  Elec       q    Type
REMARK                         _______ _______ _______ _____ _____    ______ ____
ROOT
ATOM      1  C   UNL     1       3.209   3.645   1.287  0.00  0.00    +0.110 C 
ATOM      2  C   UNL     1       4.513   3.233   1.176  0.00  0.00    +0.224 A 
ATOM      3  N   UNL     1       5.003   2.749   0.001  0.00  0.00    -0.242 N 
ATOM      4  C   UNL     1       6.353   2.413   0.210  0.00  0.00    +0.138 A 
ATOM      5  C   UNL     1       7.221   1.896  -0.696  0.00  0.00    +0.044 C 
ATOM      6  C   UNL     1       6.624   2.740   1.616  0.00  0.00    +0.363 A 
ATOM      7  O   UNL     1       7.680   2.599   2.204  0.00  0.00    -0.243 OA
ATOM      8  O   UNL     1       5.477   3.224   2.125  0.00  0.00    -0.403 OA
ATOM      9  C   UNL     1       4.237   2.637  -1.162  0.00  0.00    +0.235 A 
ATOM     10  C   UNL     1       2.944   3.008  -1.194  0.00  0.00    +0.119 A 
ATOM     11  N   UNL     1       2.473   2.787  -2.434  0.00  0.00    -0.197 NA
ATOM     12  C   UNL     1       3.443   2.292  -3.163  0.00  0.00    +0.287 A 
ATOM     13  O   UNL     1       4.546   2.188  -2.401  0.00  0.00    -0.408 OA
ATOM     14  N   UNL     1       3.348   1.934  -4.496  0.00  0.00    -0.313 N 
ATOM     15  C   UNL     1       2.318   3.555   0.067  0.00  0.00    +0.118 C 
ATOM     16  H   UNL     1       4.224   1.525  -5.020  0.00  0.00    +0.147 HD
ATOM     17  H   UNL     1       2.395   2.058  -5.032  0.00  0.00    +0.147 HD
ENDROOT
BRANCH   5  18
ATOM     18  C   UNL     1       8.551   1.447  -0.265  0.00  0.00    +0.012 A 
ATOM     19  C   UNL     1       8.701   0.735   0.931  0.00  0.00    +0.011 A 
ATOM     20  C   UNL     1       9.952   0.317   1.328  0.00  0.00    +0.001 A 
ATOM     21  C   UNL     1      11.062   0.599   0.549  0.00  0.00    +0.003 A 
ATOM     22  C   UNL     1      10.926   1.301  -0.635  0.00  0.00    +0.039 A 
ATOM     23  C   UNL     1       9.678   1.724  -1.052  0.00  0.00    +0.131 A 
ATOM     24  F   UNL     1       9.545   2.405  -2.211  0.00  0.00    -0.205 F 
ENDBRANCH   5  18
BRANCH  15  25
ATOM     25  C   UNL     1       1.138   2.686   0.416  0.00  0.00    +0.002 A 
ATOM     26  C   UNL     1       1.330   1.355   0.738  0.00  0.00    +0.007 A 
ATOM     27  C   UNL     1       0.248   0.558   1.059  0.00  0.00    +0.000 A 
ATOM     28  C   UNL     1      -1.029   1.088   1.054  0.00  0.00    +0.003 A 
ATOM     29  C   UNL     1      -1.223   2.419   0.738  0.00  0.00    +0.038 A 
ATOM     30  C   UNL     1      -0.140   3.219   0.416  0.00  0.00    +0.128 A 
ATOM     31  F   UNL     1      -0.329   4.520   0.102  0.00  0.00    -0.205 F 
ENDBRANCH  15  25
BRANCH   1  32
ATOM     32  C   UNL     1       2.715   4.140   2.502  0.00  0.00    +0.341 C 
ATOM     33  O   UNL     1       1.555   4.504   2.585  0.00  0.00    -0.245 OA
BRANCH  32  35
ATOM     34  C   UNL     1       2.955   4.728   4.786  0.00  0.00    +0.280 C 
ATOM     35  O   UNL     1       3.525   4.214   3.581  0.00  0.00    -0.465 OA
ENDBRANCH  32  35
ENDBRANCH   1  32
TORSDOF 4
