REMARK  Name = ZINC08788711
REMARK  6 active torsions:
REMARK  status: ('A' for Active; 'I' for Inactive)
REMARK    1  A    between atoms: C_1  and  C_2
REMARK    2  A    between atoms: C_8  and  C_9
REMARK    3  A    between atoms: C_8  and  N_58
REMARK    4  A    between atoms: C_10  and  O_34
REMARK    5  A    between atoms: C_16  and  C_30
REMARK    6  A    between atoms: C_17  and  C_20
REMARK                            x       y       z     vdW  Elec       q    Type
REMARK                         _______ _______ _______ _____ _____    ______ ____
ROOT
ATOM      1  C   UNL     1      -6.223   1.873  -0.156  0.00  0.00    +0.020 A 
ATOM      2  C   UNL     1      -6.907   2.230   0.994  0.00  0.00    +0.122 A 
ATOM      3  C   UNL     1      -6.375   1.951   2.251  0.00  0.00    +0.046 A 
ATOM      4  C   UNL     1      -5.169   1.320   2.365  0.00  0.00    +0.019 A 
ATOM      5  C   UNL     1      -4.468   0.954   1.215  0.00  0.00    +0.065 A 
ATOM      6  C   UNL     1      -4.996   1.231  -0.058  0.00  0.00    +0.144 A 
ATOM      7  O   UNL     1      -4.317   0.877  -1.168  0.00  0.00    -0.450 OA
ATOM      8  C   UNL     1      -3.132   0.264  -1.138  0.00  0.00    +0.219 A 
ATOM      9  C   UNL     1      -2.510  -0.069   0.024  0.00  0.00    +0.077 A 
ATOM     10  C   UNL     1      -3.164   0.273   1.300  0.00  0.00    +0.201 A 
ATOM     11  O   UNL     1      -2.651   0.004   2.373  0.00  0.00    -0.286 OA
ENDROOT
BRANCH   9  12
ATOM     12  C   UNL     1      -1.198  -0.755   0.009  0.00  0.00    -0.003 A 
ATOM     13  C   UNL     1      -1.131  -2.138   0.001  0.00  0.00    +0.009 A 
ATOM     14  C   UNL     1       0.097  -2.789  -0.015  0.00  0.00    +0.001 A 
ATOM     15  C   UNL     1       1.265  -2.089  -0.021  0.00  0.00    +0.008 A 
ATOM     16  C   UNL     1       1.244  -0.684  -0.013  0.00  0.00    -0.017 A 
ATOM     17  C   UNL     1       0.002  -0.004   0.002  0.00  0.00    -0.010 A 
ATOM     18  C   UNL     1      -0.017   1.398   0.010  0.00  0.00    +0.009 A 
ATOM     19  C   UNL     1       1.157   2.089   0.002  0.00  0.00    +0.001 A 
ATOM     20  C   UNL     1       2.380   1.422  -0.012  0.00  0.00    +0.001 A 
ATOM     21  C   UNL     1       2.436   0.062  -0.020  0.00  0.00    +0.008 A 
ENDBRANCH   9  12
BRANCH   8  22
ATOM     22  C   UNL     1      -2.461  -0.080  -2.443  0.00  0.00    +0.451 C 
ATOM     23  F   UNL     1      -2.864  -1.355  -2.854  0.00  0.00    -0.163 F 
ATOM     24  F   UNL     1      -2.822   0.860  -3.414  0.00  0.00    -0.163 F 
ATOM     25  F   UNL     1      -1.072  -0.062  -2.272  0.00  0.00    -0.163 F 
ENDBRANCH   8  22
BRANCH   2  26
ATOM     26  O   UNL     1      -8.107   2.857   0.895  0.00  0.00    -0.506 OA
ATOM     27  H   UNL     1      -8.864   2.256   0.866  0.00  0.00    +0.292 HD
ENDBRANCH   2  26
BRANCH   1  28
ATOM     28  C   UNL     1      -6.809   2.180  -1.510  0.00  0.00    -0.036 C 
BRANCH  28  35
ATOM     29  C   UNL     1      -9.981   0.542  -4.894  0.00  0.00    +0.005 C 
ATOM     30  C   UNL     1      -9.157   0.168  -3.660  0.00  0.00    -0.031 C 
ATOM     31  C   UNL     1     -10.088  -0.355  -2.563  0.00  0.00    -0.001 C 
ATOM     32  C   UNL     1      -9.263  -0.670  -1.312  0.00  0.00    -0.018 C 
ATOM     33  C   UNL     1      -8.519   0.591  -0.867  0.00  0.00    -0.078 C 
ATOM     34  C   UNL     1      -8.416   1.405  -3.147  0.00  0.00    -0.075 C 
ATOM     35  N   UNL     1      -7.623   1.030  -1.957  0.00  0.00    +0.383 N 
ATOM     36  H   UNL     1      -6.996   0.255  -2.205  0.00  0.00    -0.081 HD
ENDBRANCH  28  35
ENDBRANCH   1  28
TORSDOF 5
