REMARK  Name = ZINC67534809
REMARK  8 active torsions:
REMARK  status: ('A' for Active; 'I' for Inactive)
REMARK    1  A    between atoms: C_1  and  C_2
REMARK    2  A    between atoms: C_3  and  C_9
REMARK    3  A    between atoms: C_4  and  C_8
REMARK    4  A    between atoms: N_5  and  C_7
REMARK    5  A    between atoms: C_9  and  C_11
REMARK    6  A    between atoms: C_9  and  N_12
REMARK    7  A    between atoms: N_15  and  C_16
REMARK    8  A    between atoms: C_22  and  C_24
REMARK                            x       y       z     vdW  Elec       q    Type
REMARK                         _______ _______ _______ _____ _____    ______ ____
ROOT
ATOM      1  N   UNL     1      -0.111   1.956  -2.264  0.00  0.00    -0.293 N 
ATOM      2  C   UNL     1      -0.752   1.979  -3.450  0.00  0.00    +0.300 C 
ATOM      3  O   UNL     1      -0.598   1.069  -4.242  0.00  0.00    -0.253 OA
ATOM      4  N   UNL     1      -1.564   3.010  -3.758  0.00  0.00    -0.296 N 
ATOM      5  H   UNL     1      -0.234   2.682  -1.633  0.00  0.00    +0.151 HD
ATOM      6  H   UNL     1      -1.687   3.735  -3.126  0.00  0.00    +0.151 HD
ENDROOT
BRANCH   4   7
ATOM      7  C   UNL     1      -2.261   3.034  -5.046  0.00  0.00    +0.077 C 
ATOM      8  C   UNL     1      -1.339   3.630  -6.113  0.00  0.00    +0.041 C 
ATOM      9  C   UNL     1      -2.058   3.622  -7.465  0.00  0.00    +0.109 C 
ATOM     10  N   UNL     1      -3.344   4.318  -7.321  0.00  0.00    -0.301 N 
ATOM     11  C   UNL     1      -4.269   3.883  -6.265  0.00  0.00    +0.109 C 
ATOM     12  C   UNL     1      -3.525   3.888  -4.926  0.00  0.00    +0.041 C 
ATOM     13  C   UNL     1      -3.670   5.337  -8.142  0.00  0.00    +0.219 C 
ATOM     14  O   UNL     1      -2.871   5.731  -8.965  0.00  0.00    -0.275 OA
BRANCH  13  15
ATOM     15  C   UNL     1      -5.026   5.986  -8.037  0.00  0.00    +0.075 C 
ATOM     16  C   UNL     1      -6.104   4.986  -8.460  0.00  0.00    +0.013 C 
ATOM     17  C   UNL     1      -7.480   5.645  -8.354  0.00  0.00    +0.001 C 
ATOM     18  C   UNL     1      -7.532   6.870  -9.269  0.00  0.00    +0.000 C 
ATOM     19  C   UNL     1      -6.454   7.869  -8.845  0.00  0.00    +0.001 C 
ATOM     20  C   UNL     1      -5.077   7.210  -8.952  0.00  0.00    +0.013 C 
ENDBRANCH  13  15
ENDBRANCH   4   7
BRANCH   1  21
ATOM     21  C   UNL     1       0.771   0.836  -1.930  0.00  0.00    +0.105 C 
ATOM     22  C   UNL     1       2.149   1.068  -2.553  0.00  0.00    +0.033 C 
BRANCH  21  25
ATOM     23  C   UNL     1       0.599  -1.827  -0.221  0.00  0.00    +0.068 C 
ATOM     24  C   UNL     1       0.833  -0.441   0.322  0.00  0.00    +0.065 A 
ATOM     25  C   UNL     1       0.908   0.734  -0.433  0.00  0.00    +0.016 A 
ATOM     26  C   UNL     1       1.127   1.762   0.419  0.00  0.00    +0.041 A 
ATOM     27  N   UNL     1       1.187   1.256   1.668  0.00  0.00    -0.271 N 
ATOM     28  N   UNL     1       0.995  -0.129   1.582  0.00  0.00    -0.176 NA
ATOM     29  C   UNL     1       1.410   2.021   2.898  0.00  0.00    +0.172 C 
ATOM     30  C   UNL     1       1.276   3.213   0.040  0.00  0.00    +0.065 C 
ENDBRANCH  21  25
ENDBRANCH   1  21
TORSDOF 4
