REMARK  Name = ZINC31166940
REMARK  8 active torsions:
REMARK  status: ('A' for Active; 'I' for Inactive)
REMARK    1  A    between atoms: C_1  and  C_2
REMARK    2  A    between atoms: C_10  and  O_25
REMARK    3  A    between atoms: C_11  and  O_24
REMARK    4  A    between atoms: C_12  and  C_13
REMARK    5  A    between atoms: C_13  and  C_15
REMARK    6  A    between atoms: C_19  and  O_23
REMARK    7  A    between atoms: C_20  and  C_21
REMARK    8  A    between atoms: C_26  and  O_28
REMARK                            x       y       z     vdW  Elec       q    Type
REMARK                         _______ _______ _______ _____ _____    ______ ____
ROOT
ATOM      1  C   UNL     1       1.335  -2.057   0.467  0.00  0.00    +0.011 C 
ATOM      2  C   UNL     1       1.316  -0.534   0.610  0.00  0.00    +0.026 C 
ATOM      3  C   UNL     1       2.442   0.074  -0.237  0.00  0.00    +0.085 C 
ATOM      4  C   UNL     1       2.439   1.567   0.014  0.00  0.00    +0.165 C 
ATOM      5  O   UNL     1       3.476   2.179   0.165  0.00  0.00    -0.292 OA
ATOM      6  C   UNL     1       1.136   2.251   0.068  0.00  0.00    +0.038 A 
ATOM      7  C   UNL     1      -0.042   1.511   0.127  0.00  0.00    -0.004 A 
ATOM      8  C   UNL     1      -1.261   2.169   0.181  0.00  0.00    +0.056 A 
ATOM      9  C   UNL     1      -1.319   3.553   0.184  0.00  0.00    +0.159 A 
ATOM     10  C   UNL     1      -0.147   4.311   0.119  0.00  0.00    +0.170 A 
ATOM     11  C   UNL     1       1.088   3.664   0.060  0.00  0.00    +0.078 A 
ATOM     12  C   UNL     1      -0.027   0.006   0.129  0.00  0.00    +0.149 C 
ENDROOT
BRANCH  11  13
ATOM     13  C   UNL     1       2.335   4.449  -0.009  0.00  0.00    +0.198 C 
ATOM     14  O   UNL     1       3.411   3.884   0.024  0.00  0.00    -0.286 OA
BRANCH  13  15
ATOM     15  C   UNL     1       2.276   5.922  -0.119  0.00  0.00    +0.036 A 
ATOM     16  C   UNL     1       2.499   6.541  -1.344  0.00  0.00    +0.012 A 
ATOM     17  C   UNL     1       2.439   7.920  -1.448  0.00  0.00    +0.004 A 
ATOM     18  C   UNL     1       2.169   8.697  -0.338  0.00  0.00    +0.046 A 
ATOM     19  C   UNL     1       1.947   8.103   0.898  0.00  0.00    +0.128 A 
ATOM     20  C   UNL     1       1.999   6.708   1.020  0.00  0.00    +0.066 A 
BRANCH  20  21
ATOM     21  C   UNL     1       1.767   6.069   2.322  0.00  0.00    +0.263 C 
ATOM     22  O   UNL     1       1.725   4.860   2.405  0.00  0.00    -0.296 OA
ENDBRANCH  20  21
BRANCH  19  23
ATOM     23  O   UNL     1       1.682   8.871   1.984  0.00  0.00    -0.506 OA
ATOM     24  H   UNL     1       1.507   8.399   2.962  0.00  0.00    +0.292 HD
ENDBRANCH  19  23
ENDBRANCH  13  15
ENDBRANCH  11  13
BRANCH  10  25
ATOM     25  O   UNL     1      -0.210   5.666   0.115  0.00  0.00    -0.503 OA
ATOM     26  H   UNL     1       0.715   6.259   0.065  0.00  0.00    +0.292 HD
ENDBRANCH  10  25
BRANCH   9  27
ATOM     27  O   UNL     1      -2.523   4.177   0.243  0.00  0.00    -0.503 OA
ATOM     28  H   UNL     1      -2.574   5.276   0.246  0.00  0.00    +0.292 HD
ENDBRANCH   9  27
BRANCH  12  29
ATOM     29  O   UNL     1      -0.273  -0.466  -1.197  0.00  0.00    -0.387 OA
ATOM     30  H   UNL     1      -1.199  -0.181  -1.720  0.00  0.00    +0.210 HD
ENDBRANCH  12  29
TORSDOF 7
