REMARK  Name = ZINC40772945
REMARK  9 active torsions:
REMARK  status: ('A' for Active; 'I' for Inactive)
REMARK    1  A    between atoms: CD1_1  and  CG_2
REMARK    2  A    between atoms: CG_2  and  CD2_3
REMARK    3  A    between atoms: CG_2  and  CB_4
REMARK    4  A    between atoms: CB_4  and  CA_5
REMARK    5  A    between atoms: CA_5  and  C_7
REMARK    6  A    between atoms: CA_5  and  N_9
REMARK    7  A    between atoms: C_7  and  O_8
REMARK    8  A    between atoms: C_10  and  C_12
REMARK    9  A    between atoms: C_14  and  N_20
REMARK                            x       y       z     vdW  Elec       q    Type
REMARK                         _______ _______ _______ _____ _____    ______ ____
ROOT
ATOM      1  N   LEU A   1      -0.290   1.103   2.662  0.00  0.00    -0.306 N 
ATOM      2  C   UNK A   0      -1.344   1.602   3.339  0.00  0.00    +0.244 C 
ATOM      3  O   UNK A   0      -2.186   0.852   3.791  0.00  0.00    -0.270 OA
ATOM      4  H   LEU A   1       0.382   1.702   2.302  0.00  0.00    +0.149 HD
ENDROOT
BRANCH   2   5
ATOM      5  C   UNK A   0      -1.474   3.062   3.531  0.00  0.00    +0.040 A 
ATOM      6  C   UNK A   0      -2.561   3.580   4.236  0.00  0.00    +0.037 A 
ATOM      7  C   UNK A   0      -2.678   4.949   4.413  0.00  0.00    +0.045 A 
ATOM      8  C   UNK A   0      -1.713   5.803   3.888  0.00  0.00    +0.080 A 
ATOM      9  C   UNK A   0      -0.635   5.289   3.188  0.00  0.00    +0.062 A 
ATOM     10  C   UNK A   0      -0.508   3.925   3.013  0.00  0.00    +0.034 A 
ATOM     11 CL   UNK A   0       0.564   6.361   2.535  0.00  0.00    -0.082 Cl
ATOM     12 CL   UNK A   0      -1.862   7.519   4.110  0.00  0.00    -0.080 Cl
BRANCH   7  13
ATOM     13  N   UNK A   0      -3.765   5.473   5.118  0.00  0.00    -0.357 N 
ATOM     14  H   UNK A   0      -4.438   4.878   5.484  0.00  0.00    +0.142 HD
ATOM     15  H   UNK A   0      -3.847   6.432   5.242  0.00  0.00    +0.142 HD
ENDBRANCH   7  13
ENDBRANCH   2   5
BRANCH   1  16
ATOM     16  CA  LEU A   1      -0.161  -0.344   2.472  0.00  0.00    +0.099 C 
BRANCH  16  17
ATOM     17  CB  LEU A   1       0.683  -0.621   1.226  0.00  0.00    +0.027 C 
BRANCH  17  19
ATOM     18  CD1 LEU A   1       0.852  -0.248  -1.239  0.00  0.00    +0.007 C 
ATOM     19  CG  LEU A   1      -0.048  -0.096  -0.012  0.00  0.00    -0.015 C 
ATOM     20  CD2 LEU A   1      -1.335  -0.896  -0.221  0.00  0.00    +0.007 C 
ENDBRANCH  17  19
ENDBRANCH  16  17
BRANCH  16  21
ATOM     21  C   LEU A   1       0.520  -0.960   3.696  0.00  0.00    +0.178 C 
BRANCH  21  22
ATOM     22  O   LEU A   1       1.859  -0.471   3.793  0.00  0.00    -0.393 OA
ATOM     23  H   LEU A   1       2.352  -0.821   4.548  0.00  0.00    +0.209 HD
ENDBRANCH  21  22
ENDBRANCH  16  21
ENDBRANCH   1  16
TORSDOF 7
