REMARK  Name = ZINC56925298
REMARK  6 active torsions:
REMARK  status: ('A' for Active; 'I' for Inactive)
REMARK    1  A    between atoms: C_1  and  C_2
REMARK    2  A    between atoms: C_12  and  C_14
REMARK    3  A    between atoms: C_17  and  O_20
REMARK    4  A    between atoms: O_20  and  C_21
REMARK    5  A    between atoms: C_21  and  C_22
REMARK    6  A    between atoms: C_24  and  C_27
REMARK                            x       y       z     vdW  Elec       q    Type
REMARK                         _______ _______ _______ _____ _____    ______ ____
ROOT
ATOM      1  C   UNL     1       0.085  -1.144   7.265  0.00  0.00    +0.037 A 
ATOM      2  C   UNL     1       0.064   0.209   7.615  0.00  0.00    +0.016 A 
ATOM      3  C   UNL     1       0.071   0.575   8.942  0.00  0.00    +0.046 A 
ATOM      4  C   UNL     1       0.100  -0.400   9.934  0.00  0.00    +0.121 A 
ATOM      5  C   UNL     1       0.120  -1.746   9.589  0.00  0.00    +0.046 A 
ATOM      6  C   UNL     1       0.107  -2.120   8.264  0.00  0.00    +0.016 A 
ENDROOT
BRANCH   1  18
ATOM      7  C   UNL     1      -0.018   1.503   0.010  0.00  0.00    +0.046 C 
ATOM      8  C   UNL     1       0.002  -0.004   0.002  0.00  0.00    -0.024 A 
ATOM      9  C   UNL     1       0.005  -0.675  -1.193  0.00  0.00    +0.005 A 
ATOM     10  C   UNL     1       0.024  -2.061  -1.246  0.00  0.00    +0.001 A 
ATOM     11  C   UNL     1       0.039  -2.784  -0.067  0.00  0.00    +0.017 A 
ATOM     12  C   UNL     1       0.036  -2.121   1.134  0.00  0.00    +0.041 A 
ATOM     13  C   UNL     1       0.023  -0.710   1.227  0.00  0.00    +0.083 A 
ATOM     14  N   UNL     1       0.028  -0.206   2.480  0.00  0.00    -0.224 NA
ATOM     15  C   UNL     1       0.048  -0.969   3.548  0.00  0.00    +0.166 A 
ATOM     16  S   UNL     1       0.051  -2.611   2.842  0.00  0.00    -0.052 S 
ATOM     17  N   UNL     1       0.056  -0.597   4.881  0.00  0.00    -0.261 N 
ATOM     18  C   UNL     1       0.077  -1.540   5.843  0.00  0.00    +0.250 C 
ATOM     19  O   UNL     1       0.090  -2.718   5.541  0.00  0.00    -0.270 OA
ATOM     20  H   UNL     1       0.045   0.342   5.122  0.00  0.00    +0.157 HD
ENDBRANCH   1  18
BRANCH   4  21
ATOM     21  O   UNL     1       0.107  -0.035  11.241  0.00  0.00    -0.485 OA
BRANCH  21  22
ATOM     22  C   UNL     1       0.136  -1.087  12.207  0.00  0.00    +0.291 C 
BRANCH  22  23
ATOM     23  C   UNL     1       0.141  -0.495  13.594  0.00  0.00    +0.116 A 
ATOM     24  N   UNL     1      -0.883  -0.201  14.351  0.00  0.00    -0.237 NA
ATOM     25  C   UNL     1      -0.720   0.319  15.560  0.00  0.00    +0.114 A 
ATOM     26  C   UNL     1       0.573   0.528  15.966  0.00  0.00    +0.078 A 
ATOM     27  S   UNL     1       1.466  -0.064  14.537  0.00  0.00    -0.076 S 
BRANCH  25  28
ATOM     28  C   UNL     1      -1.871   0.656  16.424  0.00  0.00    +0.153 A 
ATOM     29  C   UNL     1      -3.183   0.481  16.111  0.00  0.00    +0.051 A 
ATOM     30  C   UNL     1      -3.929   0.934  17.218  0.00  0.00    +0.042 A 
ATOM     31  C   UNL     1      -3.046   1.359  18.142  0.00  0.00    +0.196 A 
ATOM     32  O   UNL     1      -1.803   1.185  17.661  0.00  0.00    -0.461 OA
ENDBRANCH  25  28
ENDBRANCH  22  23
ENDBRANCH  21  22
ENDBRANCH   4  21
TORSDOF 5
