REMARK  Name = ZINC16861171
REMARK  14 active torsions:
REMARK  status: ('A' for Active; 'I' for Inactive)
REMARK    1  A    between atoms: C_1  and  C_2
REMARK    2  A    between atoms: C_2  and  C_4
REMARK    3  A    between atoms: C_2  and  S_15
REMARK    4  A    between atoms: N_6  and  C_7
REMARK    5  A    between atoms: S_15  and  C_16
REMARK    6  A    between atoms: N_26  and  C_27
REMARK    7  A    between atoms: C_27  and  C_28
REMARK    8  A    between atoms: C_28  and  N_29
REMARK    9  A    between atoms: N_29  and  C_30
REMARK   10  A    between atoms: N_29  and  C_33
REMARK   11  A    between atoms: C_30  and  C_31
REMARK   12  A    between atoms: C_30  and  C_32
REMARK   13  A    between atoms: C_33  and  C_34
REMARK   14  A    between atoms: C_33  and  C_35
REMARK                            x       y       z     vdW  Elec       q    Type
REMARK                         _______ _______ _______ _____ _____    ______ ____
ROOT
ATOM      1  C   UNL     1       0.595   2.516   2.436  0.00  0.00    +0.173 A 
ATOM      2  N   UNL     1      -0.561   3.076   2.175  0.00  0.00    -0.223 NA
ATOM      3  C   UNL     1      -1.172   3.883   3.066  0.00  0.00    +0.079 A 
ATOM      4  C   UNL     1      -2.405   4.480   2.788  0.00  0.00    +0.028 A 
ATOM      5  C   UNL     1      -2.989   5.291   3.720  0.00  0.00    +0.002 A 
ATOM      6  C   UNL     1      -2.375   5.534   4.942  0.00  0.00    +0.001 A 
ATOM      7  C   UNL     1      -1.168   4.964   5.243  0.00  0.00    +0.015 A 
ATOM      8  C   UNL     1      -0.550   4.132   4.311  0.00  0.00    +0.065 A 
ATOM      9  C   UNL     1       0.745   3.493   4.579  0.00  0.00    +0.262 A 
ATOM     10  O   UNL     1       1.329   3.668   5.633  0.00  0.00    -0.267 OA
ATOM     11  N   UNL     1       1.262   2.697   3.614  0.00  0.00    -0.289 N 
ENDROOT
BRANCH   1  12
ATOM     12  S   UNL     1       1.318   1.475   1.212  0.00  0.00    -0.075 S 
BRANCH  12  14
ATOM     13  C   UNL     1       0.057   2.931  -0.730  0.00  0.00    +0.029 C 
ATOM     14  C   UNL     1       0.129   1.514  -0.157  0.00  0.00    +0.137 C 
BRANCH  14  15
ATOM     15  C   UNL     1       0.571   0.558  -1.234  0.00  0.00    +0.230 C 
ATOM     16  O   UNL     1       1.726   0.193  -1.284  0.00  0.00    -0.274 OA
ATOM     17  N   UNL     1      -0.317   0.109  -2.143  0.00  0.00    -0.280 N 
ATOM     18  H   UNL     1      -1.258   0.328  -2.051  0.00  0.00    +0.155 HD
BRANCH  17  19
ATOM     19  C   UNL     1       0.118  -0.673  -3.222  0.00  0.00    +0.105 A 
ATOM     20  C   UNL     1      -0.273  -0.353  -4.517  0.00  0.00    +0.147 A 
ATOM     21  C   UNL     1       0.159  -1.128  -5.579  0.00  0.00    +0.040 A 
ATOM     22  C   UNL     1       0.979  -2.219  -5.353  0.00  0.00    +0.006 A 
ATOM     23  C   UNL     1       1.369  -2.540  -4.066  0.00  0.00    +0.040 A 
ATOM     24  C   UNL     1       0.946  -1.767  -3.000  0.00  0.00    +0.147 A 
ATOM     25  F   UNL     1       1.333  -2.078  -1.743  0.00  0.00    -0.203 F 
ATOM     26  F   UNL     1      -1.073   0.712  -4.738  0.00  0.00    -0.203 F 
ENDBRANCH  17  19
ENDBRANCH  14  15
ENDBRANCH  12  14
ENDBRANCH   1  12
BRANCH  11  27
ATOM     27  C   UNL     1       2.548   2.030   3.831  0.00  0.00    +0.109 C 
BRANCH  27  28
ATOM     28  C   UNL     1       3.681   2.936   3.344  0.00  0.00    -0.056 C 
BRANCH  28  29
ATOM     29  N   UNL     1       4.956   2.211   3.424  0.00  0.00    +0.384 N 
ATOM     30  H   UNL     1       4.871   1.327   2.945  0.00  0.00    -0.081 HD
BRANCH  29  31
ATOM     31  C   UNL     1       6.014   3.011   2.793  0.00  0.00    -0.074 C 
ATOM     32  C   UNL     1       7.314   2.204   2.762  0.00  0.00    -0.014 C 
ATOM     33  C   UNL     1       5.601   3.366   1.363  0.00  0.00    -0.014 C 
ENDBRANCH  29  31
BRANCH  29  34
ATOM     34  C   UNL     1       5.296   1.974   4.833  0.00  0.00    -0.074 C 
ATOM     35  C   UNL     1       4.677   3.073   5.700  0.00  0.00    -0.014 C 
ATOM     36  C   UNL     1       4.749   0.613   5.268  0.00  0.00    -0.014 C 
ENDBRANCH  29  34
ENDBRANCH  28  29
ENDBRANCH  27  28
ENDBRANCH  11  27
TORSDOF 9
