REMARK  Name = ZINC14541683
REMARK  11 active torsions:
REMARK  status: ('A' for Active; 'I' for Inactive)
REMARK    1  A    between atoms: C_1  and  C_2
REMARK    2  A    between atoms: C_2  and  N_3
REMARK    3  A    between atoms: C_4  and  C_35
REMARK    4  A    between atoms: C_5  and  N_26
REMARK    5  A    between atoms: C_10  and  N_12
REMARK    6  A    between atoms: N_12  and  C_13
REMARK    7  A    between atoms: C_20  and  O_24
REMARK    8  A    between atoms: O_24  and  C_25
REMARK    9  A    between atoms: C_27  and  C_29
REMARK   10  A    between atoms: C_35  and  O_37
REMARK   11  A    between atoms: O_37  and  C_38
REMARK                            x       y       z     vdW  Elec       q    Type
REMARK                         _______ _______ _______ _____ _____    ______ ____
ROOT
ATOM      1  N   UNL     1       2.254  11.073   4.066  0.00  0.00    -0.318 N 
ATOM      2  C   UNL     1       2.625  12.285   3.502  0.00  0.00    +0.151 A 
ATOM      3  C   UNL     1       2.760  12.122   2.139  0.00  0.00    +0.075 A 
ATOM      4  C   UNL     1       2.451  10.720   1.855  0.00  0.00    +0.043 A 
ATOM      5  C   UNL     1       2.143  10.114   3.088  0.00  0.00    +0.143 A 
ATOM      6  N   UNL     1       1.821   8.826   3.129  0.00  0.00    -0.235 NA
ATOM      7  C   UNL     1       1.773   8.087   2.042  0.00  0.00    +0.136 A 
ATOM      8  C   UNL     1       2.070   8.617   0.788  0.00  0.00    +0.046 A 
ATOM      9  C   UNL     1       2.413   9.957   0.683  0.00  0.00    +0.038 A 
ENDROOT
BRANCH   3  10
ATOM     10  N   UNL     1       3.119  13.099   1.215  0.00  0.00    -0.283 N 
ATOM     11  C   UNL     1       3.833  12.763   0.122  0.00  0.00    +0.223 C 
ATOM     12  O   UNL     1       4.088  11.599  -0.101  0.00  0.00    -0.275 OA
ATOM     13  H   UNL     1       2.856  14.021   1.358  0.00  0.00    +0.155 HD
BRANCH  11  14
ATOM     14  C   UNL     1       4.313  13.834  -0.822  0.00  0.00    +0.103 C 
ATOM     15  C   UNL     1       5.104  13.209  -1.993  0.00  0.00    +0.043 C 
ATOM     16  C   UNL     1       4.291  13.600  -3.247  0.00  0.00    +0.160 C 
ATOM     17  O   UNL     1       3.559  14.783  -2.858  0.00  0.00    -0.379 OA
ATOM     18  C   UNL     1       3.115  14.529  -1.507  0.00  0.00    +0.172 C 
ENDBRANCH  11  14
ENDBRANCH   3  10
BRANCH   1  20
ATOM     19  C   UNL     1       3.323  10.428   6.169  0.00  0.00    +0.027 C 
ATOM     20  C   UNL     1       2.016  10.848   5.494  0.00  0.00    +0.121 C 
ENDBRANCH   1  20
BRANCH   8  21
ATOM     21  N   UNL     1       2.017   7.807  -0.353  0.00  0.00    -0.339 N 
ATOM     22  H   UNL     1       2.222   8.183  -1.224  0.00  0.00    +0.146 HD
BRANCH  21  23
ATOM     23  C   UNL     1       1.654   6.393  -0.232  0.00  0.00    +0.075 C 
ATOM     24  C   UNL     1       2.244   5.606  -1.408  0.00  0.00    +0.027 C 
ATOM     25  C   UNL     1       2.057   4.115  -1.132  0.00  0.00    +0.037 C 
ATOM     26  C   UNL     1       0.623   3.818  -0.778  0.00  0.00    -0.044 A 
ATOM     27  C   UNL     1       0.196   2.499  -0.867  0.00  0.00    +0.007 A 
ATOM     28  C   UNL     1      -1.099   2.157  -0.540  0.00  0.00    +0.046 A 
ATOM     29  C   UNL     1      -1.987   3.140  -0.129  0.00  0.00    +0.120 A 
ATOM     30  C   UNL     1      -1.562   4.455  -0.043  0.00  0.00    +0.049 A 
ATOM     31  C   UNL     1      -0.257   4.796  -0.370  0.00  0.00    -0.039 A 
ATOM     32  C   UNL     1       0.134   6.247  -0.269  0.00  0.00    +0.057 C 
BRANCH  29  33
ATOM     33  O   UNL     1      -3.266   2.813   0.193  0.00  0.00    -0.495 OA
ATOM     34  C   UNL     1      -3.632   1.437   0.080  0.00  0.00    +0.277 C 
ENDBRANCH  29  33
ENDBRANCH  21  23
ENDBRANCH   8  21
BRANCH   2  35
ATOM     35  C   UNL     1       2.832  13.495   4.212  0.00  0.00    +0.357 C 
ATOM     36  O   UNL     1       3.263  14.475   3.632  0.00  0.00    -0.243 OA
BRANCH  35  37
ATOM     37  O   UNL     1       2.552  13.560   5.530  0.00  0.00    -0.463 OA
ATOM     38  C   UNL     1       2.785  14.810   6.182  0.00  0.00    +0.280 C 
ENDBRANCH  35  37
ENDBRANCH   2  35
TORSDOF 8
