REMARK  Name = ZINC10001185
REMARK  13 active torsions:
REMARK  status: ('A' for Active; 'I' for Inactive)
REMARK    1  A    between atoms: C_1  and  C_2
REMARK    2  A    between atoms: C_2  and  C_3
REMARK    3  A    between atoms: C_3  and  C_4
REMARK    4  A    between atoms: C_4  and  O_5
REMARK    5  A    between atoms: O_5  and  C_6
REMARK    6  A    between atoms: C_7  and  O_31
REMARK    7  A    between atoms: C_9  and  C_13
REMARK    8  A    between atoms: N_14  and  N_15
REMARK    9  A    between atoms: C_16  and  C_18
REMARK   10  A    between atoms: C_18  and  N_19
REMARK   11  A    between atoms: C_20  and  C_22
REMARK   12  A    between atoms: O_31  and  C_32
REMARK   13  A    between atoms: C_32  and  C_33
REMARK                            x       y       z     vdW  Elec       q    Type
REMARK                         _______ _______ _______ _____ _____    ______ ____
ROOT
ATOM      1  N   UNL     1       8.214  -3.671   4.473  0.00  0.00    -0.206 N 
ATOM      2  C   UNL     1       7.043  -3.338   3.894  0.00  0.00    +0.249 C 
ATOM      3  O   UNL     1       6.159  -4.163   3.793  0.00  0.00    -0.272 OA
ATOM      4  H   UNL     1       8.920  -3.012   4.554  0.00  0.00    +0.177 HD
ENDROOT
BRANCH   1   6
ATOM      5  C   UNL     1       9.538  -5.292   5.515  0.00  0.00    +0.138 C 
ATOM      6  N   UNL     1       8.410  -4.971   4.958  0.00  0.00    -0.188 NA
BRANCH   5  10
ATOM      7  C   UNL     1      10.130  -9.236   6.983  0.00  0.00    +0.176 A 
ATOM      8  C   UNL     1      11.147  -8.291   7.101  0.00  0.00    +0.164 A 
ATOM      9  C   UNL     1      10.960  -7.009   6.620  0.00  0.00    +0.059 A 
ATOM     10  C   UNL     1       9.745  -6.660   6.025  0.00  0.00    -0.001 A 
ATOM     11  C   UNL     1       8.728  -7.612   5.909  0.00  0.00    +0.028 A 
ATOM     12  C   UNL     1       8.924  -8.891   6.387  0.00  0.00    +0.064 A 
ATOM     13 BR   UNL     1       7.548 -10.178   6.230  0.00  0.00    -0.046 Br
BRANCH   7  14
ATOM     14  O   UNL     1      10.318 -10.498   7.452  0.00  0.00    -0.487 OA
BRANCH  14  15
ATOM     15  C   UNL     1      10.867 -11.453   6.543  0.00  0.00    +0.229 C 
BRANCH  15  16
ATOM     16  C   UNL     1      11.005 -12.805   7.245  0.00  0.00    +0.041 C 
BRANCH  16  18
ATOM     17  C   UNL     1      11.730 -15.181   6.973  0.00  0.00    +0.004 C 
ATOM     18  C   UNL     1      11.593 -13.828   6.271  0.00  0.00    -0.000 C 
ENDBRANCH  16  18
ENDBRANCH  15  16
ENDBRANCH  14  15
ENDBRANCH   7  14
BRANCH   8  19
ATOM     19  O   UNL     1      12.326  -8.632   7.686  0.00  0.00    -0.489 OA
BRANCH  19  20
ATOM     20  C   UNL     1      13.325  -7.614   7.774  0.00  0.00    +0.226 C 
ATOM     21  C   UNL     1      14.572  -8.181   8.457  0.00  0.00    +0.048 C 
ENDBRANCH  19  20
ENDBRANCH   8  19
ENDBRANCH   5  10
ENDBRANCH   1   6
BRANCH   2  22
ATOM     22  C   UNL     1       6.831  -1.940   3.373  0.00  0.00    +0.202 C 
BRANCH  22  23
ATOM     23  N   UNL     1       5.489  -1.832   2.796  0.00  0.00    -0.303 N 
ATOM     24  C   UNL     1       5.076  -0.664   2.264  0.00  0.00    +0.245 C 
ATOM     25  O   UNL     1       5.818   0.300   2.264  0.00  0.00    -0.270 OA
ATOM     26  H   UNL     1       4.898  -2.601   2.795  0.00  0.00    +0.150 HD
BRANCH  24  27
ATOM     27  C   UNL     1       3.724  -0.555   1.682  0.00  0.00    +0.040 A 
ATOM     28  C   UNL     1       2.871  -1.662   1.681  0.00  0.00    +0.017 A 
ATOM     29  C   UNL     1       1.609  -1.558   1.138  0.00  0.00    +0.050 A 
ATOM     30  C   UNL     1       1.181  -0.356   0.590  0.00  0.00    +0.166 A 
ATOM     31  C   UNL     1       2.028   0.752   0.588  0.00  0.00    +0.167 A 
ATOM     32  C   UNL     1       3.294   0.654   1.131  0.00  0.00    +0.062 A 
ATOM     33  O   UNL     1       1.376   1.797  -0.001  0.00  0.00    -0.453 OA
ATOM     34  C   UNL     1      -0.017   1.435   0.010  0.00  0.00    +0.466 C 
ATOM     35  O   UNL     1       0.002  -0.004   0.002  0.00  0.00    -0.453 OA
ENDBRANCH  24  27
ENDBRANCH  22  23
ENDBRANCH   2  22
TORSDOF 11
