REMARK  Name = ZINC59140549
REMARK  8 active torsions:
REMARK  status: ('A' for Active; 'I' for Inactive)
REMARK    1  A    between atoms: C_3  and  N_25
REMARK    2  A    between atoms: C_6  and  C_7
REMARK    3  A    between atoms: C_7  and  O_8
REMARK    4  A    between atoms: O_8  and  C_9
REMARK    5  A    between atoms: C_12  and  C_16
REMARK    6  A    between atoms: N_17  and  N_18
REMARK    7  A    between atoms: C_19  and  C_21
REMARK    8  A    between atoms: C_21  and  C_22
REMARK                            x       y       z     vdW  Elec       q    Type
REMARK                         _______ _______ _______ _____ _____    ______ ____
ROOT
ATOM      1  C   UNL     1      -2.874  -1.700  -1.505  0.00  0.00    +0.157 A 
ATOM      2  C   UNL     1      -2.849  -3.087  -1.598  0.00  0.00    +0.085 A 
ATOM      3  C   UNL     1      -4.023  -3.789  -1.771  0.00  0.00    +0.033 A 
ATOM      4  C   UNL     1      -5.239  -3.105  -1.853  0.00  0.00    -0.002 A 
ATOM      5  C   UNL     1      -5.259  -1.711  -1.759  0.00  0.00    +0.033 A 
ATOM      6  C   UNL     1      -4.081  -1.016  -1.581  0.00  0.00    +0.085 A 
ATOM      7 CL   UNL     1      -4.106   0.715  -1.458  0.00  0.00    -0.080 Cl
ATOM      8 CL   UNL     1      -1.338  -3.935  -1.497  0.00  0.00    -0.080 Cl
ENDROOT
BRANCH   4   9
ATOM      9  C   UNL     1      -6.496  -3.852  -2.038  0.00  0.00    +0.138 C 
ATOM     10  N   UNL     1      -7.624  -3.215  -2.114  0.00  0.00    -0.188 NA
BRANCH  10  11
ATOM     11  N   UNL     1      -8.819  -3.924  -2.290  0.00  0.00    -0.206 N 
ATOM     12  C   UNL     1      -9.991  -3.263  -2.368  0.00  0.00    +0.246 C 
ATOM     13  O   UNL     1     -10.011  -2.053  -2.287  0.00  0.00    -0.273 OA
ATOM     14  H   UNL     1      -8.804  -4.892  -2.355  0.00  0.00    +0.177 HD
BRANCH  12  15
ATOM     15  C   UNL     1     -11.276  -4.026  -2.558  0.00  0.00    +0.215 C 
BRANCH  15  16
ATOM     16  C   UNL     1     -12.404  -3.082  -2.612  0.00  0.00    +0.072 C 
ATOM     17  N   UNL     1     -13.275  -2.353  -2.655  0.00  0.00    -0.196 NA
ENDBRANCH  15  16
ENDBRANCH  12  15
ENDBRANCH  10  11
ENDBRANCH   4   9
BRANCH   1  18
ATOM     18  O   UNL     1      -1.715  -1.012  -1.334  0.00  0.00    -0.484 OA
BRANCH  18  19
ATOM     19  C   UNL     1      -1.293  -0.775   0.010  0.00  0.00    +0.264 C 
BRANCH  19  25
ATOM     20  C   UNL     1      -0.017   1.378   0.010  0.00  0.00    +0.009 A 
ATOM     21  C   UNL     1       1.171   2.086   0.002  0.00  0.00    +0.033 A 
ATOM     22  C   UNL     1       2.377   1.411  -0.013  0.00  0.00    +0.126 A 
ATOM     23  C   UNL     1       2.396   0.029  -0.020  0.00  0.00    +0.033 A 
ATOM     24  C   UNL     1       1.208  -0.679  -0.012  0.00  0.00    +0.009 A 
ATOM     25  C   UNL     1       0.002  -0.004   0.002  0.00  0.00    -0.010 A 
BRANCH  22  26
ATOM     26  N   UNL     1       3.649   2.168  -0.022  0.00  0.00    +0.056 N 
ATOM     27  O   UNL     1       3.633   3.377  -0.016  0.00  0.00    -0.126 OA
ATOM     28  O   UNL     1       4.704   1.578  -0.035  0.00  0.00    -0.126 OA
ENDBRANCH  22  26
ENDBRANCH  19  25
ENDBRANCH  18  19
ENDBRANCH   1  18
TORSDOF 8
