REMARK  Name = ZINC39699268
REMARK  8 active torsions:
REMARK  status: ('A' for Active; 'I' for Inactive)
REMARK    1  A    between atoms: C_1  and  C_2
REMARK    2  A    between atoms: C_8  and  C_14
REMARK    3  A    between atoms: C_14  and  C_16
REMARK    4  A    between atoms: C_14  and  N_25
REMARK    5  A    between atoms: N_20  and  C_21
REMARK    6  A    between atoms: C_21  and  C_22
REMARK    7  A    between atoms: C_22  and  O_23
REMARK    8  A    between atoms: O_23  and  C_24
REMARK                            x       y       z     vdW  Elec       q    Type
REMARK                         _______ _______ _______ _____ _____    ______ ____
ROOT
ATOM      1  C   UNL     1       1.295  -2.566   4.414  0.00  0.00    +0.018 C 
ENDROOT
BRANCH   1   9
ATOM      2  C   UNL     1      -2.599  -5.786   0.930  0.00  0.00    +0.045 C 
ATOM      3  C   UNL     1      -2.724  -5.252   2.333  0.00  0.00    -0.029 A 
ATOM      4  C   UNL     1      -3.704  -5.722   3.148  0.00  0.00    +0.005 A 
ATOM      5  C   UNL     1      -3.876  -5.271   4.457  0.00  0.00    +0.001 A 
ATOM      6  C   UNL     1      -3.061  -4.325   4.992  0.00  0.00    +0.009 A 
ATOM      7  C   UNL     1      -1.984  -3.775   4.168  0.00  0.00    -0.007 A 
ATOM      8  C   UNL     1      -1.141  -2.824   4.662  0.00  0.00    -0.006 C 
ATOM      9  C   UNL     1      -0.054  -2.310   3.739  0.00  0.00    +0.092 C 
ATOM     10  C   UNL     1       0.008  -2.894   2.345  0.00  0.00    +0.223 C 
ATOM     11  O   UNL     1       0.860  -2.519   1.563  0.00  0.00    -0.275 OA
ATOM     12  N   UNL     1      -0.869  -3.816   1.981  0.00  0.00    -0.284 N 
ATOM     13  C   UNL     1      -1.823  -4.274   2.791  0.00  0.00    +0.043 A 
ATOM     14  H   UNL     1      -0.812  -4.178   1.083  0.00  0.00    +0.155 HD
ENDBRANCH   1   9
BRANCH   1  15
ATOM     15  N   UNL     1       1.390  -1.760   5.639  0.00  0.00    +0.387 N 
ATOM     16  C   UNL     1       2.694  -1.998   6.309  0.00  0.00    -0.078 C 
ATOM     17  C   UNL     1       2.876  -0.736   7.189  0.00  0.00    -0.020 C 
ATOM     18  C   UNL     1       2.302   0.391   6.300  0.00  0.00    -0.020 C 
ATOM     19  C   UNL     1       1.365  -0.320   5.305  0.00  0.00    -0.078 C 
ATOM     20  H   UNL     1       0.630  -1.985   6.264  0.00  0.00    -0.081 HD
ENDBRANCH   1  15
BRANCH   1  21
ATOM     21  C   UNL     1       1.413  -4.027   4.764  0.00  0.00    +0.139 A 
ATOM     22  N   UNL     1       0.804  -4.649   5.743  0.00  0.00    -0.115 NA
ATOM     23  N   UNL     1       1.162  -5.886   5.713  0.00  0.00    -0.023 NA
ATOM     24  N   UNL     1       1.984  -6.069   4.739  0.00  0.00    -0.044 NA
ATOM     25  N   UNL     1       2.160  -4.948   4.127  0.00  0.00    -0.229 N 
BRANCH  25  26
ATOM     26  C   UNL     1       3.015  -4.718   2.960  0.00  0.00    +0.175 C 
BRANCH  26  27
ATOM     27  C   UNL     1       4.423  -4.341   3.425  0.00  0.00    +0.183 C 
BRANCH  27  28
ATOM     28  O   UNL     1       5.257  -4.117   2.287  0.00  0.00    -0.381 OA
ATOM     29  C   UNL     1       6.601  -3.757   2.612  0.00  0.00    +0.194 C 
ENDBRANCH  27  28
ENDBRANCH  26  27
ENDBRANCH  25  26
ENDBRANCH   1  21
TORSDOF 6
