REMARK  Name = ZINC04161777
REMARK  11 active torsions:
REMARK  status: ('A' for Active; 'I' for Inactive)
REMARK    1  A    between atoms: C_1  and  C_2
REMARK    2  A    between atoms: C_2  and  C_3
REMARK    3  A    between atoms: C_3  and  C_4
REMARK    4  A    between atoms: C_3  and  C_5
REMARK    5  A    between atoms: C_3  and  N_6
REMARK    6  A    between atoms: C_7  and  C_11
REMARK    7  A    between atoms: C_11  and  C_13
REMARK    8  A    between atoms: C_11  and  N_65
REMARK    9  A    between atoms: C_18  and  C_26
REMARK   10  A    between atoms: C_19  and  C_25
REMARK   11  A    between atoms: C_30  and  C_33
REMARK                            x       y       z     vdW  Elec       q    Type
REMARK                         _______ _______ _______ _____ _____    ______ ____
ROOT
ATOM      1  C   UNL     1       2.514   1.828  -0.117  0.00  0.00    +0.039 C 
ENDROOT
BRANCH   1   2
ATOM      2  C   UNL     1       3.142   1.906   1.250  0.00  0.00    +0.011 A 
ATOM      3  C   UNL     1       3.561   0.774   1.867  0.00  0.00    +0.017 A 
ATOM      4  C   UNL     1       4.167   0.884   3.195  0.00  0.00    -0.001 A 
ATOM      5  C   UNL     1       4.619  -0.249   3.881  0.00  0.00    +0.010 A 
ATOM      6  C   UNL     1       5.180  -0.112   5.119  0.00  0.00    +0.004 A 
ATOM      7  C   UNL     1       5.306   1.141   5.703  0.00  0.00    -0.046 A 
ATOM      8  C   UNL     1       4.867   2.271   5.046  0.00  0.00    -0.024 A 
ATOM      9  C   UNL     1       4.293   2.156   3.784  0.00  0.00    +0.052 A 
ATOM     10  N   UNL     1       3.847   3.269   3.104  0.00  0.00    -0.322 N 
ATOM     11  H   UNL     1       3.934   4.172   3.526  0.00  0.00    +0.169 HD
ATOM     12  C   UNL     1       3.297   3.159   1.882  0.00  0.00    +0.251 A 
ATOM     13  O   UNL     1       2.918   4.165   1.308  0.00  0.00    -0.268 OA
ATOM     14  C   UNL     1       5.010   3.624   5.693  0.00  0.00    +0.046 C 
ATOM     15  C   UNL     1       5.928   1.268   7.069  0.00  0.00    +0.044 C 
ENDBRANCH   1   2
BRANCH   1  22
ATOM     16  C   UNL     1       2.595   2.737  -2.360  0.00  0.00    -0.077 C 
ATOM     17  C   UNL     1       3.288   3.773  -3.247  0.00  0.00    -0.018 C 
ATOM     18  C   UNL     1       4.768   3.407  -3.389  0.00  0.00    -0.001 C 
ATOM     19  C   UNL     1       5.405   3.339  -1.998  0.00  0.00    -0.031 C 
ATOM     20  C   UNL     1       4.650   2.316  -1.147  0.00  0.00    -0.074 C 
ATOM     21  C   UNL     1       6.870   2.917  -2.126  0.00  0.00    +0.005 C 
ATOM     22  N   UNL     1       3.238   2.738  -1.028  0.00  0.00    +0.389 N 
ATOM     23  H   UNL     1       3.206   3.690  -0.644  0.00  0.00    -0.080 HD
ENDBRANCH   1  22
BRANCH   1  25
ATOM     24  N   UNL     1      -0.012   1.483  -0.193  0.00  0.00    -0.225 N 
ATOM     25  C   UNL     1       1.073   2.263  -0.034  0.00  0.00    +0.143 A 
ATOM     26  N   UNL     1       0.634   3.474   0.207  0.00  0.00    -0.115 NA
ATOM     27  N   UNL     1      -0.654   3.440   0.197  0.00  0.00    -0.023 NA
ATOM     28  N   UNL     1      -1.047   2.239  -0.050  0.00  0.00    -0.043 NA
BRANCH  24  29
ATOM     29  C   UNL     1      -0.017   0.046  -0.480  0.00  0.00    +0.061 C 
ATOM     30  C   UNL     1       0.654  -0.205  -1.832  0.00  0.00    +0.036 C 
ATOM     31  C   UNL     1       0.751  -0.696   0.616  0.00  0.00    +0.036 C 
BRANCH  29  33
ATOM     32  C   UNL     1      -1.465  -1.960  -0.825  0.00  0.00    +0.006 C 
ATOM     33  C   UNL     1      -1.460  -0.460  -0.525  0.00  0.00    +0.026 C 
ENDBRANCH  29  33
ENDBRANCH  24  29
ENDBRANCH   1  25
TORSDOF 5
