REMARK  Name = ZINC15911798
REMARK  8 active torsions:
REMARK  status: ('A' for Active; 'I' for Inactive)
REMARK    1  A    between atoms: C_4  and  N_7
REMARK    2  A    between atoms: C_12  and  C_13
REMARK    3  A    between atoms: C_12  and  N_67
REMARK    4  A    between atoms: C_13  and  C_14
REMARK    5  A    between atoms: N_16  and  N_17
REMARK    6  A    between atoms: C_18  and  C_20
REMARK    7  A    between atoms: C_20  and  C_21
REMARK    8  A    between atoms: C_21  and  N_22
REMARK                            x       y       z     vdW  Elec       q    Type
REMARK                         _______ _______ _______ _____ _____    ______ ____
ROOT
ATOM      1  N   UNL     1       6.394   1.082   0.082  0.00  0.00    -0.234 N 
ATOM      2  C   UNL     1       5.515   1.922   0.662  0.00  0.00    +0.231 C 
ATOM      3  O   UNL     1       5.668   2.256   1.818  0.00  0.00    -0.274 OA
ATOM      4  H   UNL     1       6.271   0.815  -0.843  0.00  0.00    +0.173 HD
ENDROOT
BRANCH   1   7
ATOM      5  C   UNL     1       8.364  -0.247   0.232  0.00  0.00    +0.227 C 
ATOM      6  O   UNL     1       8.211  -0.581  -0.924  0.00  0.00    -0.274 OA
ATOM      7  N   UNL     1       7.485   0.594   0.813  0.00  0.00    -0.234 N 
ATOM      8  H   UNL     1       7.607   0.861   1.738  0.00  0.00    +0.173 HD
BRANCH   5   9
ATOM      9  C   UNL     1       9.537  -0.771   1.019  0.00  0.00    +0.079 C 
BRANCH   9  10
ATOM     10  C   UNL     1      10.372  -1.698   0.133  0.00  0.00    -0.069 C 
BRANCH  10  16
ATOM     11  N   UNL     1      14.270  -2.755   1.372  0.00  0.00    -0.333 N 
ATOM     12  C   UNL     1      13.338  -3.839   1.030  0.00  0.00    +0.086 C 
ATOM     13  C   UNL     1      12.205  -3.280   0.166  0.00  0.00    -0.060 C 
ATOM     14  C   UNL     1      12.447  -1.126   1.242  0.00  0.00    -0.060 C 
ATOM     15  C   UNL     1      13.581  -1.684   2.106  0.00  0.00    +0.086 C 
ATOM     16  N   UNL     1      11.507  -2.220   0.923  0.00  0.00    +0.382 N 
ATOM     17  H   UNL     1      11.148  -2.618   1.800  0.00  0.00    -0.082 HD
BRANCH  11  21
ATOM     18  C   UNL     1      17.511  -4.205   3.547  0.00  0.00    +0.000 A 
ATOM     19  C   UNL     1      17.430  -2.858   3.246  0.00  0.00    +0.002 A 
ATOM     20  C   UNL     1      16.356  -2.373   2.524  0.00  0.00    +0.023 A 
ATOM     21  C   UNL     1      15.357  -3.241   2.102  0.00  0.00    +0.030 A 
ATOM     22  C   UNL     1      15.440  -4.593   2.410  0.00  0.00    +0.023 A 
ATOM     23  C   UNL     1      16.519  -5.072   3.127  0.00  0.00    +0.002 A 
ENDBRANCH  11  21
ENDBRANCH  10  16
ENDBRANCH   9  10
ENDBRANCH   5   9
ENDBRANCH   1   7
BRANCH   2  24
ATOM     24  C   UNL     1       4.342   2.447  -0.124  0.00  0.00    +0.116 C 
BRANCH  24  25
ATOM     25  C   UNL     1       3.507   3.373   0.762  0.00  0.00    +0.120 C 
BRANCH  25  26
ATOM     26  N   UNL     1       2.366   3.883  -0.003  0.00  0.00    -0.298 N 
ATOM     27  C   UNL     1       1.165   3.166   0.007  0.00  0.00    +0.048 A 
ATOM     28  C   UNL     1       1.179   1.780   0.000  0.00  0.00    +0.024 A 
ATOM     29  C   UNL     1      -0.013   1.076   0.008  0.00  0.00    +0.002 A 
ATOM     30  C   UNL     1      -1.221   1.746   0.017  0.00  0.00    +0.001 A 
ATOM     31  C   UNL     1      -1.247   3.131   0.030  0.00  0.00    +0.017 A 
ATOM     32  C   UNL     1      -0.059   3.838   0.023  0.00  0.00    +0.034 A 
ATOM     33  S   UNL     1      -0.060   5.604   0.034  0.00  0.00    -0.086 S 
ATOM     34  C   UNL     1       1.451   5.986  -0.796  0.00  0.00    +0.034 A 
ATOM     35  C   UNL     1       2.508   5.075  -0.722  0.00  0.00    +0.048 A 
ATOM     36  C   UNL     1       3.700   5.363  -1.369  0.00  0.00    +0.024 A 
ATOM     37  C   UNL     1       3.833   6.543  -2.080  0.00  0.00    +0.002 A 
ATOM     38  C   UNL     1       2.784   7.440  -2.150  0.00  0.00    +0.001 A 
ATOM     39  C   UNL     1       1.589   7.163  -1.506  0.00  0.00    +0.017 A 
ENDBRANCH  25  26
ENDBRANCH  24  25
ENDBRANCH   2  24
TORSDOF 8
