REMARK  Name = ZINC07190861
REMARK  6 active torsions:
REMARK  status: ('A' for Active; 'I' for Inactive)
REMARK    1  A    between atoms: C_1  and  C_2
REMARK    2  A    between atoms: C_5  and  N_8
REMARK    3  A    between atoms: C_12  and  S_13
REMARK    4  A    between atoms: S_13  and  C_14
REMARK    5  A    between atoms: C_14  and  C_16
REMARK    6  A    between atoms: C_14  and  C_17
REMARK                            x       y       z     vdW  Elec       q    Type
REMARK                         _______ _______ _______ _____ _____    ______ ____
ROOT
ATOM      1  N   UNL     1       5.225   1.718  -1.286  0.00  0.00    -0.259 N 
ATOM      2  C   UNL     1       6.030   2.813  -1.119  0.00  0.00    +0.225 A 
ATOM      3  N   UNL     1       5.302   3.776  -0.611  0.00  0.00    -0.112 NA
ATOM      4  N   UNL     1       3.995   3.297  -0.452  0.00  0.00    -0.120 NA
ATOM      5  C   UNL     1       3.966   2.054  -0.867  0.00  0.00    +0.198 A 
ATOM      6  N   UNL     1       7.382   2.887  -1.427  0.00  0.00    -0.295 N 
ATOM      7  C   UNL     1       8.178   3.212  -0.235  0.00  0.00    +0.136 C 
ATOM      8  C   UNL     1       9.663   3.224  -0.606  0.00  0.00    +0.179 C 
ATOM      9  O   UNL     1       9.875   4.157  -1.669  0.00  0.00    -0.377 OA
ATOM     10  C   UNL     1       9.116   3.870  -2.847  0.00  0.00    +0.179 C 
ATOM     11  C   UNL     1       7.625   3.864  -2.498  0.00  0.00    +0.136 C 
ENDROOT
BRANCH   1  16
ATOM     12  C   UNL     1       6.825  -3.316  -3.365  0.00  0.00    +0.044 C 
ATOM     13  C   UNL     1       6.400  -1.979  -2.813  0.00  0.00    -0.050 A 
ATOM     14  C   UNL     1       5.516  -1.189  -3.523  0.00  0.00    +0.005 A 
ATOM     15  C   UNL     1       5.125   0.037  -3.020  0.00  0.00    +0.026 A 
ATOM     16  C   UNL     1       5.620   0.474  -1.800  0.00  0.00    +0.052 A 
ATOM     17  C   UNL     1       6.512  -0.319  -1.091  0.00  0.00    +0.026 A 
ATOM     18  C   UNL     1       6.896  -1.546  -1.597  0.00  0.00    +0.005 A 
ENDBRANCH   1  16
BRANCH   5  19
ATOM     19  S   UNL     1       2.555   0.998  -0.878  0.00  0.00    -0.073 S 
BRANCH  19  20
ATOM     20  C   UNL     1       1.228   2.032  -0.199  0.00  0.00    +0.137 C 
ATOM     21  C   UNL     1       1.544   2.377   1.258  0.00  0.00    +0.029 C 
BRANCH  20  22
ATOM     22  C   UNL     1      -0.077   1.282  -0.266  0.00  0.00    +0.236 C 
ATOM     23  O   UNL     1      -0.080   0.070  -0.281  0.00  0.00    -0.274 OA
ATOM     24  N   UNL     1      -1.242   1.959  -0.313  0.00  0.00    -0.224 N 
ATOM     25  C   UNL     1      -2.579   1.351  -0.392  0.00  0.00    +0.136 C 
ATOM     26  C   UNL     1      -3.534   2.560  -0.416  0.00  0.00    +0.125 C 
ATOM     27  N   UNL     1      -2.633   3.721  -0.358  0.00  0.00    -0.297 N 
ATOM     28  C   UNL     1      -1.365   3.293  -0.302  0.00  0.00    +0.309 C 
ATOM     29  O   UNL     1      -0.413   4.046  -0.247  0.00  0.00    -0.252 OA
ATOM     30  H   UNL     1      -2.913   4.650  -0.360  0.00  0.00    +0.150 HD
ENDBRANCH  20  22
ENDBRANCH  19  20
ENDBRANCH   5  19
TORSDOF 4
