REMARK  Name = ZINC40035015
REMARK  6 active torsions:
REMARK  status: ('A' for Active; 'I' for Inactive)
REMARK    1  A    between atoms: C_1  and  C_2
REMARK    2  A    between atoms: C_2  and  C_3
REMARK    3  A    between atoms: C_3  and  C_33
REMARK    4  A    between atoms: N_15  and  C_27
REMARK    5  A    between atoms: N_18  and  N_19
REMARK    6  A    between atoms: C_20  and  C_21
REMARK                            x       y       z     vdW  Elec       q    Type
REMARK                         _______ _______ _______ _____ _____    ______ ____
ROOT
ATOM      1  C   UNL     1      -0.799   0.012   0.614  0.00  0.00    +0.004 C 
ATOM      2  C   UNL     1      -0.394  -1.362   0.085  0.00  0.00    +0.047 C 
ATOM      3  C   UNL     1      -0.267  -2.347   1.215  0.00  0.00    -0.037 A 
ATOM      4  C   UNL     1       0.702  -3.330   1.180  0.00  0.00    +0.004 A 
ATOM      5  C   UNL     1       0.810  -4.234   2.221  0.00  0.00    +0.000 A 
ATOM      6  C   UNL     1      -0.050  -4.163   3.303  0.00  0.00    +0.001 A 
ATOM      7  C   UNL     1      -1.023  -3.184   3.351  0.00  0.00    +0.010 A 
ATOM      8  C   UNL     1      -1.133  -2.271   2.306  0.00  0.00    +0.004 A 
ATOM      9  C   UNL     1      -2.159  -1.204   2.334  0.00  0.00    +0.084 A 
ATOM     10  C   UNL     1      -2.000  -0.099   1.510  0.00  0.00    +0.050 A 
ATOM     11  C   UNL     1      -2.976   0.905   1.531  0.00  0.00    +0.264 A 
ATOM     12  O   UNL     1      -2.872   1.891   0.819  0.00  0.00    -0.267 OA
ATOM     13  N   UNL     1      -4.036   0.760   2.356  0.00  0.00    -0.248 N 
ATOM     14  C   UNL     1      -4.141  -0.344   3.150  0.00  0.00    +0.223 A 
ATOM     15  N   UNL     1      -3.227  -1.292   3.134  0.00  0.00    -0.214 NA
ATOM     16  N   UNL     1      -5.223  -0.469   3.983  0.00  0.00    -0.206 N 
ATOM     17  C   UNL     1      -1.132   0.928  -0.565  0.00  0.00    +0.016 C 
ATOM     18  H   UNL     1      -5.939   0.184   3.950  0.00  0.00    +0.177 HD
ENDROOT
BRANCH  13  19
ATOM     19  C   UNL     1      -5.029   1.746   2.396  0.00  0.00    +0.053 A 
ATOM     20  C   UNL     1      -4.922   2.806   3.287  0.00  0.00    +0.026 A 
ATOM     21  C   UNL     1      -5.903   3.777   3.324  0.00  0.00    +0.002 A 
ATOM     22  C   UNL     1      -6.992   3.694   2.476  0.00  0.00    +0.000 A 
ATOM     23  C   UNL     1      -7.102   2.640   1.588  0.00  0.00    +0.002 A 
ATOM     24  C   UNL     1      -6.121   1.669   1.541  0.00  0.00    +0.026 A 
ENDBRANCH  13  19
BRANCH   1  26
ATOM     25  C   UNL     1      -0.024   2.000   1.913  0.00  0.00    +0.005 C 
ATOM     26  C   UNL     1       0.366   0.611   1.404  0.00  0.00    +0.008 C 
ENDBRANCH   1  26
BRANCH  16  27
ATOM     27  N   UNL     1      -5.294  -1.541   4.883  0.00  0.00    -0.188 NA
ATOM     28  C   UNL     1      -6.317  -1.660   5.671  0.00  0.00    +0.138 C 
BRANCH  28  29
ATOM     29  C   UNL     1      -6.392  -2.788   6.618  0.00  0.00    -0.005 A 
ATOM     30  C   UNL     1      -5.360  -3.728   6.673  0.00  0.00    +0.009 A 
ATOM     31  C   UNL     1      -5.436  -4.780   7.561  0.00  0.00    +0.001 A 
ATOM     32  C   UNL     1      -6.532  -4.907   8.396  0.00  0.00    +0.000 A 
ATOM     33  C   UNL     1      -7.559  -3.981   8.347  0.00  0.00    +0.001 A 
ATOM     34  C   UNL     1      -7.492  -2.919   7.469  0.00  0.00    +0.009 A 
ENDBRANCH  28  29
ENDBRANCH  16  27
TORSDOF 4
