REMARK  Name = ZINC19232131
REMARK  6 active torsions:
REMARK  status: ('A' for Active; 'I' for Inactive)
REMARK    1  A    between atoms: C_1  and  C_2
REMARK    2  A    between atoms: C_7  and  N_10
REMARK    3  A    between atoms: N_10  and  C_11
REMARK    4  A    between atoms: N_16  and  C_20
REMARK    5  A    between atoms: C_20  and  C_21
REMARK    6  A    between atoms: C_20  and  C_22
REMARK                            x       y       z     vdW  Elec       q    Type
REMARK                         _______ _______ _______ _____ _____    ______ ____
ROOT
ATOM      1  C   UNL     1      -1.240   2.144   0.020  0.00  0.00    +0.046 A 
ATOM      2  C   UNL     1      -1.266   3.530   0.033  0.00  0.00    +0.037 A 
ATOM      3  C   UNL     1      -2.515   4.163   0.036  0.00  0.00    +0.040 A 
ATOM      4  C   UNL     1      -2.947   5.556   0.046  0.00  0.00    +0.144 A 
ATOM      5  N   UNL     1      -4.250   5.566   0.053  0.00  0.00    -0.177 NA
ATOM      6  N   UNL     1      -4.740   4.256   0.048  0.00  0.00    -0.244 N 
ATOM      7  C   UNL     1      -3.686   3.380   0.038  0.00  0.00    +0.159 A 
ATOM      8  N   UNL     1      -3.601   2.056   0.031  0.00  0.00    -0.234 NA
ATOM      9  C   UNL     1      -2.441   1.438   0.021  0.00  0.00    +0.136 A 
ENDROOT
BRANCH   6  10
ATOM     10  C   UNL     1      -6.156   3.880   0.053  0.00  0.00    +0.103 C 
ATOM     11  C   UNL     1      -6.828   4.439   1.308  0.00  0.00    +0.032 C 
ATOM     12  C   UNL     1      -6.840   4.454  -1.190  0.00  0.00    +0.032 C 
ENDBRANCH   6  10
BRANCH   1  13
ATOM     13  N   UNL     1      -0.018   1.461   0.010  0.00  0.00    -0.340 N 
ATOM     14  H   UNL     1       0.927   2.024   0.009  0.00  0.00    +0.146 HD
BRANCH  13  20
ATOM     15  C   UNL     1       2.639  -2.512  -1.256  0.00  0.00    +0.007 C 
ATOM     16  C   UNL     1       1.331  -2.023  -0.631  0.00  0.00    -0.012 C 
ATOM     17  C   UNL     1       1.226  -2.542   0.804  0.00  0.00    +0.003 C 
ATOM     18  C   UNL     1      -0.082  -2.053   1.429  0.00  0.00    +0.002 C 
ATOM     19  C   UNL     1      -0.103  -0.523   1.437  0.00  0.00    +0.022 C 
ATOM     20  C   UNL     1       0.002  -0.004   0.002  0.00  0.00    +0.071 C 
ATOM     21  C   UNL     1       1.310  -0.493  -0.623  0.00  0.00    +0.025 C 
ENDBRANCH  13  20
ENDBRANCH   1  13
TORSDOF 3
