REMARK  Name = ZINC64895374
REMARK  8 active torsions:
REMARK  status: ('A' for Active; 'I' for Inactive)
REMARK    1  A    between atoms: C_1  and  C_2
REMARK    2  A    between atoms: C_2  and  O_3
REMARK    3  A    between atoms: O_3  and  C_4
REMARK    4  A    between atoms: C_4  and  C_6
REMARK    5  A    between atoms: C_7  and  C_31
REMARK    6  A    between atoms: C_9  and  C_13
REMARK    7  A    between atoms: C_10  and  C_12
REMARK    8  A    between atoms: C_19  and  C_22
REMARK                            x       y       z     vdW  Elec       q    Type
REMARK                         _______ _______ _______ _____ _____    ______ ____
ROOT
ATOM      1  C   UNL     1       3.194  -2.825   5.841  0.00  0.00    +0.261 C 
ATOM      2  O   UNL     1       3.328  -1.709   6.303  0.00  0.00    -0.269 OA
ATOM      3  N   UNL     1       3.701  -3.890   6.494  0.00  0.00    -0.296 N 
ATOM      4  C   UNL     1       3.668  -5.226   5.884  0.00  0.00    +0.108 C 
ATOM      5  C   UNL     1       5.087  -5.804   5.887  0.00  0.00    +0.020 C 
ATOM      6  C   UNL     1       5.641  -5.777   7.313  0.00  0.00    +0.016 C 
ATOM      7  C   UNL     1       5.708  -4.331   7.809  0.00  0.00    +0.092 C 
ATOM      8  C   UNL     1       4.302  -3.735   7.825  0.00  0.00    +0.120 C 
ENDROOT
BRANCH   7   9
ATOM      9  C   UNL     1       6.285  -4.303   9.201  0.00  0.00    +0.220 C 
ATOM     10  O   UNL     1       6.511  -5.342   9.785  0.00  0.00    -0.275 OA
ATOM     11  N   UNL     1       6.549  -3.123   9.797  0.00  0.00    -0.301 N 
ATOM     12  C   UNL     1       7.022  -3.128  11.164  0.00  0.00    +0.108 C 
ATOM     13  C   UNL     1       5.814  -3.081  12.132  0.00  0.00    +0.019 C 
ATOM     14  C   UNL     1       5.182  -1.754  12.095  0.00  0.00    +0.002 C 
ATOM     15  C   UNL     1       4.594  -1.375  10.739  0.00  0.00    +0.002 C 
ATOM     16  C   UNL     1       5.676  -0.779   9.873  0.00  0.00    +0.019 C 
ATOM     17  C   UNL     1       6.349  -1.881   9.027  0.00  0.00    +0.108 C 
ENDBRANCH   7   9
BRANCH   1  21
ATOM     18  C   UNL     1       1.228  -2.727   2.568  0.00  0.00    +0.066 C 
ATOM     19  C   UNL     1       1.625  -4.003   2.782  0.00  0.00    +0.049 C 
ATOM     20  N   UNL     1       2.324  -4.130   3.913  0.00  0.00    -0.250 NA
ATOM     21  C   UNL     1       2.475  -3.014   4.563  0.00  0.00    +0.111 C 
ATOM     22  C   UNL     1       1.773  -1.945   3.749  0.00  0.00    +0.078 C 
ATOM     23  C   UNL     1       2.764  -0.877   3.282  0.00  0.00    +0.019 C 
ATOM     24  C   UNL     1       1.314  -5.148   1.852  0.00  0.00    +0.066 C 
BRANCH  18  25
ATOM     25  C   UNL     1       0.447  -2.211   1.439  0.00  0.00    +0.338 C 
ATOM     26  O   UNL     1       0.078  -2.966   0.560  0.00  0.00    -0.245 OA
BRANCH  25  27
ATOM     27  O   UNL     1       0.140  -0.900   1.375  0.00  0.00    -0.462 OA
BRANCH  27  29
ATOM     28  C   UNL     1      -0.873   1.039   0.347  0.00  0.00    +0.048 C 
ATOM     29  C   UNL     1      -0.623  -0.467   0.247  0.00  0.00    +0.229 C 
ENDBRANCH  27  29
ENDBRANCH  25  27
ENDBRANCH  18  25
ENDBRANCH   1  21
TORSDOF 5
