REMARK  Name = ZINC58848879
REMARK  6 active torsions:
REMARK  status: ('A' for Active; 'I' for Inactive)
REMARK    1  A    between atoms: C_1  and  O_2
REMARK    2  A    between atoms: O_2  and  C_3
REMARK    3  A    between atoms: C_8  and  N_9
REMARK    4  A    between atoms: N_9  and  S_10
REMARK    5  A    between atoms: S_10  and  C_13
REMARK    6  A    between atoms: C_26  and  C_29
REMARK                            x       y       z     vdW  Elec       q    Type
REMARK                         _______ _______ _______ _____ _____    ______ ____
ROOT
ATOM      1  C   UNL     1      -1.948  -4.049   1.417  0.00  0.00    +0.109 A 
ATOM      2  C   UNL     1      -1.839  -3.995   2.795  0.00  0.00    +0.030 A 
ATOM      3  C   UNL     1      -2.971  -3.821   3.565  0.00  0.00    +0.025 A 
ATOM      4  C   UNL     1      -4.216  -3.697   2.959  0.00  0.00    +0.031 A 
ATOM      5  C   UNL     1      -4.325  -3.737   1.577  0.00  0.00    -0.018 A 
ATOM      6  C   UNL     1      -3.181  -3.916   0.813  0.00  0.00    +0.034 A 
ATOM      7  C   UNL     1      -5.638  -3.568   0.889  0.00  0.00    +0.049 C 
ATOM      8  C   UNL     1      -6.185  -4.878   0.380  0.00  0.00    -0.023 C 
ATOM      9  C   UNL     1      -7.489  -4.899   0.497  0.00  0.00    -0.030 C 
ATOM     10  C   UNL     1      -7.998  -3.611   1.105  0.00  0.00    +0.033 C 
ATOM     11  C   UNL     1      -6.746  -2.995   1.770  0.00  0.00    +0.029 C 
ATOM     12  C   UNL     1      -6.691  -3.471   3.207  0.00  0.00    +0.105 C 
ATOM     13  N   UNL     1      -5.349  -3.541   3.748  0.00  0.00    -0.336 N 
ATOM     14  H   UNL     1      -5.238  -3.499   4.711  0.00  0.00    +0.147 HD
ENDROOT
BRANCH  12  15
ATOM     15  C   UNL     1      -7.341  -4.828   3.287  0.00  0.00    -0.027 A 
ATOM     16  C   UNL     1      -6.634  -5.956   2.916  0.00  0.00    +0.005 A 
ATOM     17  C   UNL     1      -7.230  -7.201   2.989  0.00  0.00    +0.000 A 
ATOM     18  C   UNL     1      -8.533  -7.318   3.434  0.00  0.00    +0.000 A 
ATOM     19  C   UNL     1      -9.240  -6.190   3.807  0.00  0.00    +0.000 A 
ATOM     20  C   UNL     1      -8.643  -4.945   3.737  0.00  0.00    +0.005 A 
ENDBRANCH  12  15
BRANCH   1  21
ATOM     21  S   UNL     1      -0.506  -4.281   0.431  0.00  0.00    +0.072 S 
ATOM     22  O   UNL     1      -0.943  -4.836  -0.802  0.00  0.00    -0.150 OA
ATOM     23  O   UNL     1       0.453  -4.924   1.259  0.00  0.00    -0.150 OA
BRANCH  21  24
ATOM     24  N   UNL     1       0.098  -2.778   0.086  0.00  0.00    -0.213 N 
ATOM     25  H   UNL     1       0.172  -2.485  -0.836  0.00  0.00    +0.174 HD
BRANCH  24  31
ATOM     26  C   UNL     1       0.310  -0.555   1.017  0.00  0.00    +0.142 A 
ATOM     27  C   UNL     1       0.705   0.279   2.050  0.00  0.00    +0.047 A 
ATOM     28  C   UNL     1       1.293  -0.255   3.183  0.00  0.00    +0.004 A 
ATOM     29  C   UNL     1       1.487  -1.619   3.288  0.00  0.00    +0.002 A 
ATOM     30  C   UNL     1       1.095  -2.458   2.262  0.00  0.00    +0.028 A 
ATOM     31  C   UNL     1       0.501  -1.930   1.125  0.00  0.00    +0.090 A 
BRANCH  26  33
ATOM     32  C   UNL     1      -0.430   1.388  -0.139  0.00  0.00    +0.277 C 
ATOM     33  O   UNL     1      -0.267  -0.031  -0.098  0.00  0.00    -0.493 OA
ENDBRANCH  26  33
ENDBRANCH  24  31
ENDBRANCH  21  24
ENDBRANCH   1  21
TORSDOF 5
