REMARK  Name = ZINC20764168
REMARK  7 active torsions:
REMARK  status: ('A' for Active; 'I' for Inactive)
REMARK    1  A    between atoms: C_1  and  C_2
REMARK    2  A    between atoms: C_2  and  O_3
REMARK    3  A    between atoms: O_3  and  C_4
REMARK    4  A    between atoms: C_8  and  C_11
REMARK    5  A    between atoms: C_9  and  O_10
REMARK    6  A    between atoms: C_14  and  C_26
REMARK    7  A    between atoms: C_16  and  C_19
REMARK                            x       y       z     vdW  Elec       q    Type
REMARK                         _______ _______ _______ _____ _____    ______ ____
ROOT
ATOM      1  C   UNL     1       1.190   1.507   2.504  0.00  0.00    -0.028 C 
ATOM      2  C   UNL     1       1.474   0.053   2.894  0.00  0.00    +0.044 C 
ATOM      3  C   UNL     1       1.081  -0.168   4.328  0.00  0.00    +0.040 C 
ATOM      4  N   UNL     1       0.866   0.789   5.149  0.00  0.00    -0.299 NA
ATOM      5  C   UNL     1       0.964   2.202   4.803  0.00  0.00    +0.081 C 
ATOM      6  N   UNL     1       1.727   2.380   3.562  0.00  0.00    +0.401 N 
ATOM      7  H   UNL     1       2.781   2.126   3.747  0.00  0.00    -0.081 HD
ATOM      8  H   UNL     1       1.654   3.430   3.242  0.00  0.00    -0.081 HD
ENDROOT
BRANCH   5   9
ATOM      9  C   UNL     1      -0.422   2.765   4.617  0.00  0.00    -0.038 A 
ATOM     10  C   UNL     1      -1.483   2.237   5.330  0.00  0.00    +0.004 A 
ATOM     11  C   UNL     1      -2.754   2.752   5.161  0.00  0.00    +0.003 A 
ATOM     12  C   UNL     1      -2.966   3.796   4.279  0.00  0.00    +0.038 A 
ATOM     13  C   UNL     1      -1.905   4.325   3.566  0.00  0.00    +0.124 A 
ATOM     14  C   UNL     1      -0.630   3.811   3.739  0.00  0.00    +0.042 A 
ATOM     15  F   UNL     1      -2.111   5.344   2.703  0.00  0.00    -0.205 F 
ENDBRANCH   5   9
BRANCH   3  16
ATOM     16  C   UNL     1       0.935  -1.555   4.811  0.00  0.00    -0.004 A 
ATOM     17  C   UNL     1       1.156  -2.627   3.944  0.00  0.00    +0.011 A 
ATOM     18  C   UNL     1       1.024  -3.920   4.403  0.00  0.00    +0.020 A 
ATOM     19  C   UNL     1       0.663  -4.157   5.719  0.00  0.00    +0.041 A 
ATOM     20  C   UNL     1       0.437  -3.099   6.583  0.00  0.00    +0.020 A 
ATOM     21  C   UNL     1       0.571  -1.801   6.137  0.00  0.00    +0.011 A 
ATOM     22 CL   UNL     1       0.492  -5.789   6.288  0.00  0.00    -0.084 Cl
ENDBRANCH   3  16
BRANCH   1  27
ATOM     23  C   UNL     1       1.845   1.831  -1.210  0.00  0.00    +0.162 A 
ATOM     24  C   UNL     1       3.103   2.412  -1.214  0.00  0.00    +0.049 A 
ATOM     25  C   UNL     1       3.738   2.693  -0.018  0.00  0.00    +0.004 A 
ATOM     26  C   UNL     1       3.120   2.397   1.183  0.00  0.00    +0.006 A 
ATOM     27  C   UNL     1       1.863   1.823   1.193  0.00  0.00    -0.016 A 
ATOM     28  C   UNL     1       1.224   1.533  -0.001  0.00  0.00    +0.160 A 
BRANCH  28  29
ATOM     29  O   UNL     1      -0.011   0.963   0.007  0.00  0.00    -0.503 OA
ATOM     30  H   UNL     1      -0.501   0.727   0.963  0.00  0.00    +0.292 HD
ENDBRANCH  28  29
BRANCH  23  31
ATOM     31  O   UNL     1       1.219   1.555  -2.385  0.00  0.00    -0.489 OA
BRANCH  31  33
ATOM     32  C   UNL     1       1.062   1.506  -4.796  0.00  0.00    +0.048 C 
ATOM     33  C   UNL     1       1.917   1.889  -3.587  0.00  0.00    +0.226 C 
ENDBRANCH  31  33
ENDBRANCH  23  31
ENDBRANCH   1  27
TORSDOF 6
