REMARK  Name = ZINC16033759
REMARK  5 active torsions:
REMARK  status: ('A' for Active; 'I' for Inactive)
REMARK    1  A    between atoms: C_1  and  C_2
REMARK    2  A    between atoms: C_17  and  C_20
REMARK    3  A    between atoms: C_20  and  C_21
REMARK    4  A    between atoms: N_26  and  C_29
REMARK    5  A    between atoms: C_29  and  C_30
REMARK                            x       y       z     vdW  Elec       q    Type
REMARK                         _______ _______ _______ _____ _____    ______ ____
ROOT
ATOM      1  C   UNL     1      -0.016   1.567  -0.066  0.00  0.00    +0.044 C 
ATOM      2  C   UNL     1      -0.031   0.060  -0.049  0.00  0.00    -0.049 A 
ATOM      3  C   UNL     1      -0.011  -0.647  -1.239  0.00  0.00    +0.011 A 
ATOM      4  C   UNL     1      -0.025  -2.023  -1.222  0.00  0.00    +0.005 A 
ATOM      5  C   UNL     1      -0.059  -2.719  -0.017  0.00  0.00    +0.057 A 
ATOM      6  C   UNL     1      -0.079  -1.999   1.176  0.00  0.00    +0.063 A 
ATOM      7  C   UNL     1      -0.059  -0.619   1.155  0.00  0.00    +0.025 A 
ATOM      8 CL   UNL     1      -0.121  -2.841   2.694  0.00  0.00    -0.082 Cl
ATOM      9  N   UNL     1      -0.067  -4.096  -0.254  0.00  0.00    -0.282 N 
ATOM     10  C   UNL     1      -0.040  -4.385  -1.570  0.00  0.00    +0.243 C 
ATOM     11  O   UNL     1      -0.040  -5.490  -2.068  0.00  0.00    -0.273 OA
ATOM     12  C   UNL     1      -0.010  -3.070  -2.300  0.00  0.00    +0.136 C 
ATOM     13  C   UNL     1      -1.210  -2.924  -3.243  0.00  0.00    +0.122 C 
ATOM     14  C   UNL     1      -0.652  -2.148  -4.468  0.00  0.00    +0.107 C 
ATOM     15  C   UNL     1       0.830  -1.881  -4.127  0.00  0.00    +0.076 C 
ATOM     16  N   UNL     1       1.189  -2.953  -3.151  0.00  0.00    -0.295 NA
ATOM     17  C   UNL     1      -0.747  -3.154  -5.592  0.00  0.00    +0.227 C 
ATOM     18  O   UNL     1      -0.404  -2.958  -6.738  0.00  0.00    -0.275 OA
ATOM     19  N   UNL     1      -1.270  -4.293  -5.126  0.00  0.00    -0.237 N 
ATOM     20  C   UNL     1      -1.579  -4.277  -3.809  0.00  0.00    +0.229 C 
ATOM     21  O   UNL     1      -2.068  -5.190  -3.178  0.00  0.00    -0.275 OA
ATOM     22  H   UNL     1      -0.090  -4.766   0.447  0.00  0.00    +0.155 HD
ATOM     23  H   UNL     1       1.994  -2.684  -2.605  0.00  0.00    +0.124 HD
ENDROOT
BRANCH  15  24
ATOM     24  C   UNL     1       1.696  -2.010  -5.381  0.00  0.00    +0.115 C 
BRANCH  24  25
ATOM     25  C   UNL     1       3.116  -1.627  -5.053  0.00  0.00    +0.212 C 
ATOM     26  O   UNL     1       3.407  -1.285  -3.926  0.00  0.00    -0.276 OA
ATOM     27  N   UNL     1       4.064  -1.665  -6.011  0.00  0.00    -0.329 N 
ATOM     28  H   UNL     1       3.831  -1.939  -6.912  0.00  0.00    +0.145 HD
ATOM     29  H   UNL     1       4.978  -1.419  -5.799  0.00  0.00    +0.145 HD
ENDBRANCH  24  25
ENDBRANCH  15  24
BRANCH  19  30
ATOM     30  C   UNL     1      -1.496  -5.467  -5.973  0.00  0.00    +0.153 C 
BRANCH  30  31
ATOM     31  C   UNL     1      -2.931  -5.486  -6.433  0.00  0.00    -0.011 A 
ATOM     32  C   UNL     1      -3.869  -6.227  -5.739  0.00  0.00    +0.006 A 
ATOM     33  C   UNL     1      -5.185  -6.244  -6.160  0.00  0.00    +0.000 A 
ATOM     34  C   UNL     1      -5.564  -5.521  -7.276  0.00  0.00    +0.001 A 
ATOM     35  C   UNL     1      -4.627  -4.779  -7.970  0.00  0.00    +0.020 A 
ATOM     36  C   UNL     1      -3.311  -4.757  -7.545  0.00  0.00    +0.046 A 
ATOM     37 CL   UNL     1      -2.134  -3.821  -8.413  0.00  0.00    -0.083 Cl
ENDBRANCH  30  31
ENDBRANCH  19  30
TORSDOF 4
