REMARK  Name = ZINC01299429
REMARK  7 active torsions:
REMARK  status: ('A' for Active; 'I' for Inactive)
REMARK    1  A    between atoms: C_1  and  N_2
REMARK    2  A    between atoms: N_7  and  C_10
REMARK    3  A    between atoms: C_12  and  N_34
REMARK    4  A    between atoms: C_13  and  C_32
REMARK    5  A    between atoms: C_14  and  C_16
REMARK    6  A    between atoms: N_18  and  C_25
REMARK    7  A    between atoms: C_25  and  C_26
REMARK                            x       y       z     vdW  Elec       q    Type
REMARK                         _______ _______ _______ _____ _____    ______ ____
ROOT
ATOM      1  C   UNL     1      -1.148   0.009  -6.626  0.00  0.00    +0.157 C 
ATOM      2  N   UNL     1      -0.360  -0.930  -5.825  0.00  0.00    -0.264 N 
ATOM      3  C   UNL     1       0.927  -0.650  -5.537  0.00  0.00    +0.264 A 
ATOM      4  O   UNL     1       1.435   0.382  -5.941  0.00  0.00    -0.267 OA
ATOM      5  C   UNL     1       1.679  -1.556  -4.767  0.00  0.00    +0.090 A 
ATOM      6  C   UNL     1       1.092  -2.700  -4.326  0.00  0.00    +0.216 A 
ATOM      7  N   UNL     1      -0.223  -2.947  -4.642  0.00  0.00    -0.267 N 
ATOM      8  C   UNL     1      -0.924  -2.068  -5.380  0.00  0.00    +0.334 A 
ATOM      9  O   UNL     1      -2.086  -2.305  -5.650  0.00  0.00    -0.246 OA
ATOM     10  C   UNL     1      -0.865  -4.177  -4.173  0.00  0.00    +0.157 C 
ATOM     11  O   UNL     1       1.774  -3.594  -3.585  0.00  0.00    -0.424 OA
ATOM     12  C   UNL     1       3.119  -3.584  -3.586  0.00  0.00    +0.200 C 
ATOM     13  C   UNL     1       3.821  -2.495  -3.984  0.00  0.00    +0.098 C 
ATOM     14  C   UNL     1       3.116  -1.249  -4.444  0.00  0.00    +0.107 C 
ENDROOT
BRANCH  14  15
ATOM     15  C   UNL     1       3.171  -0.212  -3.351  0.00  0.00    -0.009 A 
ATOM     16  C   UNL     1       2.666  -0.328  -2.113  0.00  0.00    +0.091 A 
ATOM     17  N   UNL     1       2.903   0.817  -1.403  0.00  0.00    -0.342 N 
ATOM     18  C   UNL     1       3.593   1.717  -2.183  0.00  0.00    +0.050 A 
ATOM     19  C   UNL     1       3.791   1.113  -3.438  0.00  0.00    +0.004 A 
ATOM     20  C   UNL     1       4.471   1.802  -4.443  0.00  0.00    +0.010 A 
ATOM     21  C   UNL     1       4.942   3.062  -4.203  0.00  0.00    +0.001 A 
ATOM     22  C   UNL     1       4.749   3.663  -2.967  0.00  0.00    +0.002 A 
ATOM     23  C   UNL     1       4.081   3.001  -1.960  0.00  0.00    +0.026 A 
BRANCH  17  24
ATOM     24  C   UNL     1       2.490   1.048  -0.016  0.00  0.00    +0.157 C 
BRANCH  24  25
ATOM     25  C   UNL     1       1.175   1.783   0.000  0.00  0.00    -0.028 A 
ATOM     26  C   UNL     1      -0.013   1.076   0.008  0.00  0.00    +0.005 A 
ATOM     27  C   UNL     1      -1.219   1.751   0.017  0.00  0.00    +0.000 A 
ATOM     28  C   UNL     1      -1.238   3.133   0.030  0.00  0.00    +0.000 A 
ATOM     29  C   UNL     1      -0.050   3.840   0.022  0.00  0.00    +0.000 A 
ATOM     30  C   UNL     1       1.156   3.165   0.008  0.00  0.00    +0.005 A 
ENDBRANCH  24  25
ENDBRANCH  17  24
ENDBRANCH  14  15
BRANCH  12  31
ATOM     31  N   UNL     1       3.797  -4.704  -3.174  0.00  0.00    -0.328 N 
ATOM     32  H   UNL     1       3.307  -5.490  -2.887  0.00  0.00    +0.145 HD
ATOM     33  H   UNL     1       4.767  -4.709  -3.170  0.00  0.00    +0.145 HD
ENDBRANCH  12  31
BRANCH  13  34
ATOM     34  C   UNL     1       5.252  -2.532  -3.966  0.00  0.00    +0.101 C 
ATOM     35  N   UNL     1       6.387  -2.561  -3.952  0.00  0.00    -0.191 NA
ENDBRANCH  13  34
TORSDOF 5
