REMARK  Name = ZINC30825242
REMARK  8 active torsions:
REMARK  status: ('A' for Active; 'I' for Inactive)
REMARK    1  A    between atoms: C_1  and  C_2
REMARK    2  A    between atoms: C_2  and  N_3
REMARK    3  A    between atoms: N_3  and  C_4
REMARK    4  A    between atoms: N_3  and  C_6
REMARK    5  A    between atoms: C_4  and  C_5
REMARK    6  A    between atoms: C_6  and  C_7
REMARK    7  A    between atoms: C_7  and  N_8
REMARK    8  A    between atoms: C_11  and  C_17
REMARK                            x       y       z     vdW  Elec       q    Type
REMARK                         _______ _______ _______ _____ _____    ______ ____
ROOT
ATOM      1  N   UNL     1      -1.094   1.282  -1.863  0.00  0.00    -0.277 NA
ATOM      2  C   UNL     1      -2.302   0.636  -2.383  0.00  0.00    +0.214 C 
ATOM      3  N   UNL     1      -3.387   0.694  -1.411  0.00  0.00    -0.288 N 
ATOM      4  C   UNL     1      -4.732   0.547  -1.628  0.00  0.00    +0.166 A 
ATOM      5  N   UNL     1      -5.326   0.668  -0.460  0.00  0.00    -0.128 NA
ATOM      6  N   UNL     1      -4.449   0.880   0.461  0.00  0.00    -0.122 NA
ATOM      7  C   UNL     1      -3.255   0.908  -0.066  0.00  0.00    +0.194 A 
ATOM      8  S   UNL     1      -1.706   1.174   0.739  0.00  0.00    -0.070 S 
ATOM      9  C   UNL     1      -0.618   0.653  -0.620  0.00  0.00    +0.163 C 
ENDROOT
BRANCH   4  10
ATOM     10  C   UNL     1      -5.392   0.300  -2.928  0.00  0.00    +0.020 A 
ATOM     11  C   UNL     1      -6.761   0.527  -3.074  0.00  0.00    +0.011 A 
ATOM     12  C   UNL     1      -7.370   0.298  -4.290  0.00  0.00    +0.002 A 
ATOM     13  C   UNL     1      -6.628  -0.164  -5.363  0.00  0.00    +0.015 A 
ATOM     14  C   UNL     1      -5.270  -0.395  -5.224  0.00  0.00    +0.019 A 
ATOM     15  C   UNL     1      -4.648  -0.166  -4.013  0.00  0.00    +0.027 A 
ATOM     16 BR   UNL     1      -4.266  -1.027  -6.697  0.00  0.00    -0.050 Br
ENDBRANCH   4  10
BRANCH   1  17
ATOM     17  C   UNL     1      -0.033   1.311  -2.878  0.00  0.00    +0.068 C 
BRANCH  17  18
ATOM     18  C   UNL     1       1.095   2.234  -2.412  0.00  0.00    -0.063 C 
BRANCH  18  19
ATOM     19  N   UNL     1       2.156   2.262  -3.428  0.00  0.00    +0.380 N 
ATOM     20  H   UNL     1       1.691   2.499  -4.396  0.00  0.00    -0.082 HD
BRANCH  19  22
ATOM     21  C   UNL     1       2.555   4.677  -3.495  0.00  0.00    -0.017 C 
ATOM     22  C   UNL     1       3.140   3.311  -3.131  0.00  0.00    -0.082 C 
ENDBRANCH  19  22
BRANCH  19  23
ATOM     23  C   UNL     1       2.805   0.950  -3.547  0.00  0.00    -0.082 C 
ATOM     24  C   UNL     1       3.613   0.897  -4.846  0.00  0.00    -0.017 C 
ENDBRANCH  19  23
ENDBRANCH  18  19
ENDBRANCH  17  18
ENDBRANCH   1  17
TORSDOF 6
