REMARK  Name = ZINC30883555
REMARK  15 active torsions:
REMARK  status: ('A' for Active; 'I' for Inactive)
REMARK    1  A    between atoms: C_1  and  C_2
REMARK    2  A    between atoms: C_4  and  C_24
REMARK    3  A    between atoms: C_6  and  C_21
REMARK    4  A    between atoms: C_9  and  C_11
REMARK    5  A    between atoms: C_11  and  C_12
REMARK    6  A    between atoms: C_15  and  C_17
REMARK    7  A    between atoms: C_17  and  C_18
REMARK    8  A    between atoms: C_17  and  C_19
REMARK    9  A    between atoms: C_17  and  C_20
REMARK   10  A    between atoms: C_21  and  C_22
REMARK   11  A    between atoms: C_21  and  C_23
REMARK   12  A    between atoms: C_24  and  N_25
REMARK   13  A    between atoms: N_28  and  C_31
REMARK   14  A    between atoms: C_31  and  C_32
REMARK   15  A    between atoms: C_32  and  O_33
REMARK                            x       y       z     vdW  Elec       q    Type
REMARK                         _______ _______ _______ _____ _____    ______ ____
ROOT
ATOM      1  C   UNL     1       2.199   2.848   0.334  0.00  0.00    +0.039 C 
ATOM      2  C   UNL     1       1.142   3.353   1.283  0.00  0.00    -0.073 C 
ATOM      3  C   UNL     1       0.549   2.491   2.045  0.00  0.00    -0.026 C 
ATOM      4  C   UNL     1      -0.527   2.841   3.031  0.00  0.00    -0.002 C 
ATOM      5  C   UNL     1      -0.518   4.346   3.309  0.00  0.00    -0.003 C 
ATOM      6  C   UNL     1      -0.501   5.088   1.966  0.00  0.00    +0.012 C 
ATOM      7  C   UNL     1       0.847   4.825   1.289  0.00  0.00    +0.024 C 
ENDROOT
BRANCH   5   8
ATOM      8  C   UNL     1      -1.774   4.731   4.093  0.00  0.00    -0.014 C 
ATOM      9  C   UNL     1      -1.685   6.201   4.510  0.00  0.00    +0.007 C 
ATOM     10  C   UNL     1      -3.009   4.526   3.213  0.00  0.00    +0.007 C 
ENDBRANCH   5   8
BRANCH   7  11
ATOM     11  C   UNL     1       1.953   5.560   2.048  0.00  0.00    +0.105 C 
BRANCH  11  12
ATOM     12  C   UNL     1       1.734   7.047   1.939  0.00  0.00    +0.218 A 
ATOM     13  N   UNL     1       1.126   7.803   2.808  0.00  0.00    -0.112 NA
ATOM     14  N   UNL     1       1.124   9.020   2.390  0.00  0.00    -0.112 NA
ATOM     15  C   UNL     1       1.731   9.081   1.239  0.00  0.00    +0.223 A 
ATOM     16  O   UNL     1       2.135   7.838   0.929  0.00  0.00    -0.424 OA
BRANCH  15  17
ATOM     17  C   UNL     1       1.946  10.321   0.409  0.00  0.00    +0.040 C 
ATOM     18  C   UNL     1       2.762  11.336   1.211  0.00  0.00    +0.020 C 
ATOM     19  C   UNL     1       2.702   9.955  -0.870  0.00  0.00    +0.020 C 
ATOM     20  C   UNL     1       0.591  10.931   0.043  0.00  0.00    +0.020 C 
ENDBRANCH  15  17
ENDBRANCH  11  12
ENDBRANCH   7  11
BRANCH   4  21
ATOM     21  C   UNL     1      -0.285   2.083   4.337  0.00  0.00    -0.071 C 
BRANCH  21  22
ATOM     22  N   UNL     1      -0.433   0.640   4.101  0.00  0.00    +0.382 N 
ATOM     23  C   UNL     1      -1.821   0.303   3.757  0.00  0.00    -0.063 C 
ATOM     24  C   UNL     1      -1.917  -1.192   3.441  0.00  0.00    +0.066 C 
ATOM     25  N   UNL     1      -1.463  -1.966   4.604  0.00  0.00    -0.304 NA
ATOM     26  C   UNL     1      -0.075  -1.628   4.948  0.00  0.00    +0.066 C 
ATOM     27  C   UNL     1       0.021  -0.134   5.264  0.00  0.00    -0.063 C 
ATOM     28  H   UNL     1       0.204   0.372   3.245  0.00  0.00    -0.082 HD
BRANCH  25  29
ATOM     29  C   UNL     1      -1.611  -3.408   4.368  0.00  0.00    +0.112 C 
BRANCH  29  30
ATOM     30  C   UNL     1      -0.926  -3.782   3.052  0.00  0.00    +0.171 C 
BRANCH  30  31
ATOM     31  O   UNL     1       0.487  -3.616   3.187  0.00  0.00    -0.394 OA
ATOM     32  H   UNL     1       1.150  -3.839   2.338  0.00  0.00    +0.209 HD
ENDBRANCH  30  31
ENDBRANCH  29  30
ENDBRANCH  25  29
ENDBRANCH  21  22
ENDBRANCH   4  21
TORSDOF 9
