REMARK  Name = ZINC35491980
REMARK  7 active torsions:
REMARK  status: ('A' for Active; 'I' for Inactive)
REMARK    1  A    between atoms: C_1  and  C_2
REMARK    2  A    between atoms: C_2  and  O_3
REMARK    3  A    between atoms: O_3  and  C_4
REMARK    4  A    between atoms: C_4  and  C_6
REMARK    5  A    between atoms: C_12  and  C_14
REMARK    6  A    between atoms: N_18  and  C_19
REMARK    7  A    between atoms: C_19  and  C_20
REMARK                            x       y       z     vdW  Elec       q    Type
REMARK                         _______ _______ _______ _____ _____    ______ ____
ROOT
ATOM      1  C   UNL     1       4.367  -5.885  -4.100  0.00  0.00    +0.109 A 
ATOM      2  C   UNL     1       5.460  -6.712  -4.236  0.00  0.00    +0.079 A 
ATOM      3  C   UNL     1       4.988  -8.024  -4.354  0.00  0.00    +0.153 A 
ATOM      4  C   UNL     1       3.599  -7.974  -4.286  0.00  0.00    +0.088 A 
ATOM      5  N   UNL     1       3.227  -6.665  -4.125  0.00  0.00    -0.331 N 
ATOM      6  C   UNL     1       3.147  -9.309  -4.407  0.00  0.00    +0.067 A 
ATOM      7  C   UNL     1       4.237 -10.087  -4.537  0.00  0.00    +0.198 A 
ATOM      8  O   UNL     1       5.340  -9.320  -4.506  0.00  0.00    -0.461 OA
ENDROOT
BRANCH   1  15
ATOM      9  C   UNL     1       6.957  -2.239  -6.309  0.00  0.00    +0.101 C 
ATOM     10  C   UNL     1       5.723  -1.625  -5.643  0.00  0.00    +0.033 C 
ATOM     11  C   UNL     1       5.517  -2.270  -4.269  0.00  0.00    +0.109 C 
ATOM     12  N   UNL     1       5.450  -3.728  -4.436  0.00  0.00    -0.296 N 
ATOM     13  C   UNL     1       6.543  -4.409  -5.144  0.00  0.00    +0.109 C 
ATOM     14  C   UNL     1       6.738  -3.740  -6.508  0.00  0.00    +0.033 C 
ATOM     15  C   UNL     1       4.407  -4.428  -3.948  0.00  0.00    +0.263 C 
ATOM     16  O   UNL     1       3.498  -3.850  -3.381  0.00  0.00    -0.268 OA
BRANCH   9  17
ATOM     17  C   UNL     1       7.183  -1.583  -7.647  0.00  0.00    +0.310 C 
ATOM     18  O   UNL     1       7.171  -2.248  -8.656  0.00  0.00    -0.251 OA
BRANCH  17  19
ATOM     19  O   UNL     1       7.399  -0.260  -7.718  0.00  0.00    -0.465 OA
BRANCH  19  21
ATOM     20  C   UNL     1       7.833   1.803  -8.900  0.00  0.00    +0.048 C 
ATOM     21  C   UNL     1       7.606   0.294  -9.019  0.00  0.00    +0.229 C 
ENDBRANCH  19  21
ENDBRANCH  17  19
ENDBRANCH   9  17
ENDBRANCH   1  15
BRANCH   5  22
ATOM     22  C   UNL     1       1.852  -6.174  -4.004  0.00  0.00    +0.154 C 
BRANCH  22  23
ATOM     23  C   UNL     1       1.269  -5.940  -5.399  0.00  0.00    +0.138 C 
ATOM     24  C   UNL     1      -0.117  -5.303  -5.273  0.00  0.00    +0.033 C 
ATOM     25  C   UNL     1      -0.718  -5.126  -6.671  0.00  0.00    +0.005 C 
ATOM     26  C   UNL     1      -0.766  -6.489  -7.370  0.00  0.00    +0.028 C 
ATOM     27  C   UNL     1       0.645  -7.080  -7.415  0.00  0.00    +0.160 C 
ATOM     28  O   UNL     1       1.158  -7.188  -6.085  0.00  0.00    -0.375 OA
ENDBRANCH  22  23
ENDBRANCH   5  22
TORSDOF 6
