REMARK  Name = ZINC65488649
REMARK  8 active torsions:
REMARK  status: ('A' for Active; 'I' for Inactive)
REMARK    1  A    between atoms: C_1  and  C_2
REMARK    2  A    between atoms: C_2  and  C_3
REMARK    3  A    between atoms: C_3  and  C_4
REMARK    4  A    between atoms: C_4  and  C_5
REMARK    5  A    between atoms: C_11  and  C_13
REMARK    6  A    between atoms: C_13  and  O_19
REMARK    7  A    between atoms: O_19  and  C_20
REMARK    8  A    between atoms: C_23  and  C_26
REMARK                            x       y       z     vdW  Elec       q    Type
REMARK                         _______ _______ _______ _____ _____    ______ ____
ROOT
ATOM      1  C   UNL     1      -4.751  -0.584  -2.763  0.00  0.00    +0.182 C 
ATOM      2  C   UNL     1      -3.795  -0.640  -3.958  0.00  0.00    +0.038 C 
ATOM      3  C   UNL     1      -2.733   0.452  -3.806  0.00  0.00    -0.078 C 
ATOM      4  N   UNL     1      -3.383   1.768  -3.758  0.00  0.00    +0.379 N 
ATOM      5  C   UNL     1      -4.247   1.854  -2.575  0.00  0.00    -0.078 C 
ATOM      6  C   UNL     1      -5.366   0.816  -2.679  0.00  0.00    +0.038 C 
ATOM      7  H   UNL     1      -2.678   2.488  -3.712  0.00  0.00    -0.086 HD
ATOM      8  H   UNL     1      -3.939   1.897  -4.590  0.00  0.00    -0.086 HD
ENDROOT
BRANCH   1  14
ATOM      9  C   UNL     1      -4.071  -1.687   0.895  0.00  0.00    +0.099 C 
ATOM     10  C   UNL     1      -5.214  -2.017   1.818  0.00  0.00    -0.007 C 
ATOM     11  C   UNL     1      -6.351  -1.832   1.208  0.00  0.00    -0.011 C 
ATOM     12  C   UNL     1      -6.112  -1.355  -0.200  0.00  0.00    +0.135 C 
ATOM     13  N   UNL     1      -4.653  -1.264  -0.387  0.00  0.00    -0.288 N 
ATOM     14  C   UNL     1      -3.991  -0.877  -1.495  0.00  0.00    +0.260 C 
ATOM     15  O   UNL     1      -2.784  -0.764  -1.472  0.00  0.00    -0.271 OA
BRANCH   9  16
ATOM     16  C   UNL     1      -3.196  -2.924   0.687  0.00  0.00    +0.027 C 
BRANCH  16  17
ATOM     17  C   UNL     1      -1.975  -2.549  -0.155  0.00  0.00    +0.002 C 
BRANCH  17  19
ATOM     18  C   UNL     1       0.227  -3.349  -1.026  0.00  0.00    +0.004 C 
ATOM     19  C   UNL     1      -0.994  -3.724  -0.184  0.00  0.00    -0.003 C 
ENDBRANCH  17  19
ENDBRANCH  16  17
ENDBRANCH   9  16
ENDBRANCH   1  14
BRANCH   1  20
ATOM     20  O   UNL     1      -5.788  -1.552  -2.933  0.00  0.00    -0.477 OA
BRANCH  20  21
ATOM     21  C   UNL     1      -5.409  -2.855  -3.006  0.00  0.00    +0.122 A 
ATOM     22  C   UNL     1      -4.078  -3.203  -2.829  0.00  0.00    +0.046 A 
ATOM     23  C   UNL     1      -3.695  -4.528  -2.902  0.00  0.00    +0.007 A 
ATOM     24  C   UNL     1      -4.638  -5.508  -3.152  0.00  0.00    -0.050 A 
ATOM     25  C   UNL     1      -5.966  -5.165  -3.329  0.00  0.00    +0.007 A 
ATOM     26  C   UNL     1      -6.354  -3.841  -3.250  0.00  0.00    +0.046 A 
ATOM     27  C   UNL     1      -4.218  -6.953  -3.232  0.00  0.00    +0.044 C 
ENDBRANCH  20  21
ENDBRANCH   1  20
TORSDOF 6
