REMARK  Name = ZINC09347503
REMARK  6 active torsions:
REMARK  status: ('A' for Active; 'I' for Inactive)
REMARK    1  A    between atoms: C_1  and  C_2
REMARK    2  A    between atoms: C_2  and  O_3
REMARK    3  A    between atoms: O_3  and  C_4
REMARK    4  A    between atoms: C_12  and  N_17
REMARK    5  A    between atoms: C_13  and  C_14
REMARK    6  A    between atoms: C_18  and  C_20
REMARK                            x       y       z     vdW  Elec       q    Type
REMARK                         _______ _______ _______ _____ _____    ______ ____
ROOT
ATOM      1  C   UNL     1       7.530  -1.776  -1.141  0.00  0.00    +0.403 C 
ATOM      2  O   UNL     1       8.645  -1.330  -1.328  0.00  0.00    -0.226 OA
ATOM      3  N   UNL     1       6.685  -1.147  -0.300  0.00  0.00    -0.262 N 
ATOM      4  C   UNL     1       7.083   0.081   0.405  0.00  0.00    +0.116 C 
ATOM      5  C   UNL     1       6.210   1.247  -0.063  0.00  0.00    +0.056 C 
ATOM      6  C   UNL     1       4.748   0.819  -0.041  0.00  0.00    -0.020 A 
ATOM      7  C   UNL     1       4.399  -0.486  -0.041  0.00  0.00    +0.013 A 
ATOM      8  S   UNL     1       2.629  -0.484  -0.018  0.00  0.00    -0.076 S 
ATOM      9  C   UNL     1       2.352   1.227  -0.014  0.00  0.00    +0.085 A 
ATOM     10  C   UNL     1       3.636   1.755  -0.023  0.00  0.00    +0.068 A 
ATOM     11  C   UNL     1       5.325  -1.665  -0.052  0.00  0.00    +0.153 C 
ENDROOT
BRANCH  10  12
ATOM     12  C   UNL     1       3.862   3.203  -0.016  0.00  0.00    +0.244 C 
ATOM     13  O   UNL     1       3.966   3.797   1.042  0.00  0.00    -0.270 OA
ATOM     14  N   UNL     1       3.954   3.877  -1.179  0.00  0.00    -0.325 N 
ATOM     15  H   UNL     1       3.871   3.403  -2.022  0.00  0.00    +0.145 HD
ATOM     16  H   UNL     1       4.103   4.835  -1.174  0.00  0.00    +0.145 HD
ENDBRANCH  10  12
BRANCH   9  17
ATOM     17  N   UNL     1       1.143   1.903   0.001  0.00  0.00    -0.275 N 
ATOM     18  C   UNL     1      -0.014   1.213   0.009  0.00  0.00    +0.255 C 
ATOM     19  O   UNL     1       0.002  -0.004   0.002  0.00  0.00    -0.269 OA
ATOM     20  H   UNL     1       1.130   2.873   0.007  0.00  0.00    +0.156 HD
BRANCH  18  21
ATOM     21  C   UNL     1      -1.292   1.928   0.019  0.00  0.00    +0.075 A 
ATOM     22  C   UNL     1      -2.581   1.415   0.022  0.00  0.00    +0.022 A 
ATOM     23  C   UNL     1      -3.613   2.318   0.032  0.00  0.00    +0.024 A 
ATOM     24  C   UNL     1      -3.331   3.649   0.038  0.00  0.00    +0.056 A 
ATOM     25  S   UNL     1      -1.597   3.686   0.037  0.00  0.00    -0.077 S 
ATOM     26 BR   UNL     1      -4.536   5.106   0.052  0.00  0.00    -0.043 Br
ENDBRANCH  18  21
ENDBRANCH   9  17
BRANCH   1  27
ATOM     27  O   UNL     1       7.139  -2.898  -1.774  0.00  0.00    -0.451 OA
BRANCH  27  29
ATOM     28  C   UNL     1       7.482  -4.774  -3.288  0.00  0.00    +0.048 C 
ATOM     29  C   UNL     1       8.101  -3.522  -2.665  0.00  0.00    +0.230 C 
ENDBRANCH  27  29
ENDBRANCH   1  27
TORSDOF 5
