REMARK  Name = ZINC40733784
REMARK  8 active torsions:
REMARK  status: ('A' for Active; 'I' for Inactive)
REMARK    1  A    between atoms: C_1  and  C_2
REMARK    2  A    between atoms: C_2  and  C_3
REMARK    3  A    between atoms: C_11  and  N_28
REMARK    4  A    between atoms: C_12  and  N_16
REMARK    5  A    between atoms: N_16  and  N_17
REMARK    6  A    between atoms: N_17  and  S_18
REMARK    7  A    between atoms: S_18  and  C_21
REMARK    8  A    between atoms: C_24  and  C_27
REMARK                            x       y       z     vdW  Elec       q    Type
REMARK                         _______ _______ _______ _____ _____    ______ ____
ROOT
ATOM      1  C   UNL     1       1.398   0.537   2.359  0.00  0.00    +0.075 C 
ATOM      2  C   UNL     1       2.322   0.012   1.256  0.00  0.00    +0.022 C 
ATOM      3  C   UNL     1       2.351  -1.517   1.305  0.00  0.00    +0.003 C 
ATOM      4  C   UNL     1       0.944  -2.064   1.058  0.00  0.00    +0.019 C 
ATOM      5  C   UNL     1       0.004  -1.563   2.158  0.00  0.00    +0.107 C 
ATOM      6  N   UNL     1       0.080  -0.096   2.217  0.00  0.00    -0.311 N 
ATOM      7  C   UNL     1      -1.072   0.677   2.136  0.00  0.00    +0.148 A 
ATOM      8  C   UNL     1      -1.809   0.973   3.284  0.00  0.00    +0.107 A 
ATOM      9  C   UNL     1      -2.958   1.754   3.146  0.00  0.00    +0.159 A 
ATOM     10  N   UNL     1      -3.305   2.183   1.935  0.00  0.00    -0.218 NA
ATOM     11  C   UNL     1      -2.581   1.880   0.876  0.00  0.00    +0.225 A 
ATOM     12  N   UNL     1      -1.487   1.150   0.963  0.00  0.00    -0.219 NA
ENDROOT
BRANCH   8  13
ATOM     13  N   UNL     1      -1.406   0.498   4.543  0.00  0.00    -0.353 N 
ATOM     14  H   UNL     1      -0.663  -0.121   4.612  0.00  0.00    +0.143 HD
ATOM     15  H   UNL     1      -1.871   0.790   5.343  0.00  0.00    +0.143 HD
ENDBRANCH   8  13
BRANCH   1  17
ATOM     16  C   UNL     1       2.602   2.721   2.511  0.00  0.00    +0.006 C 
ATOM     17  C   UNL     1       1.254   2.055   2.228  0.00  0.00    +0.019 C 
ENDBRANCH   1  17
BRANCH   9  18
ATOM     18  N   UNL     1      -3.728   2.078   4.257  0.00  0.00    -0.244 N 
ATOM     19  H   UNL     1      -3.469   1.761   5.136  0.00  0.00    +0.169 HD
BRANCH  18  20
ATOM     20  N   UNL     1      -4.880   2.862   4.106  0.00  0.00    -0.109 NA
ATOM     21  H   UNL     1      -4.823   3.728   3.674  0.00  0.00    +0.172 HD
BRANCH  20  22
ATOM     22  S   UNL     1      -6.337   2.310   4.667  0.00  0.00    +0.074 S 
ATOM     23  O   UNL     1      -7.265   3.373   4.501  0.00  0.00    -0.152 OA
ATOM     24  O   UNL     1      -6.535   1.028   4.087  0.00  0.00    -0.152 OA
BRANCH  22  25
ATOM     25  C   UNL     1      -6.166   2.057   6.402  0.00  0.00    +0.107 A 
ATOM     26  C   UNL     1      -5.743   0.832   6.883  0.00  0.00    +0.029 A 
ATOM     27  C   UNL     1      -5.609   0.633   8.245  0.00  0.00    +0.005 A 
ATOM     28  C   UNL     1      -5.897   1.660   9.125  0.00  0.00    -0.050 A 
ATOM     29  C   UNL     1      -6.320   2.885   8.643  0.00  0.00    +0.005 A 
ATOM     30  C   UNL     1      -6.450   3.084   7.282  0.00  0.00    +0.029 A 
ATOM     31  C   UNL     1      -5.752   1.443  10.609  0.00  0.00    +0.044 C 
ENDBRANCH  22  25
ENDBRANCH  20  22
ENDBRANCH  18  20
ENDBRANCH   9  18
TORSDOF 6
