REMARK  Name = ZINC40808742
REMARK  6 active torsions:
REMARK  status: ('A' for Active; 'I' for Inactive)
REMARK    1  A    between atoms: C_2  and  C_12
REMARK    2  A    between atoms: C_6  and  N_7
REMARK    3  A    between atoms: N_14  and  C_15
REMARK    4  A    between atoms: C_15  and  C_16
REMARK    5  A    between atoms: C_16  and  C_17
REMARK    6  A    between atoms: C_17  and  N_18
REMARK                            x       y       z     vdW  Elec       q    Type
REMARK                         _______ _______ _______ _____ _____    ______ ____
ROOT
ATOM      1  C   UNL     1      -0.017   1.375   0.010  0.00  0.00    +0.047 A 
ATOM      2  C   UNL     1       1.184   2.087   0.002  0.00  0.00    +0.040 A 
ATOM      3  C   UNL     1       2.398   1.398  -0.013  0.00  0.00    +0.034 A 
ATOM      4  C   UNL     1       2.405   0.018  -0.021  0.00  0.00    +0.062 A 
ATOM      5  C   UNL     1       1.209  -0.683  -0.014  0.00  0.00    +0.089 A 
ATOM      6  C   UNL     1       0.002  -0.004   0.002  0.00  0.00    +0.147 A 
ATOM      7 CL   UNL     1       1.224  -2.419  -0.024  0.00  0.00    -0.080 Cl
ATOM      8 CL   UNL     1       3.913  -0.842  -0.040  0.00  0.00    -0.082 Cl
ENDROOT
BRANCH   2   9
ATOM      9  C   UNL     1       1.170   3.565   0.009  0.00  0.00    +0.244 C 
ATOM     10  O   UNL     1       0.112   4.162   0.022  0.00  0.00    -0.270 OA
ATOM     11  N   UNL     1       2.331   4.250   0.002  0.00  0.00    -0.311 N 
ATOM     12  H   UNL     1       3.176   3.773  -0.008  0.00  0.00    +0.149 HD
BRANCH  11  13
ATOM     13  C   UNL     1       2.317   5.715   0.010  0.00  0.00    +0.102 C 
BRANCH  13  14
ATOM     14  C   UNL     1       3.755   6.238  -0.001  0.00  0.00    -0.001 C 
BRANCH  14  15
ATOM     15  C   UNL     1       3.740   7.768   0.007  0.00  0.00    -0.085 C 
BRANCH  15  16
ATOM     16  N   UNL     1       5.120   8.271  -0.004  0.00  0.00    +0.378 N 
ATOM     17  H   UNL     1       5.607   7.935   0.814  0.00  0.00    -0.090 HD
ATOM     18  H   UNL     1       5.591   7.944  -0.834  0.00  0.00    -0.090 HD
ATOM     19  H   UNL     1       5.111   9.280   0.002  0.00  0.00    -0.090 HD
ENDBRANCH  15  16
ENDBRANCH  14  15
ENDBRANCH  13  14
ENDBRANCH  11  13
ENDBRANCH   2   9
BRANCH   6  20
ATOM     20  N   UNL     1      -1.270  -0.760   0.011  0.00  0.00    +0.058 N 
ATOM     21  O   UNL     1      -2.325  -0.168   0.024  0.00  0.00    -0.126 OA
ATOM     22  O   UNL     1      -1.256  -1.969   0.004  0.00  0.00    -0.126 OA
ENDBRANCH   6  20
TORSDOF 6
