REMARK  Name = ZINC14903197
REMARK  12 active torsions:
REMARK  status: ('A' for Active; 'I' for Inactive)
REMARK    1  A    between atoms: C_1  and  C_2
REMARK    2  A    between atoms: C_4  and  N_29
REMARK    3  A    between atoms: C_6  and  C_7
REMARK    4  A    between atoms: C_7  and  O_9
REMARK    5  A    between atoms: O_9  and  C_10
REMARK    6  A    between atoms: C_10  and  C_11
REMARK    7  A    between atoms: N_13  and  C_14
REMARK    8  A    between atoms: C_14  and  C_16
REMARK    9  A    between atoms: C_14  and  C_26
REMARK   10  A    between atoms: C_26  and  C_27
REMARK   11  A    between atoms: C_26  and  C_28
REMARK   12  A    between atoms: C_30  and  C_32
REMARK                            x       y       z     vdW  Elec       q    Type
REMARK                         _______ _______ _______ _____ _____    ______ ____
ROOT
ATOM      1  C   UNL     1      -6.626  -0.191   2.399  0.00  0.00    +0.328 C 
ENDROOT
BRANCH   1   2
ATOM      2  C   UNL     1      -5.643  -0.864   1.476  0.00  0.00    +0.251 C 
ATOM      3  O   UNL     1      -5.749  -2.048   1.237  0.00  0.00    -0.272 OA
ATOM      4  N   UNL     1      -4.647  -0.149   0.915  0.00  0.00    -0.305 N 
ATOM      5  H   UNL     1      -4.563   0.798   1.107  0.00  0.00    +0.149 HD
BRANCH   4   6
ATOM      6  C   UNL     1      -3.692  -0.803   0.018  0.00  0.00    +0.106 C 
BRANCH   6   7
ATOM      7  C   UNL     1      -2.397  -0.033   0.016  0.00  0.00    -0.023 A 
ATOM      8  C   UNL     1      -2.415   1.349   0.025  0.00  0.00    +0.009 A 
ATOM      9  C   UNL     1      -1.229   2.059   0.019  0.00  0.00    +0.050 A 
ATOM     10  C   UNL     1      -0.017   1.385   0.010  0.00  0.00    +0.162 A 
ATOM     11  C   UNL     1       0.002  -0.004   0.002  0.00  0.00    +0.162 A 
ATOM     12  C   UNL     1      -1.192  -0.710   0.004  0.00  0.00    +0.055 A 
ATOM     13  O   UNL     1       1.181  -0.685  -0.007  0.00  0.00    -0.485 OA
ATOM     14  C   UNL     1       2.347   0.053  -0.387  0.00  0.00    +0.270 C 
ATOM     15  C   UNL     1       2.334   1.392   0.364  0.00  0.00    +0.270 C 
ATOM     16  O   UNL     1       1.143   2.098   0.002  0.00  0.00    -0.485 OA
ENDBRANCH   6   7
BRANCH   6  17
ATOM     17  C   UNL     1      -4.266  -0.838  -1.400  0.00  0.00    +0.008 C 
ATOM     18  C   UNL     1      -3.269  -1.521  -2.338  0.00  0.00    +0.009 C 
ATOM     19  C   UNL     1      -5.582  -1.620  -1.398  0.00  0.00    +0.009 C 
ENDBRANCH   6  17
ENDBRANCH   4   6
ENDBRANCH   1   2
BRANCH   1  20
ATOM     20  O   UNL     1      -7.579  -1.151   2.861  0.00  0.00    -0.451 OA
BRANCH  20  21
ATOM     21  C   UNL     1      -8.536  -0.707   3.704  0.00  0.00    +0.347 C 
ATOM     22  O   UNL     1      -8.559   0.463   4.036  0.00  0.00    -0.244 OA
BRANCH  21  28
ATOM     23  C   UNL     1     -10.807   0.024   5.633  0.00  0.00    +0.045 C 
ATOM     24  C   UNL     1     -10.566  -1.353   5.071  0.00  0.00    -0.028 A 
ATOM     25  C   UNL     1     -11.377  -2.406   5.393  0.00  0.00    +0.035 A 
ATOM     26  C   UNL     1     -11.103  -3.646   4.853  0.00  0.00    +0.073 A 
ATOM     27  S   UNL     1      -9.703  -3.348   3.875  0.00  0.00    -0.067 S 
ATOM     28  C   UNL     1      -9.513  -1.604   4.200  0.00  0.00    +0.101 A 
BRANCH  26  29
ATOM     29  N   UNL     1     -11.782  -4.840   5.045  0.00  0.00    -0.273 N 
ATOM     30  C   UNL     1     -11.362  -5.962   4.427  0.00  0.00    +0.284 C 
ATOM     31  O   UNL     1     -10.387  -5.926   3.700  0.00  0.00    -0.266 OA
ATOM     32  H   UNL     1     -12.559  -4.868   5.625  0.00  0.00    +0.156 HD
BRANCH  30  33
ATOM     33  C   UNL     1     -12.080  -7.224   4.630  0.00  0.00    +0.189 A 
ATOM     34  C   UNL     1     -11.763  -8.427   4.068  0.00  0.00    +0.054 A 
ATOM     35  C   UNL     1     -12.709  -9.353   4.535  0.00  0.00    +0.042 A 
ATOM     36  C   UNL     1     -13.551  -8.683   5.352  0.00  0.00    +0.196 A 
ATOM     37  O   UNL     1     -13.166  -7.401   5.411  0.00  0.00    -0.458 OA
ENDBRANCH  30  33
ENDBRANCH  26  29
ENDBRANCH  21  28
ENDBRANCH  20  21
ENDBRANCH   1  20
TORSDOF 9
