REMARK  Name = ZINC20876988
REMARK  12 active torsions:
REMARK  status: ('A' for Active; 'I' for Inactive)
REMARK    1  A    between atoms: C_1  and  C_2
REMARK    2  A    between atoms: C_2  and  C_4
REMARK    3  A    between atoms: C_2  and  N_10
REMARK    4  A    between atoms: N_10  and  C_11
REMARK    5  A    between atoms: C_11  and  C_12
REMARK    6  A    between atoms: C_14  and  O_33
REMARK    7  A    between atoms: C_15  and  O_19
REMARK    8  A    between atoms: O_19  and  C_20
REMARK    9  A    between atoms: C_20  and  C_21
REMARK   10  A    between atoms: C_21  and  C_23
REMARK   11  A    between atoms: C_21  and  O_32
REMARK   12  A    between atoms: O_33  and  C_34
REMARK                            x       y       z     vdW  Elec       q    Type
REMARK                         _______ _______ _______ _____ _____    ______ ____
ROOT
ATOM      1  C   UNL     1       1.534   0.027   3.639  0.00  0.00    -0.060 A 
ATOM      2  C   UNL     1       0.990   0.393   2.422  0.00  0.00    +0.051 A 
ATOM      3  C   UNL     1      -0.148   1.182   2.380  0.00  0.00    +0.163 A 
ATOM      4  C   UNL     1      -0.748   1.595   3.566  0.00  0.00    +0.176 A 
ATOM      5  C   UNL     1      -0.201   1.220   4.783  0.00  0.00    +0.063 A 
ATOM      6  C   UNL     1       0.939   0.437   4.817  0.00  0.00    +0.021 A 
ATOM      7 BR   UNL     1      -1.012   1.780   6.397  0.00  0.00    -0.046 Br
ENDROOT
BRANCH   3   8
ATOM      8  O   UNL     1      -0.682   1.547   1.184  0.00  0.00    -0.491 OA
ATOM      9  C   UNL     1      -0.013   1.086   0.008  0.00  0.00    +0.277 C 
ENDBRANCH   3   8
BRANCH   1  10
ATOM     10  C   UNL     1       2.776  -0.826   3.682  0.00  0.00    -0.046 C 
BRANCH  10  11
ATOM     11  N   UNL     1       2.395  -2.244   3.696  0.00  0.00    +0.386 N 
ATOM     12  H   UNL     1       1.814  -2.463   2.788  0.00  0.00    -0.085 HD
ATOM     13  H   UNL     1       1.773  -2.434   4.583  0.00  0.00    -0.085 HD
BRANCH  11  15
ATOM     14  C   UNL     1       4.102  -3.330   2.316  0.00  0.00    -0.009 C 
ATOM     15  C   UNL     1       3.583  -3.108   3.738  0.00  0.00    -0.044 C 
BRANCH  15  16
ATOM     16  C   UNL     1       3.218  -4.435   4.352  0.00  0.00    -0.062 A 
ATOM     17  C   UNL     1       2.008  -5.029   4.045  0.00  0.00    +0.002 A 
ATOM     18  C   UNL     1       1.675  -6.248   4.605  0.00  0.00    +0.000 A 
ATOM     19  C   UNL     1       2.549  -6.869   5.479  0.00  0.00    +0.000 A 
ATOM     20  C   UNL     1       3.756  -6.272   5.789  0.00  0.00    +0.000 A 
ATOM     21  C   UNL     1       4.091  -5.055   5.226  0.00  0.00    +0.002 A 
ENDBRANCH  15  16
ENDBRANCH  11  15
ENDBRANCH  10  11
ENDBRANCH   1  10
BRANCH   4  22
ATOM     22  O   UNL     1      -1.869   2.366   3.531  0.00  0.00    -0.484 OA
BRANCH  22  23
ATOM     23  C   UNL     1      -3.124   1.684   3.514  0.00  0.00    +0.265 C 
BRANCH  23  24
ATOM     24  C   UNL     1      -4.260   2.709   3.475  0.00  0.00    +0.182 C 
BRANCH  24  25
ATOM     25  C   UNL     1      -5.578   1.992   3.334  0.00  0.00    -0.012 A 
ATOM     26  C   UNL     1      -6.224   1.509   4.457  0.00  0.00    +0.010 A 
ATOM     27  C   UNL     1      -7.436   0.855   4.333  0.00  0.00    +0.050 A 
ATOM     28  C   UNL     1      -8.001   0.674   3.081  0.00  0.00    +0.166 A 
ATOM     29  C   UNL     1      -7.348   1.156   1.950  0.00  0.00    +0.167 A 
ATOM     30  C   UNL     1      -6.137   1.815   2.082  0.00  0.00    +0.055 A 
ATOM     31  O   UNL     1      -8.100   0.855   0.851  0.00  0.00    -0.453 OA
ATOM     32  C   UNL     1      -9.412   0.546   1.355  0.00  0.00    +0.466 C 
ATOM     33  O   UNL     1      -9.162   0.070   2.691  0.00  0.00    -0.453 OA
ENDBRANCH  24  25
BRANCH  24  34
ATOM     34  O   UNL     1      -4.258   3.469   4.684  0.00  0.00    -0.384 OA
ATOM     35  H   UNL     1      -5.008   4.259   4.839  0.00  0.00    +0.210 HD
ENDBRANCH  24  34
ENDBRANCH  23  24
ENDBRANCH  22  23
ENDBRANCH   4  22
TORSDOF 10
