REMARK  Name = ZINC40752273
REMARK  6 active torsions:
REMARK  status: ('A' for Active; 'I' for Inactive)
REMARK    1  A    between atoms: C_1  and  C_2
REMARK    2  A    between atoms: C_9  and  O_12
REMARK    3  A    between atoms: O_12  and  C_13
REMARK    4  A    between atoms: C_14  and  N_30
REMARK    5  A    between atoms: C_15  and  N_19
REMARK    6  A    between atoms: N_19  and  C_20
REMARK                            x       y       z     vdW  Elec       q    Type
REMARK                         _______ _______ _______ _____ _____    ______ ____
ROOT
ATOM      1  C   UNL     1      -0.011  -2.682   4.747  0.00  0.00    +0.246 A 
ATOM      2  C   UNL     1      -0.135  -2.023   5.969  0.00  0.00    +0.128 A 
ATOM      3  C   UNL     1      -0.244  -2.796   7.128  0.00  0.00    +0.151 A 
ATOM      4  N   UNL     1      -0.225  -4.122   7.021  0.00  0.00    -0.218 NA
ATOM      5  C   UNL     1      -0.105  -4.705   5.845  0.00  0.00    +0.227 A 
ATOM      6  N   UNL     1      -0.005  -4.011   4.729  0.00  0.00    -0.199 NA
ENDROOT
BRANCH   2   7
ATOM      7  N   UNL     1      -0.150  -0.621   6.035  0.00  0.00    -0.351 N 
ATOM      8  H   UNL     1      -0.073  -0.097   5.222  0.00  0.00    +0.143 HD
ATOM      9  H   UNL     1      -0.237  -0.176   6.892  0.00  0.00    +0.143 HD
ENDBRANCH   2   7
BRANCH   3  10
ATOM     10  N   UNL     1      -0.370  -2.190   8.373  0.00  0.00    -0.297 N 
ATOM     11  H   UNL     1      -0.470  -1.227   8.435  0.00  0.00    +0.154 HD
BRANCH  10  12
ATOM     12  C   UNL     1      -0.352  -2.966   9.530  0.00  0.00    +0.040 A 
ATOM     13  C   UNL     1       0.272  -4.195   9.535  0.00  0.00    +0.024 A 
ATOM     14  C   UNL     1       0.294  -4.977  10.686  0.00  0.00    +0.002 A 
ATOM     15  C   UNL     1      -0.297  -4.552  11.836  0.00  0.00    +0.008 A 
ATOM     16  C   UNL     1      -0.944  -3.305  11.874  0.00  0.00    -0.016 A 
ATOM     17  C   UNL     1      -0.969  -2.497  10.711  0.00  0.00    +0.003 A 
ATOM     18  C   UNL     1      -1.610  -1.250  10.752  0.00  0.00    +0.010 A 
ATOM     19  C   UNL     1      -2.195  -0.830  11.908  0.00  0.00    +0.001 A 
ATOM     20  C   UNL     1      -2.165  -1.621  13.054  0.00  0.00    +0.001 A 
ATOM     21  C   UNL     1      -1.563  -2.841  13.048  0.00  0.00    +0.008 A 
ENDBRANCH  10  12
ENDBRANCH   3  10
BRANCH   1  22
ATOM     22  O   UNL     1       0.098  -1.977   3.593  0.00  0.00    -0.434 OA
BRANCH  22  31
ATOM     23  C   UNL     1      -4.694  -3.012   2.648  0.00  0.00    +0.065 C 
ATOM     24  C   UNL     1      -3.401  -3.307   1.933  0.00  0.00    +0.039 A 
ATOM     25  C   UNL     1      -3.434  -4.018   0.735  0.00  0.00    +0.023 A 
ATOM     26  C   UNL     1      -2.272  -4.293   0.074  0.00  0.00    +0.012 A 
ATOM     27  C   UNL     1      -1.064  -3.840   0.637  0.00  0.00    +0.004 A 
ATOM     28  C   UNL     1       0.171  -4.085   0.014  0.00  0.00    +0.010 A 
ATOM     29  C   UNL     1       1.319  -3.631   0.588  0.00  0.00    +0.004 A 
ATOM     30  C   UNL     1       1.289  -2.925   1.788  0.00  0.00    +0.048 A 
ATOM     31  C   UNL     1       0.108  -2.667   2.423  0.00  0.00    +0.156 A 
ATOM     32  C   UNL     1      -1.102  -3.123   1.857  0.00  0.00    +0.113 A 
ATOM     33  N   UNL     1      -2.274  -2.882   2.451  0.00  0.00    -0.248 NA
ENDBRANCH  22  31
ENDBRANCH   1  22
TORSDOF 5
