REMARK  Name = ZINC09360961
REMARK  10 active torsions:
REMARK  status: ('A' for Active; 'I' for Inactive)
REMARK    1  A    between atoms: C_1  and  C_2
REMARK    2  A    between atoms: C_2  and  C_3
REMARK    3  A    between atoms: C_2  and  C_4
REMARK    4  A    between atoms: C_9  and  C_29
REMARK    5  A    between atoms: C_9  and  O_30
REMARK    6  A    between atoms: C_13  and  C_28
REMARK    7  A    between atoms: C_16  and  O_18
REMARK    8  A    between atoms: O_18  and  C_19
REMARK    9  A    between atoms: C_19  and  C_21
REMARK   10  A    between atoms: C_24  and  O_27
REMARK                            x       y       z     vdW  Elec       q    Type
REMARK                         _______ _______ _______ _____ _____    ______ ____
ROOT
ATOM      1  C   UNL     1      -6.013   1.627  -0.686  0.00  0.00    +0.055 C 
ATOM      2  C   UNL     1      -6.133   2.981  -0.032  0.00  0.00    -0.024 C 
ATOM      3  C   UNL     1      -6.875   3.132   1.035  0.00  0.00    -0.028 C 
ATOM      4  C   UNL     1      -6.736   4.389   1.860  0.00  0.00    +0.061 C 
ATOM      5  C   UNL     1      -5.735   4.095   2.998  0.00  0.00    +0.069 C 
ATOM      6  C   UNL     1      -4.515   3.412   2.420  0.00  0.00    +0.069 C 
ATOM      7  C   UNL     1      -3.985   2.177   3.102  0.00  0.00    +0.153 C 
ATOM      8  C   UNL     1      -4.242   0.798   2.493  0.00  0.00    +0.097 C 
ATOM      9  O   UNL     1      -4.753   1.203   3.777  0.00  0.00    -0.365 OA
ATOM     10  C   UNL     1      -5.322   0.545   1.451  0.00  0.00    +0.082 C 
ATOM     11  C   UNL     1      -4.882   0.866   0.029  0.00  0.00    +0.187 C 
ATOM     12  C   UNL     1      -3.091  -0.216   2.515  0.00  0.00    +0.044 C 
ATOM     13  C   UNL     1      -6.439   3.286   4.081  0.00  0.00    +0.041 C 
ENDROOT
BRANCH   1  15
ATOM     14  C   UNL     1      -5.501   0.413  -2.808  0.00  0.00    +0.008 C 
ATOM     15  C   UNL     1      -5.669   1.792  -2.167  0.00  0.00    -0.007 C 
ATOM     16  C   UNL     1      -6.796   2.549  -2.872  0.00  0.00    +0.008 C 
ENDBRANCH   1  15
BRANCH   5  17
ATOM     17  O   UNL     1      -5.337   5.357   3.565  0.00  0.00    -0.388 OA
ATOM     18  H   UNL     1      -6.068   5.872   3.931  0.00  0.00    +0.210 HD
ENDBRANCH   5  17
BRANCH  11  19
ATOM     19  O   UNL     1      -3.675   1.668   0.028  0.00  0.00    -0.457 OA
BRANCH  19  20
ATOM     20  C   UNL     1      -2.501   1.008   0.019  0.00  0.00    +0.339 C 
ATOM     21  O   UNL     1      -2.487  -0.207   0.012  0.00  0.00    -0.245 OA
BRANCH  20  22
ATOM     22  C   UNL     1      -1.232   1.759   0.017  0.00  0.00    +0.059 A 
ATOM     23  C   UNL     1      -0.013   1.076   0.008  0.00  0.00    +0.018 A 
ATOM     24  C   UNL     1       1.170   1.781   0.001  0.00  0.00    +0.046 A 
ATOM     25  C   UNL     1       1.152   3.171   0.008  0.00  0.00    +0.117 A 
ATOM     26  C   UNL     1      -0.058   3.855   0.023  0.00  0.00    +0.046 A 
ATOM     27  C   UNL     1      -1.245   3.157   0.031  0.00  0.00    +0.018 A 
BRANCH  25  28
ATOM     28  O   UNL     1       2.320   3.863  -0.001  0.00  0.00    -0.507 OA
ATOM     29  H   UNL     1       2.649   4.068  -0.886  0.00  0.00    +0.292 HD
ENDBRANCH  25  28
ENDBRANCH  20  22
ENDBRANCH  19  20
ENDBRANCH  11  19
TORSDOF 6
