REMARK  Name = ZINC07294050
REMARK  6 active torsions:
REMARK  status: ('A' for Active; 'I' for Inactive)
REMARK    1  A    between atoms: C_3  and  O_12
REMARK    2  A    between atoms: C_6  and  N_7
REMARK    3  A    between atoms: O_12  and  C_13
REMARK    4  A    between atoms: C_13  and  C_14
REMARK    5  A    between atoms: N_16  and  C_17
REMARK    6  A    between atoms: C_17  and  C_23
REMARK                            x       y       z     vdW  Elec       q    Type
REMARK                         _______ _______ _______ _____ _____    ______ ____
ROOT
ATOM      1  C   UNL     1      -3.610   3.006   0.051  0.00  0.00    +0.324 C 
ENDROOT
BRANCH   1   2
ATOM      2  C   UNL     1      -4.818   3.907   0.066  0.00  0.00    +0.252 C 
ATOM      3  O   UNL     1      -4.676   5.112   0.070  0.00  0.00    -0.272 OA
ATOM      4  N   UNL     1      -6.056   3.375   0.075  0.00  0.00    -0.295 N 
ATOM      5  H   UNL     1      -6.170   2.411   0.071  0.00  0.00    +0.150 HD
BRANCH   4   6
ATOM      6  C   UNL     1      -7.230   4.251   0.090  0.00  0.00    +0.121 C 
ATOM      7  C   UNL     1      -7.196   5.128   1.343  0.00  0.00    +0.041 C 
ATOM      8  C   UNL     1      -8.422   6.043   1.358  0.00  0.00    +0.003 C 
ATOM      9  C   UNL     1      -9.693   5.192   1.366  0.00  0.00    +0.000 C 
ATOM     10  C   UNL     1      -9.727   4.315   0.113  0.00  0.00    +0.003 C 
ATOM     11  C   UNL     1      -8.502   3.400   0.097  0.00  0.00    +0.041 C 
BRANCH   6  12
ATOM     12  C   UNL     1      -7.219   5.106  -1.108  0.00  0.00    +0.088 C 
ATOM     13  N   UNL     1      -7.211   5.766  -2.033  0.00  0.00    -0.194 NA
ENDBRANCH   6  12
ENDBRANCH   4   6
ENDBRANCH   1   2
BRANCH   1  14
ATOM     14  O   UNL     1      -2.423   3.800   0.044  0.00  0.00    -0.483 OA
BRANCH  14  17
ATOM     15  C   UNL     1      -0.013   1.076   0.008  0.00  0.00    +0.031 A 
ATOM     16  C   UNL     1      -1.217   1.750   0.017  0.00  0.00    +0.048 A 
ATOM     17  C   UNL     1      -1.236   3.137   0.030  0.00  0.00    +0.121 A 
ATOM     18  C   UNL     1      -0.044   3.848   0.022  0.00  0.00    +0.048 A 
ATOM     19  C   UNL     1       1.161   3.174   0.007  0.00  0.00    +0.031 A 
ATOM     20  C   UNL     1       1.180   1.786   0.000  0.00  0.00    +0.069 A 
BRANCH  20  21
ATOM     21  N   UNL     1       2.405   1.101  -0.014  0.00  0.00    -0.200 N 
ATOM     22  C   UNL     1       3.644   1.638  -0.023  0.00  0.00    +0.250 A 
ATOM     23  N   UNL     1       4.497   0.646  -0.035  0.00  0.00    -0.116 NA
ATOM     24  N   UNL     1       3.880  -0.480  -0.034  0.00  0.00    -0.023 NA
ATOM     25  N   UNL     1       2.605  -0.290  -0.016  0.00  0.00    -0.039 NA
ENDBRANCH  20  21
ENDBRANCH  14  17
ENDBRANCH   1  14
TORSDOF 6
