REMARK  Name = ZINC12844990
REMARK  8 active torsions:
REMARK  status: ('A' for Active; 'I' for Inactive)
REMARK    1  A    between atoms: C_1  and  C_2
REMARK    2  A    between atoms: C_7  and  C_9
REMARK    3  A    between atoms: C_7  and  C_10
REMARK    4  A    between atoms: C_13  and  C_15
REMARK    5  A    between atoms: C_21  and  C_30
REMARK    6  A    between atoms: C_24  and  C_26
REMARK    7  A    between atoms: C_34  and  O_36
REMARK    8  A    between atoms: O_36  and  C_37
REMARK                            x       y       z     vdW  Elec       q    Type
REMARK                         _______ _______ _______ _____ _____    ______ ____
ROOT
ATOM      1  C   UNL     1       1.346  -2.430  -3.459  0.00  0.00    +0.091 C 
ATOM      2  C   UNL     1       1.739  -3.186  -4.532  0.00  0.00    +0.104 C 
ATOM      3  N   UNL     1       2.828  -2.617  -5.110  0.00  0.00    -0.269 N 
ATOM      4  N   UNL     1       3.188  -1.472  -4.410  0.00  0.00    -0.226 N 
ATOM      5  C   UNL     1       2.274  -1.296  -3.380  0.00  0.00    +0.126 C 
ATOM      6  N   UNL     1       2.311  -0.297  -2.546  0.00  0.00    -0.364 N 
ATOM      7  C   UNL     1       3.340   0.736  -2.716  0.00  0.00    +0.113 C 
ATOM      8  C   UNL     1       4.618   0.129  -3.298  0.00  0.00    +0.062 C 
ATOM      9  C   UNL     1       4.310  -0.555  -4.636  0.00  0.00    +0.201 C 
ATOM     10  H   UNL     1       3.285  -2.959  -5.894  0.00  0.00    +0.170 HD
ATOM     11  H   UNL     1       1.667  -0.236  -1.823  0.00  0.00    +0.161 HD
ENDROOT
BRANCH   1  23
ATOM     12  C   UNL     1      -0.916  -7.326  -3.950  0.00  0.00    +0.013 C 
ATOM     13  C   UNL     1      -1.388  -5.929  -3.518  0.00  0.00    -0.014 C 
ATOM     14  C   UNL     1      -1.619  -5.832  -1.985  0.00  0.00    +0.030 C 
ATOM     15  C   UNL     1      -1.587  -4.292  -1.816  0.00  0.00    +0.077 C 
ATOM     16  C   UNL     1      -2.916  -3.752  -2.337  0.00  0.00    +0.029 C 
ATOM     17  C   UNL     1      -3.227  -4.159  -3.766  0.00  0.00    -0.033 C 
ATOM     18  C   UNL     1      -2.689  -5.509  -4.201  0.00  0.00    +0.014 C 
ATOM     19  C   UNL     1      -2.753  -3.065  -4.734  0.00  0.00    +0.011 C 
ATOM     20  C   UNL     1      -4.770  -4.219  -3.897  0.00  0.00    +0.011 C 
ATOM     21  N   UNL     1      -0.498  -3.836  -2.703  0.00  0.00    -0.294 N 
ATOM     22  C   UNL     1      -0.313  -4.845  -3.758  0.00  0.00    +0.115 C 
ATOM     23  C   UNL     1       0.214  -2.699  -2.566  0.00  0.00    +0.251 C 
ATOM     24  O   UNL     1      -0.084  -1.895  -1.702  0.00  0.00    -0.270 OA
ENDBRANCH   1  23
BRANCH   7  25
ATOM     25  C   UNL     1       3.650   1.355  -1.377  0.00  0.00    -0.022 A 
ATOM     26  C   UNL     1       3.730   0.558  -0.250  0.00  0.00    +0.006 A 
ATOM     27  C   UNL     1       4.014   1.122   0.980  0.00  0.00    +0.004 A 
ATOM     28  C   UNL     1       4.217   2.485   1.085  0.00  0.00    +0.045 A 
ATOM     29  C   UNL     1       4.137   3.286  -0.044  0.00  0.00    +0.120 A 
ATOM     30  C   UNL     1       3.858   2.716  -1.278  0.00  0.00    +0.051 A 
BRANCH  29  31
ATOM     31  O   UNL     1       4.337   4.627   0.057  0.00  0.00    -0.495 OA
ATOM     32  C   UNL     1       4.626   5.143   1.357  0.00  0.00    +0.277 C 
ENDBRANCH  29  31
ENDBRANCH   7  25
BRANCH   9  33
ATOM     33  C   UNL     1       5.530  -1.336  -5.128  0.00  0.00    +0.410 C 
ATOM     34  F   UNL     1       5.216  -1.985  -6.327  0.00  0.00    -0.169 F 
ATOM     35  F   UNL     1       6.595  -0.453  -5.340  0.00  0.00    -0.169 F 
ATOM     36  F   UNL     1       5.896  -2.284  -4.166  0.00  0.00    -0.169 F 
ENDBRANCH   9  33
TORSDOF 4
