REMARK  Name = ZINC39928379
REMARK  11 active torsions:
REMARK  status: ('A' for Active; 'I' for Inactive)
REMARK    1  A    between atoms: C_1  and  C_2
REMARK    2  A    between atoms: C_2  and  C_3
REMARK    3  A    between atoms: C_2  and  C_4
REMARK    4  A    between atoms: C_2  and  N_5
REMARK    5  A    between atoms: N_5  and  C_6
REMARK    6  A    between atoms: C_6  and  C_7
REMARK    7  A    between atoms: C_13  and  O_19
REMARK    8  A    between atoms: O_19  and  C_20
REMARK    9  A    between atoms: C_21  and  C_23
REMARK   10  A    between atoms: C_23  and  O_24
REMARK   11  A    between atoms: O_24  and  C_25
REMARK                            x       y       z     vdW  Elec       q    Type
REMARK                         _______ _______ _______ _____ _____    ______ ____
ROOT
ATOM      1  N   UNL     1       0.473  -0.008  -2.025  0.00  0.00    -0.293 N 
ATOM      2  C   UNL     1       0.060  -0.388  -3.251  0.00  0.00    +0.254 C 
ATOM      3  O   UNL     1       0.872  -0.710  -4.092  0.00  0.00    -0.272 OA
ENDROOT
BRANCH   1   5
ATOM      4  C   UNL     1       0.212   0.785   0.274  0.00  0.00    +0.031 C 
ATOM      5  C   UNL     1      -0.510   0.283  -0.979  0.00  0.00    +0.029 C 
ATOM      6  C   UNL     1      -1.290  -0.989  -0.642  0.00  0.00    +0.031 C 
ATOM      7  C   UNL     1      -1.479   1.359  -1.474  0.00  0.00    +0.031 C 
ENDBRANCH   1   5
BRANCH   1   8
ATOM      8  C   UNL     1       1.905   0.114  -1.740  0.00  0.00    +0.125 C 
BRANCH   8   9
ATOM      9  C   UNL     1       2.578  -1.248  -1.920  0.00  0.00    +0.116 C 
ATOM     10  C   UNL     1       4.022  -1.005  -2.310  0.00  0.00    -0.003 C 
ATOM     11  C   UNL     1       4.984  -1.536  -1.507  0.00  0.00    -0.007 A 
ATOM     12  C   UNL     1       6.404  -1.345  -1.815  0.00  0.00    +0.013 A 
ATOM     13  C   UNL     1       7.334  -1.888  -0.993  0.00  0.00    +0.046 A 
ATOM     14  C   UNL     1       6.963  -2.625   0.141  0.00  0.00    +0.122 A 
ATOM     15  C   UNL     1       5.644  -2.837   0.482  0.00  0.00    +0.069 A 
ATOM     16  C   UNL     1       4.614  -2.314  -0.310  0.00  0.00    +0.044 A 
ATOM     17  N   UNL     1       3.341  -2.527   0.029  0.00  0.00    -0.284 N 
ATOM     18  C   UNL     1       2.322  -2.061  -0.671  0.00  0.00    +0.226 C 
ATOM     19  O   UNL     1       1.181  -2.286  -0.311  0.00  0.00    -0.275 OA
ATOM     20  H   UNL     1       3.155  -3.046   0.827  0.00  0.00    +0.155 HD
BRANCH  14  21
ATOM     21  O   UNL     1       7.933  -3.146   0.929  0.00  0.00    -0.495 OA
ATOM     22  C   UNL     1       9.286  -2.901   0.539  0.00  0.00    +0.277 C 
ENDBRANCH  14  21
ENDBRANCH   8   9
ENDBRANCH   1   8
BRANCH   2  23
ATOM     23  C   UNL     1      -1.411  -0.412  -3.576  0.00  0.00    +0.324 C 
BRANCH  23  24
ATOM     24  O   UNL     1      -1.604  -0.986  -4.870  0.00  0.00    -0.483 OA
BRANCH  24  25
ATOM     25  C   UNL     1      -2.883  -1.082  -5.319  0.00  0.00    +0.121 A 
ATOM     26  C   UNL     1      -3.931  -0.628  -4.532  0.00  0.00    +0.045 A 
ATOM     27  C   UNL     1      -5.231  -0.727  -4.990  0.00  0.00    +0.004 A 
ATOM     28  C   UNL     1      -5.487  -1.278  -6.232  0.00  0.00    +0.000 A 
ATOM     29  C   UNL     1      -4.444  -1.732  -7.018  0.00  0.00    +0.004 A 
ATOM     30  C   UNL     1      -3.143  -1.630  -6.567  0.00  0.00    +0.045 A 
ENDBRANCH  24  25
ENDBRANCH  23  24
ENDBRANCH   2  23
TORSDOF 7
