REMARK  Name = ZINC56202533
REMARK  5 active torsions:
REMARK  status: ('A' for Active; 'I' for Inactive)
REMARK    1  A    between atoms: C_1  and  C_2
REMARK    2  A    between atoms: C_3  and  C_16
REMARK    3  A    between atoms: C_8  and  C_10
REMARK    4  A    between atoms: C_16  and  C_17
REMARK    5  A    between atoms: C_27  and  C_29
REMARK                            x       y       z     vdW  Elec       q    Type
REMARK                         _______ _______ _______ _____ _____    ______ ____
ROOT
ATOM      1  C   UNL     1      -0.011   1.962  -0.123  0.00  0.00    +0.066 C 
ATOM      2  C   UNL     1       0.092   0.462  -0.019  0.00  0.00    +0.049 A 
ATOM      3  C   UNL     1      -1.041  -0.293   0.057  0.00  0.00    +0.047 A 
ATOM      4  C   UNL     1      -0.918  -1.695   0.153  0.00  0.00    +0.256 A 
ATOM      5  O   UNL     1      -1.910  -2.402   0.223  0.00  0.00    -0.267 OA
ATOM      6  N   UNL     1       0.318  -2.238   0.166  0.00  0.00    -0.307 N 
ATOM      7  H   UNL     1       0.426  -3.200   0.231  0.00  0.00    +0.170 HD
ATOM      8  C   UNL     1       1.412  -1.430   0.086  0.00  0.00    +0.141 A 
ATOM      9  N   UNL     1       1.288  -0.123  -0.008  0.00  0.00    -0.234 NA
ENDROOT
BRANCH   8  10
ATOM     10  C   UNL     1       2.763  -2.033   0.101  0.00  0.00    +0.020 A 
ATOM     11  C   UNL     1       2.931  -3.419   0.189  0.00  0.00    +0.031 A 
ATOM     12  C   UNL     1       4.210  -3.939   0.199  0.00  0.00    +0.111 A 
ATOM     13  N   UNL     1       5.263  -3.148   0.126  0.00  0.00    -0.263 NA
ATOM     14  C   UNL     1       5.149  -1.837   0.042  0.00  0.00    +0.111 A 
ATOM     15  C   UNL     1       3.908  -1.233   0.021  0.00  0.00    +0.031 A 
ENDBRANCH   8  10
BRANCH   3  16
ATOM     16  C   UNL     1      -2.399   0.358   0.040  0.00  0.00    +0.138 C 
BRANCH  16  17
ATOM     17  C   UNL     1      -2.935   0.365  -1.368  0.00  0.00    +0.221 C 
ATOM     18  O   UNL     1      -2.279  -0.112  -2.270  0.00  0.00    -0.275 OA
ATOM     19  N   UNL     1      -4.144   0.902  -1.627  0.00  0.00    -0.294 N 
ATOM     20  C   UNL     1      -4.999   1.378  -0.528  0.00  0.00    +0.113 C 
ATOM     21  C   UNL     1      -5.164   2.899  -0.670  0.00  0.00    +0.061 C 
ATOM     22  C   UNL     1      -5.404   3.223  -2.108  0.00  0.00    -0.004 A 
ATOM     23  C   UNL     1      -5.179   2.432  -3.192  0.00  0.00    -0.017 A 
ATOM     24  C   UNL     1      -5.482   2.978  -4.439  0.00  0.00    +0.013 A 
ATOM     25  C   UNL     1      -5.978   4.233  -4.525  0.00  0.00    +0.046 A 
ATOM     26  S   UNL     1      -6.044   4.721  -2.808  0.00  0.00    -0.101 S 
ATOM     27  C   UNL     1      -4.625   1.025  -3.010  0.00  0.00    +0.104 C 
ATOM     28  C   UNL     1      -3.466   0.795  -3.983  0.00  0.00    +0.033 C 
ENDBRANCH  16  17
ENDBRANCH   3  16
TORSDOF 3
