REMARK  Name = ZINC37421511
REMARK  3 active torsions:
REMARK  status: ('A' for Active; 'I' for Inactive)
REMARK    1  A    between atoms: C_1  and  C_2
REMARK    2  A    between atoms: C_2  and  C_4
REMARK    3  A    between atoms: C_2  and  N_9
REMARK                            x       y       z     vdW  Elec       q    Type
REMARK                         _______ _______ _______ _____ _____    ______ ____
ROOT
ATOM      1  N   UNL     1       0.863  -0.265  -1.153  0.00  0.00    -0.304 N 
ATOM      2  C   UNL     1       0.479  -0.851  -2.348  0.00  0.00    +0.073 A 
ATOM      3  C   UNL     1      -0.726  -1.334  -2.839  0.00  0.00    +0.028 A 
ATOM      4  C   UNL     1      -0.784  -1.874  -4.106  0.00  0.00    +0.005 A 
ATOM      5  C   UNL     1       0.354  -1.940  -4.896  0.00  0.00    +0.040 A 
ATOM      6  C   UNL     1       1.560  -1.466  -4.424  0.00  0.00    +0.151 A 
ATOM      7  C   UNL     1       1.635  -0.914  -3.141  0.00  0.00    +0.126 A 
ATOM      8  N   UNL     1       2.650  -0.377  -2.413  0.00  0.00    -0.212 NA
ATOM      9  C   UNL     1       2.198   0.009  -1.247  0.00  0.00    +0.195 A 
ATOM     10  N   UNL     1       2.957   0.603  -0.259  0.00  0.00    -0.329 N 
ATOM     11  F   UNL     1       2.665  -1.535  -5.199  0.00  0.00    -0.203 F 
ATOM     12  H   UNL     1       2.565   0.787   0.609  0.00  0.00    +0.145 HD
ATOM     13  H   UNL     1       3.882   0.836  -0.433  0.00  0.00    +0.145 HD
ENDROOT
BRANCH   1  15
ATOM     14  C   UNL     1      -0.720  -1.270   0.417  0.00  0.00    +0.036 C 
ATOM     15  C   UNL     1      -0.002   0.013  -0.004  0.00  0.00    +0.124 C 
BRANCH  15  16
ATOM     16  C   UNL     1      -1.020   1.057  -0.384  0.00  0.00    +0.012 A 
ATOM     17  C   UNL     1      -1.152   2.327   0.072  0.00  0.00    +0.013 A 
ATOM     18  C   UNL     1      -2.173   3.115  -0.425  0.00  0.00    +0.008 A 
ATOM     19  C   UNL     1      -3.012   2.595  -1.353  0.00  0.00    +0.045 A 
ATOM     20  S   UNL     1      -2.361   0.946  -1.557  0.00  0.00    -0.100 S 
ENDBRANCH  15  16
ENDBRANCH   1  15
TORSDOF 2
