REMARK  Name = ZINC39672753
REMARK  9 active torsions:
REMARK  status: ('A' for Active; 'I' for Inactive)
REMARK    1  A    between atoms: C_1  and  C_2
REMARK    2  A    between atoms: C_2  and  C_3
REMARK    3  A    between atoms: C_3  and  C_4
REMARK    4  A    between atoms: C_4  and  C_6
REMARK    5  A    between atoms: C_4  and  C_7
REMARK    6  A    between atoms: C_11  and  C_20
REMARK    7  A    between atoms: N_22  and  C_23
REMARK    8  A    between atoms: C_23  and  C_24
REMARK    9  A    between atoms: C_24  and  N_30
REMARK                            x       y       z     vdW  Elec       q    Type
REMARK                         _______ _______ _______ _____ _____    ______ ____
ROOT
ATOM      1  C   UNL     1       1.832  -2.665  -3.915  0.00  0.00    +0.218 C 
ATOM      2  O   UNL     1       2.331  -2.047  -4.832  0.00  0.00    -0.275 OA
ATOM      3  N   UNL     1       1.868  -4.012  -3.912  0.00  0.00    -0.300 N 
ATOM      4  C   UNL     1       1.224  -4.936  -2.949  0.00  0.00    +0.121 C 
ATOM      5  C   UNL     1       0.707  -6.105  -3.816  0.00  0.00    +0.100 C 
ATOM      6  C   UNL     1       1.589  -6.080  -5.075  0.00  0.00    -0.004 C 
ATOM      7  C   UNL     1       2.556  -4.905  -4.876  0.00  0.00    +0.115 C 
ATOM      8  C   UNL     1       0.732  -5.847  -6.316  0.00  0.00    -0.010 C 
ATOM      9  C   UNL     1       1.623  -5.883  -7.560  0.00  0.00    -0.082 C 
ATOM     10  N   UNL     1       2.296  -7.185  -7.644  0.00  0.00    +0.379 N 
ATOM     11  C   UNL     1       3.190  -7.362  -6.493  0.00  0.00    -0.082 C 
ATOM     12  C   UNL     1       2.365  -7.388  -5.203  0.00  0.00    -0.010 C 
ATOM     13  H   UNL     1       1.605  -7.920  -7.648  0.00  0.00    -0.086 HD
ATOM     14  H   UNL     1       2.835  -7.229  -8.496  0.00  0.00    -0.086 HD
ENDROOT
BRANCH   5  15
ATOM     15  C   UNL     1       0.869  -7.413  -3.084  0.00  0.00    +0.218 C 
ATOM     16  O   UNL     1       1.783  -7.559  -2.300  0.00  0.00    -0.275 OA
ATOM     17  N   UNL     1      -0.001  -8.419  -3.301  0.00  0.00    -0.313 N 
ATOM     18  H   UNL     1      -0.732  -8.301  -3.928  0.00  0.00    +0.149 HD
BRANCH  17  19
ATOM     19  C   UNL     1       0.157  -9.690  -2.590  0.00  0.00    +0.126 C 
BRANCH  19  20
ATOM     20  C   UNL     1      -0.877 -10.694  -3.104  0.00  0.00    +0.038 C 
ATOM     21  C   UNL     1      -0.801 -11.975  -2.271  0.00  0.00    +0.024 C 
ATOM     22  C   UNL     1       0.600 -12.579  -2.392  0.00  0.00    +0.002 C 
ATOM     23  C   UNL     1       0.890 -12.905  -3.858  0.00  0.00    +0.000 C 
ATOM     24  C   UNL     1       0.814 -11.623  -4.690  0.00  0.00    +0.002 C 
ATOM     25  C   UNL     1      -0.586 -11.020  -4.570  0.00  0.00    +0.024 C 
BRANCH  20  26
ATOM     26  N   UNL     1      -2.222 -10.114  -2.988  0.00  0.00    -0.291 NA
ATOM     27  C   UNL     1      -2.526  -9.762  -1.594  0.00  0.00    +0.113 C 
ATOM     28  C   UNL     1      -3.909  -9.109  -1.528  0.00  0.00    +0.175 C 
ATOM     29  O   UNL     1      -4.879  -9.999  -2.086  0.00  0.00    -0.377 OA
ATOM     30  C   UNL     1      -4.614 -10.363  -3.443  0.00  0.00    +0.175 C 
ATOM     31  C   UNL     1      -3.238 -11.029  -3.528  0.00  0.00    +0.113 C 
ENDBRANCH  20  26
ENDBRANCH  19  20
ENDBRANCH  17  19
ENDBRANCH   5  15
BRANCH   1  32
ATOM     32  C   UNL     1       1.172  -1.926  -2.780  0.00  0.00    +0.072 C 
ATOM     33  C   UNL     1      -0.311  -1.724  -3.096  0.00  0.00    +0.017 C 
BRANCH  32  34
ATOM     34  C   UNL     1       1.845  -0.564  -2.598  0.00  0.00    +0.012 C 
BRANCH  34  36
ATOM     35  C   UNL     1       1.932   1.496  -1.186  0.00  0.00    +0.004 C 
ATOM     36  C   UNL     1       1.260   0.134  -1.368  0.00  0.00    -0.003 C 
ENDBRANCH  34  36
ENDBRANCH  32  34
ENDBRANCH   1  32
TORSDOF 7
