REMARK  Name = ZINC14279996
REMARK  7 active torsions:
REMARK  status: ('A' for Active; 'I' for Inactive)
REMARK    1  A    between atoms: C_1  and  C_2
REMARK    2  A    between atoms: C_2  and  C_4
REMARK    3  A    between atoms: C_2  and  N_14
REMARK    4  A    between atoms: C_15  and  C_17
REMARK    5  A    between atoms: C_17  and  C_18
REMARK    6  A    between atoms: C_18  and  C_20
REMARK    7  A    between atoms: C_18  and  N_26
REMARK                            x       y       z     vdW  Elec       q    Type
REMARK                         _______ _______ _______ _____ _____    ______ ____
ROOT
ATOM      1  N   UNL     1       3.333  -1.573  -2.956  0.00  0.00    -0.312 N 
ATOM      2  C   UNL     1       3.259  -2.404  -4.014  0.00  0.00    +0.215 C 
ATOM      3  O   UNL     1       3.232  -1.953  -5.140  0.00  0.00    -0.276 OA
ATOM      4  H   UNL     1       3.355  -1.934  -2.056  0.00  0.00    +0.149 HD
ENDROOT
BRANCH   1   6
ATOM      5  C   UNL     1       4.829   0.306  -3.420  0.00  0.00    +0.028 C 
ATOM      6  C   UNL     1       3.383  -0.124  -3.166  0.00  0.00    +0.076 C 
BRANCH   6   7
ATOM      7  C   UNL     1       2.849   0.590  -1.922  0.00  0.00    -0.010 C 
ATOM      8  C   UNL     1       1.403   0.160  -1.668  0.00  0.00    +0.012 C 
ATOM      9  C   UNL     1       0.870   0.873  -0.424  0.00  0.00    -0.010 C 
ATOM     10  C   UNL     1       0.921   2.387  -0.642  0.00  0.00    +0.007 C 
ATOM     11  C   UNL     1       2.368   2.817  -0.896  0.00  0.00    -0.010 C 
ATOM     12  C   UNL     1       2.901   2.103  -2.140  0.00  0.00    +0.012 C 
ATOM     13  C   UNL     1       3.229   2.446   0.313  0.00  0.00    +0.007 C 
ATOM     14  C   UNL     1       3.178   0.933   0.531  0.00  0.00    -0.010 C 
ATOM     15  C   UNL     1       1.732   0.503   0.785  0.00  0.00    +0.007 C 
ATOM     16  C   UNL     1       3.711   0.220  -0.713  0.00  0.00    +0.012 C 
ENDBRANCH   6   7
ENDBRANCH   1   6
BRANCH   2  17
ATOM     17  C   UNL     1       3.208  -3.895  -3.799  0.00  0.00    +0.123 C 
BRANCH  17  18
ATOM     18  C   UNL     1       3.127  -4.603  -5.153  0.00  0.00    +0.113 C 
BRANCH  18  19
ATOM     19  N   UNL     1       1.861  -4.263  -5.806  0.00  0.00    -0.292 N 
ATOM     20  C   UNL     1       0.692  -4.634  -5.246  0.00  0.00    +0.298 C 
ATOM     21  O   UNL     1       0.684  -5.167  -4.154  0.00  0.00    -0.253 OA
ATOM     22  N   UNL     1      -0.467  -4.413  -5.897  0.00  0.00    -0.313 N 
ATOM     23  H   UNL     1       1.863  -3.771  -6.642  0.00  0.00    +0.151 HD
ATOM     24  H   UNL     1      -0.461  -3.988  -6.769  0.00  0.00    +0.146 HD
ATOM     25  H   UNL     1      -1.308  -4.680  -5.494  0.00  0.00    +0.146 HD
ENDBRANCH  18  19
BRANCH  18  26
ATOM     26  C   UNL     1       3.200  -6.094  -4.945  0.00  0.00    -0.027 A 
ATOM     27  C   UNL     1       3.828  -6.606  -3.825  0.00  0.00    +0.005 A 
ATOM     28  C   UNL     1       3.891  -7.973  -3.632  0.00  0.00    +0.000 A 
ATOM     29  C   UNL     1       3.334  -8.829  -4.563  0.00  0.00    +0.000 A 
ATOM     30  C   UNL     1       2.711  -8.318  -5.686  0.00  0.00    +0.000 A 
ATOM     31  C   UNL     1       2.644  -6.950  -5.877  0.00  0.00    +0.005 A 
ENDBRANCH  18  26
ENDBRANCH  17  18
ENDBRANCH   2  17
TORSDOF 6
