REMARK  Name = ZINC66162582
REMARK  9 active torsions:
REMARK  status: ('A' for Active; 'I' for Inactive)
REMARK    1  A    between atoms: C_1  and  C_2
REMARK    2  A    between atoms: C_2  and  C_3
REMARK    3  A    between atoms: C_2  and  O_4
REMARK    4  A    between atoms: O_4  and  C_5
REMARK    5  A    between atoms: C_5  and  C_7
REMARK    6  A    between atoms: C_11  and  N_13
REMARK    7  A    between atoms: C_20  and  C_23
REMARK    8  A    between atoms: C_23  and  N_24
REMARK    9  A    between atoms: C_25  and  C_27
REMARK                            x       y       z     vdW  Elec       q    Type
REMARK                         _______ _______ _______ _____ _____    ______ ____
ROOT
ATOM      1  N   UNL     1       6.226  -1.976  -3.193  0.00  0.00    -0.268 N 
ATOM      2  C   UNL     1       6.888  -1.637  -2.070  0.00  0.00    +0.306 C 
ATOM      3  O   UNL     1       6.274  -1.241  -1.098  0.00  0.00    -0.252 OA
ATOM      4  N   UNL     1       8.231  -1.735  -2.023  0.00  0.00    -0.285 N 
ATOM      5  C   UNL     1       8.997  -2.095  -3.225  0.00  0.00    +0.109 C 
ATOM      6  C   UNL     1      10.078  -1.034  -3.456  0.00  0.00    +0.019 C 
ATOM      7  C   UNL     1      10.926  -0.890  -2.190  0.00  0.00    +0.008 C 
ATOM      8  C   UNL     1      10.039  -0.431  -1.030  0.00  0.00    +0.024 C 
ATOM      9  C   UNL     1       8.958  -1.479  -0.772  0.00  0.00    +0.114 C 
ATOM     10  H   UNL     1       6.708  -2.351  -3.946  0.00  0.00    +0.156 HD
ENDROOT
BRANCH   1  15
ATOM     11  C   UNL     1       2.687  -1.647  -2.209  0.00  0.00    +0.061 A 
ATOM     12  C   UNL     1       2.094  -1.412  -3.452  0.00  0.00    +0.016 A 
ATOM     13  C   UNL     1       2.872  -1.366  -4.590  0.00  0.00    +0.022 A 
ATOM     14  C   UNL     1       4.240  -1.553  -4.506  0.00  0.00    +0.062 A 
ATOM     15  C   UNL     1       4.840  -1.788  -3.273  0.00  0.00    +0.054 A 
ATOM     16  C   UNL     1       4.068  -1.830  -2.124  0.00  0.00    +0.039 A 
ATOM     17 CL   UNL     1       5.212  -1.494  -5.944  0.00  0.00    -0.082 Cl
BRANCH  11  18
ATOM     18  C   UNL     1       1.856  -1.696  -0.990  0.00  0.00    +0.339 C 
ATOM     19  O   UNL     1       2.375  -1.897   0.091  0.00  0.00    -0.245 OA
BRANCH  18  20
ATOM     20  O   UNL     1       0.523  -1.520  -1.075  0.00  0.00    -0.458 OA
BRANCH  20  22
ATOM     21  C   UNL     1      -0.306  -0.181   0.759  0.00  0.00    +0.052 C 
ATOM     22  C   UNL     1      -0.218  -1.580   0.145  0.00  0.00    +0.171 C 
ATOM     23  C   UNL     1      -1.628  -2.101  -0.140  0.00  0.00    +0.052 C 
ENDBRANCH  20  22
ENDBRANCH  18  20
ENDBRANCH  11  18
ENDBRANCH   1  15
BRANCH   8  24
ATOM     24  C   UNL     1      10.893  -0.256   0.227  0.00  0.00    +0.109 C 
BRANCH  24  25
ATOM     25  N   UNL     1      10.069   0.297   1.305  0.00  0.00    -0.315 N 
ATOM     26  C   UNL     1      10.613   0.538   2.514  0.00  0.00    +0.210 C 
ATOM     27  O   UNL     1      11.785   0.297   2.710  0.00  0.00    -0.276 OA
ATOM     28  C   UNL     1       9.765   1.106   3.622  0.00  0.00    +0.109 C 
ATOM     29  H   UNL     1       9.131   0.490   1.148  0.00  0.00    +0.149 HD
ENDBRANCH  24  25
ENDBRANCH   8  24
TORSDOF 6
