REMARK  Name = ZINC09833527
REMARK  2 active torsions:
REMARK  status: ('A' for Active; 'I' for Inactive)
REMARK    1  A    between atoms: C_10  and  C_11
REMARK    2  A    between atoms: C_14  and  C_23
REMARK                            x       y       z     vdW  Elec       q    Type
REMARK                         _______ _______ _______ _____ _____    ______ ____
ROOT
ATOM      1  C   UNL     1       4.960   0.161  -0.046  0.00  0.00    +0.143 C 
ATOM      2  C   UNL     1       5.731  -0.110   1.252  0.00  0.00    +0.058 C 
ATOM      3  C   UNL     1       7.154   0.447   1.134  0.00  0.00    +0.106 C 
ATOM      4  N   UNL     1       7.849  -0.262   0.042  0.00  0.00    -0.307 N 
ATOM      5  C   UNL     1       7.120  -0.460  -1.123  0.00  0.00    +0.216 A 
ATOM      6  N   UNL     1       5.779  -0.264  -1.181  0.00  0.00    -0.224 N 
ATOM      7  N   UNL     1       5.388  -0.548  -2.491  0.00  0.00    -0.132 NA
ATOM      8  C   UNL     1       6.476  -0.891  -3.144  0.00  0.00    +0.233 A 
ATOM      9  N   UNL     1       7.527  -0.840  -2.304  0.00  0.00    -0.180 NA
ATOM     10  N   UNL     1       6.531  -1.256  -4.490  0.00  0.00    -0.326 N 
ATOM     11  H   UNL     1       8.764  -0.572   0.133  0.00  0.00    +0.149 HD
ATOM     12  H   UNL     1       5.720  -1.270  -5.023  0.00  0.00    +0.145 HD
ATOM     13  H   UNL     1       7.380  -1.496  -4.894  0.00  0.00    +0.145 HD
ENDROOT
BRANCH   1  23
ATOM     14  C   UNL     1      -0.016   1.357   0.029  0.00  0.00    +0.001 A 
ATOM     15  C   UNL     1       1.169   2.091   0.021  0.00  0.00    +0.001 A 
ATOM     16  C   UNL     1       2.379   1.468  -0.000  0.00  0.00    +0.009 A 
ATOM     17  C   UNL     1       2.438   0.064  -0.015  0.00  0.00    -0.013 A 
ATOM     18  C   UNL     1       1.233  -0.683  -0.007  0.00  0.00    -0.018 A 
ATOM     19  C   UNL     1       0.002  -0.004   0.015  0.00  0.00    +0.008 A 
ATOM     20  C   UNL     1       1.292  -2.087  -0.021  0.00  0.00    +0.008 A 
ATOM     21  C   UNL     1       2.502  -2.709  -0.042  0.00  0.00    +0.001 A 
ATOM     22  C   UNL     1       3.687  -1.976  -0.050  0.00  0.00    +0.006 A 
ATOM     23  C   UNL     1       3.668  -0.615  -0.037  0.00  0.00    -0.015 A 
ENDBRANCH   1  23
BRANCH   3  24
ATOM     24  C   UNL     1       7.891   0.231   2.431  0.00  0.00    -0.027 A 
ATOM     25  C   UNL     1       8.443  -1.004   2.715  0.00  0.00    +0.006 A 
ATOM     26  C   UNL     1       9.119  -1.202   3.905  0.00  0.00    +0.015 A 
ATOM     27  C   UNL     1       9.243  -0.164   4.810  0.00  0.00    +0.018 A 
ATOM     28  C   UNL     1       8.691   1.072   4.526  0.00  0.00    +0.015 A 
ATOM     29  C   UNL     1       8.020   1.271   3.334  0.00  0.00    +0.006 A 
ATOM     30 BR   UNL     1      10.168  -0.435   6.438  0.00  0.00    -0.050 Br
ENDBRANCH   3  24
TORSDOF 2
