REMARK  Name = ZINC43525944
REMARK  7 active torsions:
REMARK  status: ('A' for Active; 'I' for Inactive)
REMARK    1  A    between atoms: C_1  and  N_2
REMARK    2  A    between atoms: C_3  and  C_14
REMARK    3  A    between atoms: C_5  and  C_7
REMARK    4  A    between atoms: C_23  and  C_25
REMARK    5  A    between atoms: C_25  and  N_26
REMARK    6  A    between atoms: N_26  and  S_27
REMARK    7  A    between atoms: S_27  and  C_30
REMARK                            x       y       z     vdW  Elec       q    Type
REMARK                         _______ _______ _______ _____ _____    ______ ____
ROOT
ATOM      1  C   UNL     1      -0.006  -0.316  -2.526  0.00  0.00    +0.024 C 
ATOM      2  C   UNL     1       1.431  -0.140  -3.022  0.00  0.00    -0.068 C 
ATOM      3  N   UNL     1       1.676  -1.014  -4.171  0.00  0.00    +0.383 N 
ATOM      4  C   UNL     1       1.511  -2.420  -3.794  0.00  0.00    -0.078 C 
ATOM      5  C   UNL     1       0.076  -2.672  -3.323  0.00  0.00    -0.015 C 
ATOM      6  C   UNL     1      -0.713  -1.355  -3.406  0.00  0.00    -0.007 C 
ATOM      7  C   UNL     1      -0.678  -0.862  -4.859  0.00  0.00    -0.010 C 
ATOM      8  C   UNL     1       0.783  -0.670  -5.280  0.00  0.00    -0.053 C 
ATOM      9  H   UNL     1       2.629  -0.883  -4.475  0.00  0.00    -0.081 HD
ENDROOT
BRANCH   1  12
ATOM     10  C   UNL     1      -2.056   0.406  -0.321  0.00  0.00    +0.172 C 
ATOM     11  N   UNL     1      -0.894  -0.468  -0.143  0.00  0.00    -0.271 N 
ATOM     12  C   UNL     1       0.008  -0.790  -1.096  0.00  0.00    +0.041 A 
ATOM     13  C   UNL     1       0.924  -1.614  -0.541  0.00  0.00    +0.053 A 
ATOM     14  C   UNL     1       0.571  -1.805   0.809  0.00  0.00    +0.093 A 
ATOM     15  N   UNL     1      -0.521  -1.109   1.045  0.00  0.00    -0.171 NA
BRANCH  14  16
ATOM     16  C   UNL     1       1.304  -2.640   1.793  0.00  0.00    +0.002 A 
ATOM     17  C   UNL     1       2.459  -3.319   1.411  0.00  0.00    +0.013 A 
ATOM     18  C   UNL     1       3.137  -4.095   2.329  0.00  0.00    +0.039 A 
ATOM     19  C   UNL     1       2.671  -4.199   3.629  0.00  0.00    +0.123 A 
ATOM     20  C   UNL     1       1.523  -3.525   4.014  0.00  0.00    +0.039 A 
ATOM     21  C   UNL     1       0.842  -2.743   3.104  0.00  0.00    +0.013 A 
ATOM     22  F   UNL     1       3.337  -4.959   4.525  0.00  0.00    -0.205 F 
ENDBRANCH  14  16
ENDBRANCH   1  12
BRANCH   8  23
ATOM     23  C   UNL     1       1.090  -1.572  -6.478  0.00  0.00    +0.091 C 
BRANCH  23  24
ATOM     24  N   UNL     1       2.512  -1.467  -6.816  0.00  0.00    -0.191 NA
ATOM     25  H   UNL     1       3.044  -0.741  -6.456  0.00  0.00    +0.148 HD
BRANCH  24  26
ATOM     26  S   UNL     1       3.210  -2.590  -7.813  0.00  0.00    +0.065 S 
ATOM     27  O   UNL     1       4.569  -2.205  -7.969  0.00  0.00    -0.153 OA
ATOM     28  O   UNL     1       2.832  -3.866  -7.316  0.00  0.00    -0.153 OA
BRANCH  26  29
ATOM     29  C   UNL     1       2.455  -2.422  -9.396  0.00  0.00    +0.142 A 
ATOM     30  C   UNL     1       2.826  -1.643 -10.441  0.00  0.00    +0.036 A 
ATOM     31  C   UNL     1       2.075  -1.674 -11.601  0.00  0.00    +0.010 A 
ATOM     32  C   UNL     1       0.988  -2.482 -11.659  0.00  0.00    +0.047 A 
ATOM     33  S   UNL     1       1.006  -3.241 -10.043  0.00  0.00    -0.077 S 
ENDBRANCH  26  29
ENDBRANCH  24  26
ENDBRANCH  23  24
ENDBRANCH   8  23
TORSDOF 6
