REMARK  Name = ZINC63619700
REMARK  9 active torsions:
REMARK  status: ('A' for Active; 'I' for Inactive)
REMARK    1  A    between atoms: C_1  and  C_2
REMARK    2  A    between atoms: C_2  and  C_3
REMARK    3  A    between atoms: C_2  and  O_4
REMARK    4  A    between atoms: O_4  and  C_5
REMARK    5  A    between atoms: C_9  and  C_11
REMARK    6  A    between atoms: C_15  and  S_19
REMARK    7  A    between atoms: N_17  and  N_18
REMARK    8  A    between atoms: S_19  and  C_20
REMARK    9  A    between atoms: C_20  and  C_21
REMARK                            x       y       z     vdW  Elec       q    Type
REMARK                         _______ _______ _______ _____ _____    ______ ____
ROOT
ATOM      1  C   UNL     1       0.344  -1.403   5.791  0.00  0.00    +0.186 C 
ATOM      2  N   UNL     1       1.578  -2.199   5.603  0.00  0.00    -0.232 NA
ATOM      3  N   UNL     1       1.647  -3.059   6.795  0.00  0.00    -0.228 NA
ATOM      4  C   UNL     1       0.224  -3.416   7.033  0.00  0.00    +0.214 C 
ATOM      5  N   UNL     1      -0.523  -2.178   6.703  0.00  0.00    -0.195 NA
ATOM      6  H   UNL     1       2.388  -1.601   5.541  0.00  0.00    +0.143 HD
ATOM      7  H   UNL     1       2.030  -2.556   7.581  0.00  0.00    +0.143 HD
ENDROOT
BRANCH   1  12
ATOM      8  C   UNL     1      -0.241  -0.921   2.089  0.00  0.00    +0.121 A 
ATOM      9  C   UNL     1      -1.625  -0.834   2.039  0.00  0.00    +0.045 A 
ATOM     10  C   UNL     1      -2.365  -0.931   3.202  0.00  0.00    +0.004 A 
ATOM     11  C   UNL     1      -1.727  -1.115   4.415  0.00  0.00    +0.007 A 
ATOM     12  C   UNL     1      -0.348  -1.202   4.467  0.00  0.00    -0.010 A 
ATOM     13  C   UNL     1       0.396  -1.112   3.306  0.00  0.00    +0.052 A 
BRANCH   8  14
ATOM     14  O   UNL     1       0.488  -0.826   0.946  0.00  0.00    -0.489 OA
BRANCH  14  16
ATOM     15  C   UNL     1      -0.472   0.923  -0.417  0.00  0.00    +0.051 C 
ATOM     16  C   UNL     1      -0.231  -0.580  -0.264  0.00  0.00    +0.167 C 
ATOM     17  C   UNL     1       0.584  -1.090  -1.454  0.00  0.00    +0.051 C 
ENDBRANCH  14  16
ENDBRANCH   8  14
ENDBRANCH   1  12
BRANCH   5  18
ATOM     18  N   UNL     1      -0.828  -1.417   7.903  0.00  0.00    -0.264 NA
ATOM     19  H   UNL     1      -1.500  -1.903   8.478  0.00  0.00    +0.137 HD
ATOM     20  H   UNL     1       0.011  -1.211   8.424  0.00  0.00    +0.137 HD
ENDBRANCH   5  18
BRANCH   4  21
ATOM     21  S   UNL     1      -0.034  -3.871   8.770  0.00  0.00    -0.120 S 
BRANCH  21  22
ATOM     22  C   UNL     1       0.680  -5.534   8.898  0.00  0.00    +0.118 C 
BRANCH  22  23
ATOM     23  C   UNL     1       0.418  -6.095  10.297  0.00  0.00    +0.184 C 
ATOM     24  N   UNL     1      -1.024  -6.102  10.575  0.00  0.00    -0.363 N 
ATOM     25  C   UNL     1      -1.226  -5.341  11.612  0.00  0.00    +0.060 A 
ATOM     26  C   UNL     1      -2.437  -4.961  12.352  0.00  0.00    +0.027 A 
ATOM     27  C   UNL     1      -2.337  -4.136  13.413  0.00  0.00    +0.002 A 
ATOM     28  C   UNL     1      -1.108  -3.612  13.852  0.00  0.00    +0.002 A 
ATOM     29  C   UNL     1       0.062  -3.896  13.246  0.00  0.00    +0.027 A 
ATOM     30  C   UNL     1       0.075  -4.788  12.078  0.00  0.00    +0.060 A 
ATOM     31  N   UNL     1       1.030  -5.228  11.311  0.00  0.00    -0.363 N 
ATOM     32  H   UNL     1      -1.702  -6.585  10.077  0.00  0.00    +0.162 HD
ATOM     33  H   UNL     1       1.974  -5.020  11.394  0.00  0.00    +0.162 HD
ENDBRANCH  22  23
ENDBRANCH  21  22
ENDBRANCH   4  21
TORSDOF 7
