REMARK  Name = ZINC49646576
REMARK  3 active torsions:
REMARK  status: ('A' for Active; 'I' for Inactive)
REMARK    1  A    between atoms: C_7  and  N_12
REMARK    2  A    between atoms: N_12  and  S_13
REMARK    3  A    between atoms: S_13  and  C_16
REMARK                            x       y       z     vdW  Elec       q    Type
REMARK                         _______ _______ _______ _____ _____    ______ ____
ROOT
ATOM      1  N   UNL     1       0.174  -2.706   1.881  0.00  0.00    -0.193 NA
ATOM      2  H   UNL     1      -0.212  -2.111   2.543  0.00  0.00    +0.148 HD
ENDROOT
BRANCH   1   9
ATOM      3  C   UNL     1       1.292   1.332   0.005  0.00  0.00    -0.003 C 
ATOM      4  C   UNL     1       2.808   1.525   0.037  0.00  0.00    -0.019 C 
ATOM      5  C   UNL     1       3.435   0.714   1.181  0.00  0.00    -0.078 C 
ATOM      6  N   UNL     1       3.078  -0.683   0.986  0.00  0.00    +0.383 N 
ATOM      7  C   UNL     1       3.674  -1.634   1.926  0.00  0.00    -0.077 C 
ATOM      8  C   UNL     1       2.653  -2.791   2.063  0.00  0.00    +0.000 C 
ATOM      9  C   UNL     1       1.428  -2.348   1.216  0.00  0.00    +0.061 C 
ATOM     10  C   UNL     1       1.609  -0.820   1.168  0.00  0.00    -0.050 C 
ATOM     11  C   UNL     1       0.939  -0.164  -0.031  0.00  0.00    -0.014 C 
ATOM     12  H   UNL     1       3.323  -0.961   0.048  0.00  0.00    -0.081 HD
ENDBRANCH   1   9
BRANCH   1  13
ATOM     13  S   UNL     1      -0.586  -4.129   1.505  0.00  0.00    +0.032 S 
ATOM     14  O   UNL     1       0.426  -5.120   1.613  0.00  0.00    -0.158 OA
ATOM     15  O   UNL     1      -1.728  -4.165   2.350  0.00  0.00    -0.158 OA
BRANCH  13  16
ATOM     16  C   UNL     1      -1.095  -3.941  -0.226  0.00  0.00    +0.144 C 
ATOM     17  C   UNL     1      -2.046  -2.747  -0.354  0.00  0.00    +0.008 C 
ATOM     18  C   UNL     1      -2.534  -2.643  -1.800  0.00  0.00    -0.081 C 
ATOM     19  N   UNL     1      -3.240  -3.875  -2.172  0.00  0.00    +0.379 N 
ATOM     20  C   UNL     1      -2.316  -5.014  -2.122  0.00  0.00    -0.081 C 
ATOM     21  C   UNL     1      -1.819  -5.209  -0.687  0.00  0.00    +0.008 C 
ATOM     22  H   UNL     1      -4.002  -4.032  -1.529  0.00  0.00    -0.086 HD
ATOM     23  H   UNL     1      -3.607  -3.782  -3.108  0.00  0.00    -0.086 HD
ENDBRANCH  13  16
ENDBRANCH   1  13
TORSDOF 3
