REMARK  Name = ZINC20863010
REMARK  7 active torsions:
REMARK  status: ('A' for Active; 'I' for Inactive)
REMARK    1  A    between atoms: C_2  and  C_3
REMARK    2  A    between atoms: C_3  and  C_4
REMARK    3  A    between atoms: C_9  and  C_25
REMARK    4  A    between atoms: N_11  and  C_12
REMARK    5  A    between atoms: C_12  and  C_13
REMARK    6  A    between atoms: C_15  and  C_18
REMARK    7  A    between atoms: C_18  and  C_19
REMARK                            x       y       z     vdW  Elec       q    Type
REMARK                         _______ _______ _______ _____ _____    ______ ____
ROOT
ATOM      1  C   UNL     1      -3.682   5.776   5.710  0.00  0.00    -0.059 C 
ATOM      2  C   UNL     1      -4.950   6.603   5.480  0.00  0.00    +0.012 C 
ATOM      3  C   UNL     1      -5.984   5.763   4.784  0.00  0.00    -0.034 C 
ATOM      4  C   UNL     1      -5.698   4.651   4.177  0.00  0.00    -0.042 C 
ATOM      5  C   UNL     1      -4.309   4.083   4.110  0.00  0.00    -0.013 C 
ATOM      6  N   UNL     1      -3.320   5.115   4.444  0.00  0.00    +0.395 N 
ATOM      7  H   UNL     1      -3.321   5.869   3.643  0.00  0.00    -0.079 HD
ENDROOT
BRANCH   5   8
ATOM      8  C   UNL     1      -4.046   3.572   2.717  0.00  0.00    -0.057 A 
ATOM      9  C   UNL     1      -3.686   4.453   1.714  0.00  0.00    +0.002 A 
ATOM     10  C   UNL     1      -3.440   3.983   0.437  0.00  0.00    +0.000 A 
ATOM     11  C   UNL     1      -3.563   2.634   0.161  0.00  0.00    +0.000 A 
ATOM     12  C   UNL     1      -3.927   1.754   1.163  0.00  0.00    +0.000 A 
ATOM     13  C   UNL     1      -4.169   2.223   2.441  0.00  0.00    +0.002 A 
ENDBRANCH   5   8
BRANCH   1  14
ATOM     14  C   UNL     1      -3.946   4.719   6.784  0.00  0.00    +0.012 C 
BRANCH  14  16
ATOM     15  C   UNL     1      -5.321   5.302   8.715  0.00  0.00    +0.004 C 
ATOM     16  C   UNL     1      -4.162   5.397   8.113  0.00  0.00    -0.036 C 
ENDBRANCH  14  16
ENDBRANCH   1  14
BRANCH   6  17
ATOM     17  C   UNL     1      -1.968   4.545   4.516  0.00  0.00    +0.023 C 
BRANCH  17  18
ATOM     18  C   UNL     1      -1.496   4.196   3.128  0.00  0.00    +0.211 A 
ATOM     19  N   UNL     1      -0.840   4.979   2.307  0.00  0.00    -0.197 NA
ATOM     20  C   UNL     1      -0.634   4.247   1.197  0.00  0.00    +0.176 A 
ATOM     21  N   UNL     1      -1.170   3.080   1.395  0.00  0.00    -0.061 NA
ATOM     22  O   UNL     1      -1.666   3.029   2.500  0.00  0.00    -0.340 OA
BRANCH  20  23
ATOM     23  C   UNL     1       0.082   4.700  -0.050  0.00  0.00    +0.114 C 
BRANCH  23  24
ATOM     24  C   UNL     1       1.551   4.384   0.071  0.00  0.00    -0.040 A 
ATOM     25  C   UNL     1       2.415   5.313   0.620  0.00  0.00    +0.004 A 
ATOM     26  C   UNL     1       3.763   5.025   0.725  0.00  0.00    +0.000 A 
ATOM     27  C   UNL     1       4.247   3.808   0.282  0.00  0.00    +0.000 A 
ATOM     28  C   UNL     1       3.382   2.879  -0.267  0.00  0.00    +0.000 A 
ATOM     29  C   UNL     1       2.034   3.167  -0.372  0.00  0.00    +0.004 A 
ENDBRANCH  23  24
ENDBRANCH  20  23
ENDBRANCH  17  18
ENDBRANCH   6  17
TORSDOF 7
