REMARK  Name = ZINC26570936
REMARK  4 active torsions:
REMARK  status: ('A' for Active; 'I' for Inactive)
REMARK    1  A    between atoms: C_1  and  C_2
REMARK    2  A    between atoms: C_5  and  O_33
REMARK    3  A    between atoms: C_17  and  C_32
REMARK    4  A    between atoms: C_22  and  C_23
REMARK                            x       y       z     vdW  Elec       q    Type
REMARK                         _______ _______ _______ _____ _____    ______ ____
ROOT
ATOM      1  C   UNL     1      -2.617   1.499   0.597  0.00  0.00    +0.016 C 
ATOM      2  C   UNL     1      -1.740   0.293   0.938  0.00  0.00    -0.008 C 
ATOM      3  C   UNL     1      -2.663  -0.912   1.145  0.00  0.00    +0.014 C 
ATOM      4  C   UNL     1      -3.585  -0.645   2.337  0.00  0.00    +0.032 C 
ATOM      5  C   UNL     1      -2.752  -0.493   3.610  0.00  0.00    +0.119 C 
ATOM      6  C   UNL     1      -1.843   0.734   3.484  0.00  0.00    +0.062 C 
ATOM      7  C   UNL     1      -1.015   0.587   2.219  0.00  0.00    -0.065 C 
ATOM      8  C   UNL     1       0.275   0.728   2.306  0.00  0.00    -0.027 C 
ATOM      9  C   UNL     1       1.194   0.593   1.128  0.00  0.00    +0.031 C 
ATOM     10  C   UNL     1       0.427   0.933  -0.156  0.00  0.00    +0.001 C 
ATOM     11  C   UNL     1      -0.807   0.039  -0.235  0.00  0.00    +0.003 C 
ATOM     12  C   UNL     1      -1.550   0.351  -1.541  0.00  0.00    +0.005 C 
ATOM     13  C   UNL     1      -0.640  -0.037  -2.707  0.00  0.00    +0.015 C 
ATOM     14  C   UNL     1       0.615   0.839  -2.710  0.00  0.00    +0.034 C 
ATOM     15  C   UNL     1       1.331   0.769  -1.350  0.00  0.00    +0.010 C 
ATOM     16  C   UNL     1       1.981  -0.627  -1.425  0.00  0.00    +0.043 C 
ATOM     17  C   UNL     1       2.397  -0.728  -2.885  0.00  0.00    -0.004 C 
ATOM     18  C   UNL     1       3.362  -1.542  -3.375  0.00  0.00    +0.015 C 
ATOM     19  C   UNL     1       1.612   0.169  -3.647  0.00  0.00    +0.165 C 
ATOM     20  O   UNL     1       1.710   0.361  -4.842  0.00  0.00    -0.292 OA
ATOM     21  C   UNL     1       0.322   2.280  -3.132  0.00  0.00    +0.020 C 
ENDROOT
BRANCH  18  22
ATOM     22  C   UNL     1       3.992  -2.543  -2.502  0.00  0.00    -0.024 A 
ATOM     23  C   UNL     1       5.201  -3.142  -2.876  0.00  0.00    +0.008 A 
ATOM     24  C   UNL     1       5.788  -4.076  -2.050  0.00  0.00    +0.002 A 
ATOM     25  C   UNL     1       5.181  -4.430  -0.857  0.00  0.00    +0.015 A 
ATOM     26  C   UNL     1       3.983  -3.847  -0.481  0.00  0.00    +0.018 A 
ATOM     27  C   UNL     1       3.385  -2.906  -1.295  0.00  0.00    +0.023 A 
ATOM     28 BR   UNL     1       3.164  -4.340   1.150  0.00  0.00    -0.050 Br
ENDBRANCH  18  22
BRANCH   5  29
ATOM     29  O   UNL     1      -3.622  -0.328   4.732  0.00  0.00    -0.391 OA
ATOM     30  H   UNL     1      -3.201  -0.203   5.740  0.00  0.00    +0.210 HD
ENDBRANCH   5  29
TORSDOF 2
