REMARK  Name = ZINC03843174
REMARK  5 active torsions:
REMARK  status: ('A' for Active; 'I' for Inactive)
REMARK    1  A    between atoms: C_1  and  O_2
REMARK    2  A    between atoms: O_2  and  C_3
REMARK    3  A    between atoms: C_8  and  C_9
REMARK    4  A    between atoms: C_15  and  C_18
REMARK    5  A    between atoms: C_23  and  O_24
REMARK                            x       y       z     vdW  Elec       q    Type
REMARK                         _______ _______ _______ _____ _____    ______ ____
ROOT
ATOM      1  C   UNL     1       2.321   7.350  -2.158  0.00  0.00    +0.185 A 
ATOM      2  N   UNL     1       1.759   7.905  -3.202  0.00  0.00    -0.127 NA
ATOM      3  N   UNL     1       0.504   7.626  -3.225  0.00  0.00    -0.120 NA
ATOM      4  C   UNL     1       0.204   6.881  -2.202  0.00  0.00    +0.211 A 
ATOM      5  N   UNL     1       1.331   6.658  -1.461  0.00  0.00    -0.220 N 
ATOM      6  N   UNL     1       1.262   5.902  -0.336  0.00  0.00    -0.263 N 
ATOM      7  C   UNL     1      -0.059   5.351   0.030  0.00  0.00    +0.186 C 
ATOM      8  S   UNL     1      -1.086   6.012  -1.340  0.00  0.00    -0.056 S 
ATOM      9  H   UNL     1       1.685   6.378   0.447  0.00  0.00    +0.168 HD
ENDROOT
BRANCH   1  15
ATOM     10  C   UNL     1       4.639   8.168  -2.584  0.00  0.00    +0.131 A 
ATOM     11  C   UNL     1       5.974   8.251  -2.223  0.00  0.00    +0.046 A 
ATOM     12  C   UNL     1       6.426   7.608  -1.087  0.00  0.00    +0.004 A 
ATOM     13  C   UNL     1       5.550   6.883  -0.298  0.00  0.00    +0.001 A 
ATOM     14  C   UNL     1       4.216   6.795  -0.640  0.00  0.00    +0.015 A 
ATOM     15  C   UNL     1       3.748   7.440  -1.786  0.00  0.00    +0.062 A 
BRANCH  10  17
ATOM     16  C   UNL     1       5.161   9.520  -4.468  0.00  0.00    +0.277 C 
ATOM     17  O   UNL     1       4.195   8.796  -3.704  0.00  0.00    -0.494 OA
ENDBRANCH  10  17
ENDBRANCH   1  15
BRANCH   7  18
ATOM     18  C   UNL     1      -0.043   3.844   0.022  0.00  0.00    +0.026 A 
ATOM     19  C   UNL     1       1.161   3.165   0.007  0.00  0.00    +0.010 A 
ATOM     20  C   UNL     1       1.176   1.783   0.000  0.00  0.00    +0.001 A 
ATOM     21  C   UNL     1      -0.013   1.076   0.008  0.00  0.00    +0.004 A 
ATOM     22  C   UNL     1      -1.218   1.750   0.017  0.00  0.00    +0.046 A 
ATOM     23  C   UNL     1      -1.236   3.137   0.030  0.00  0.00    +0.123 A 
BRANCH  23  24
ATOM     24  O   UNL     1      -2.421   3.802   0.046  0.00  0.00    -0.506 OA
ATOM     25  H   UNL     1      -2.773   3.999  -0.833  0.00  0.00    +0.292 HD
ENDBRANCH  23  24
ENDBRANCH   7  18
TORSDOF 4
