REMARK  Name = ZINC02059312
REMARK  6 active torsions:
REMARK  status: ('A' for Active; 'I' for Inactive)
REMARK    1  A    between atoms: C_3  and  N_18
REMARK    2  A    between atoms: C_6  and  C_7
REMARK    3  A    between atoms: C_7  and  N_34
REMARK    4  A    between atoms: C_8  and  C_9
REMARK    5  A    between atoms: C_8  and  N_34
REMARK    6  A    between atoms: C_9  and  C_10
REMARK                            x       y       z     vdW  Elec       q    Type
REMARK                         _______ _______ _______ _____ _____    ______ ____
ROOT
ATOM      1  N   UNL     1      -0.015   0.998   0.015  0.00  0.00    +0.382 N 
ATOM      2  H   UNL     1       0.032  -0.025  -0.054  0.00  0.00    -0.085 HD
ATOM      3  H   UNL     1      -0.475   1.261   0.894  0.00  0.00    -0.085 HD
ENDROOT
BRANCH   1   4
ATOM      4  C   UNL     1      -0.795   1.527  -1.120  0.00  0.00    -0.047 C 
BRANCH   4  10
ATOM      5  C   UNL     1      -2.463  -0.235  -1.738  0.00  0.00    +0.004 A 
ATOM      6  C   UNL     1      -3.737  -0.769  -1.694  0.00  0.00    +0.033 A 
ATOM      7  C   UNL     1      -4.736  -0.117  -0.997  0.00  0.00    +0.126 A 
ATOM      8  C   UNL     1      -4.461   1.067  -0.339  0.00  0.00    +0.033 A 
ATOM      9  C   UNL     1      -3.185   1.599  -0.379  0.00  0.00    +0.004 A 
ATOM     10  C   UNL     1      -2.186   0.947  -1.076  0.00  0.00    -0.064 A 
BRANCH   7  11
ATOM     11  N   UNL     1      -6.102  -0.686  -0.954  0.00  0.00    +0.056 N 
ATOM     12  O   UNL     1      -6.982  -0.112  -0.340  0.00  0.00    -0.126 OA
ATOM     13  O   UNL     1      -6.345  -1.730  -1.534  0.00  0.00    -0.126 OA
ENDBRANCH   7  11
ENDBRANCH   4  10
ENDBRANCH   1   4
BRANCH   1  14
ATOM     14  C   UNL     1       1.353   1.550  -0.003  0.00  0.00    -0.077 C 
BRANCH  14  15
ATOM     15  C   UNL     1       2.136   0.985   1.184  0.00  0.00    +0.017 C 
BRANCH  15  16
ATOM     16  C   UNL     1       3.536   1.544   1.173  0.00  0.00    -0.031 A 
ATOM     17  C   UNL     1       3.866   2.596   2.007  0.00  0.00    +0.006 A 
ATOM     18  C   UNL     1       5.149   3.109   1.998  0.00  0.00    +0.020 A 
ATOM     19  C   UNL     1       6.104   2.570   1.155  0.00  0.00    +0.042 A 
ATOM     20  C   UNL     1       5.775   1.517   0.321  0.00  0.00    +0.040 A 
ATOM     21  C   UNL     1       4.492   1.000   0.334  0.00  0.00    +0.045 A 
ATOM     22 CL   UNL     1       4.079  -0.326  -0.708  0.00  0.00    -0.083 Cl
ATOM     23 CL   UNL     1       7.716   3.214   1.144  0.00  0.00    -0.083 Cl
ENDBRANCH  15  16
ENDBRANCH  14  15
ENDBRANCH   1  14
TORSDOF 6
