REMARK  Name = ZINC12532042
REMARK  11 active torsions:
REMARK  status: ('A' for Active; 'I' for Inactive)
REMARK    1  A    between atoms: C_1  and  C_2
REMARK    2  A    between atoms: C_4  and  C_15
REMARK    3  A    between atoms: C_5  and  C_14
REMARK    4  A    between atoms: N_6  and  C_7
REMARK    5  A    between atoms: C_7  and  C_8
REMARK    6  A    between atoms: C_15  and  C_17
REMARK    7  A    between atoms: C_17  and  O_18
REMARK    8  A    between atoms: O_18  and  C_19
REMARK    9  A    between atoms: C_19  and  C_21
REMARK   10  A    between atoms: C_24  and  S_27
REMARK   11  A    between atoms: S_27  and  N_30
REMARK                            x       y       z     vdW  Elec       q    Type
REMARK                         _______ _______ _______ _____ _____    ______ ____
ROOT
ATOM      1  O   UNL     1      -4.117   2.278  -5.325  0.00  0.00    -0.453 OA
ENDROOT
BRANCH   1   2
ATOM      2  C   UNL     1      -3.211   3.117  -4.787  0.00  0.00    +0.340 C 
ATOM      3  O   UNL     1      -3.039   4.218  -5.272  0.00  0.00    -0.245 OA
BRANCH   2   4
ATOM      4  C   UNL     1      -2.426   2.699  -3.608  0.00  0.00    +0.059 A 
ATOM      5  C   UNL     1      -1.486   3.567  -3.047  0.00  0.00    +0.017 A 
ATOM      6  C   UNL     1      -0.756   3.170  -1.946  0.00  0.00    +0.029 A 
ATOM      7  C   UNL     1      -0.954   1.915  -1.397  0.00  0.00    +0.106 A 
ATOM      8  C   UNL     1      -1.879   1.049  -1.950  0.00  0.00    +0.029 A 
ATOM      9  C   UNL     1      -2.620   1.435  -3.048  0.00  0.00    +0.017 A 
BRANCH   7  10
ATOM     10  S   UNL     1      -0.017   1.417   0.010  0.00  0.00    +0.061 S 
ATOM     11  O   UNL     1       0.002  -0.004   0.002  0.00  0.00    -0.153 OA
ATOM     12  O   UNL     1       1.172   2.195   0.003  0.00  0.00    -0.153 OA
BRANCH  10  13
ATOM     13  N   UNL     1      -0.872   1.871   1.353  0.00  0.00    -0.177 NA
ATOM     14  C   UNL     1      -0.660   3.190   1.965  0.00  0.00    +0.109 C 
ATOM     15  C   UNL     1      -2.019   3.897   2.084  0.00  0.00    +0.017 C 
ATOM     16  C   UNL     1      -2.990   2.998   2.852  0.00  0.00    +0.003 C 
ATOM     17  C   UNL     1      -3.193   1.690   2.083  0.00  0.00    +0.017 C 
ATOM     18  C   UNL     1      -1.852   0.960   1.960  0.00  0.00    +0.109 C 
ENDBRANCH  10  13
ENDBRANCH   7  10
ENDBRANCH   2   4
ENDBRANCH   1   2
BRANCH   1  19
ATOM     19  C   UNL     1      -4.852   2.755  -6.483  0.00  0.00    +0.311 C 
BRANCH  19  20
ATOM     20  C   UNL     1      -5.812   1.689  -6.943  0.00  0.00    +0.202 C 
ATOM     21  O   UNL     1      -5.871   0.630  -6.353  0.00  0.00    -0.288 OA
BRANCH  20  25
ATOM     22  C   UNL     1      -8.061   3.892 -10.950  0.00  0.00    +0.063 C 
ATOM     23  C   UNL     1      -7.657   2.919  -9.871  0.00  0.00    +0.017 A 
ATOM     24  C   UNL     1      -6.734   3.148  -8.922  0.00  0.00    +0.034 A 
ATOM     25  C   UNL     1      -6.673   1.930  -8.103  0.00  0.00    +0.042 A 
ATOM     26  C   UNL     1      -7.600   1.061  -8.647  0.00  0.00    +0.027 A 
ATOM     27  N   UNL     1      -8.176   1.668  -9.700  0.00  0.00    -0.345 N 
ATOM     28  C   UNL     1      -7.912  -0.326  -8.148  0.00  0.00    +0.064 C 
BRANCH  27  29
ATOM     29  C   UNL     1      -9.215   1.071 -10.543  0.00  0.00    +0.153 C 
BRANCH  29  30
ATOM     30  C   UNL     1     -10.593   1.405  -9.969  0.00  0.00    +0.138 C 
ATOM     31  C   UNL     1     -11.708   0.829 -10.877  0.00  0.00    +0.035 C 
ATOM     32  C   UNL     1     -12.874   0.691  -9.860  0.00  0.00    +0.031 C 
ATOM     33  C   UNL     1     -12.131   0.328  -8.556  0.00  0.00    +0.160 C 
ATOM     34  O   UNL     1     -10.773   0.760  -8.698  0.00  0.00    -0.375 OA
ENDBRANCH  29  30
ENDBRANCH  27  29
ENDBRANCH  20  25
ENDBRANCH  19  20
ENDBRANCH   1  19
TORSDOF 9
