REMARK  Name = ZINC39352658
REMARK  7 active torsions:
REMARK  status: ('A' for Active; 'I' for Inactive)
REMARK    1  A    between atoms: C_1  and  C_2
REMARK    2  A    between atoms: C_2  and  N_3
REMARK    3  A    between atoms: C_4  and  C_6
REMARK    4  A    between atoms: N_9  and  C_11
REMARK    5  A    between atoms: C_11  and  C_12
REMARK    6  A    between atoms: N_17  and  C_19
REMARK    7  A    between atoms: C_19  and  C_20
REMARK                            x       y       z     vdW  Elec       q    Type
REMARK                         _______ _______ _______ _____ _____    ______ ____
ROOT
ATOM      1  C   UNL     1       1.327  -2.364   2.990  0.00  0.00    +0.149 A 
ATOM      2  C   UNL     1       1.620  -3.714   3.231  0.00  0.00    -0.011 A 
ATOM      3  C   UNL     1       2.289  -3.744   4.413  0.00  0.00    +0.040 A 
ATOM      4  N   UNL     1       2.390  -2.480   4.846  0.00  0.00    -0.267 N 
ATOM      5  N   UNL     1       1.829  -1.680   4.005  0.00  0.00    -0.166 NA
ATOM      6  C   UNL     1       2.779  -5.025   5.039  0.00  0.00    +0.037 C 
ATOM      7  C   UNL     1       2.062  -6.188   4.337  0.00  0.00    -0.072 C 
ATOM      8  N   UNL     1       2.172  -6.037   2.881  0.00  0.00    +0.383 N 
ATOM      9  C   UNL     1       1.309  -4.937   2.415  0.00  0.00    -0.039 C 
ATOM     10  H   UNL     1       3.130  -5.835   2.637  0.00  0.00    -0.081 HD
ENDROOT
BRANCH   1  12
ATOM     11  N   UNL     1       0.401  -0.483   1.726  0.00  0.00    -0.310 N 
ATOM     12  C   UNL     1       0.605  -1.812   1.826  0.00  0.00    +0.264 C 
ATOM     13  O   UNL     1       0.194  -2.556   0.957  0.00  0.00    -0.268 OA
ATOM     14  H   UNL     1       0.729   0.111   2.420  0.00  0.00    +0.149 HD
BRANCH  11  16
ATOM     15  C   UNL     1      -0.409   1.585   0.704  0.00  0.00    +0.024 C 
ATOM     16  C   UNL     1      -0.315   0.064   0.572  0.00  0.00    +0.101 C 
ENDBRANCH  11  16
ENDBRANCH   1  12
BRANCH   4  17
ATOM     17  C   UNL     1       3.047  -2.067   6.089  0.00  0.00    +0.147 C 
BRANCH  17  18
ATOM     18  C   UNL     1       4.525  -1.782   5.814  0.00  0.00    +0.010 C 
ATOM     19  C   UNL     1       5.558  -2.670   6.510  0.00  0.00    +0.005 C 
ATOM     20  C   UNL     1       5.363  -1.222   6.965  0.00  0.00    +0.005 C 
ENDBRANCH  17  18
ENDBRANCH   4  17
BRANCH   8  21
ATOM     21  C   UNL     1       1.761  -7.287   2.229  0.00  0.00    -0.061 C 
BRANCH  21  22
ATOM     22  C   UNL     1       2.763  -8.393   2.570  0.00  0.00    +0.082 C 
ATOM     23  C   UNL     1       4.134  -7.936   2.112  0.00  0.00    -0.007 C 
ATOM     24  C   UNL     1       4.791  -8.727   1.218  0.00  0.00    -0.007 A 
ATOM     25  C   UNL     1       6.118  -8.361   0.724  0.00  0.00    +0.009 A 
ATOM     26  C   UNL     1       6.735  -9.180  -0.167  0.00  0.00    +0.001 A 
ATOM     27  C   UNL     1       6.128 -10.353  -0.615  0.00  0.00    +0.002 A 
ATOM     28  C   UNL     1       4.898 -10.749  -0.196  0.00  0.00    +0.024 A 
ATOM     29  C   UNL     1       4.175  -9.973   0.728  0.00  0.00    +0.040 A 
ATOM     30  N   UNL     1       2.969 -10.371   1.133  0.00  0.00    -0.285 N 
ATOM     31  C   UNL     1       2.236  -9.689   1.996  0.00  0.00    +0.222 C 
ATOM     32  O   UNL     1       1.141 -10.103   2.328  0.00  0.00    -0.275 OA
ATOM     33  H   UNL     1       2.613 -11.200   0.778  0.00  0.00    +0.155 HD
ENDBRANCH  21  22
ENDBRANCH   8  21
TORSDOF 6
