REMARK  Name = ZINC13642289
REMARK  5 active torsions:
REMARK  status: ('A' for Active; 'I' for Inactive)
REMARK    1  A    between atoms: C_1  and  C_2
REMARK    2  A    between atoms: C_2  and  N_3
REMARK    3  A    between atoms: C_14  and  C_16
REMARK    4  A    between atoms: C_27  and  S_32
REMARK    5  A    between atoms: S_32  and  N_35
REMARK                            x       y       z     vdW  Elec       q    Type
REMARK                         _______ _______ _______ _____ _____    ______ ____
ROOT
ATOM      1  C   UNL     1      -0.767   8.924   0.055  0.00  0.00    +0.105 C 
ATOM      2  C   UNL     1      -0.745   9.572  -1.332  0.00  0.00    +0.029 C 
ATOM      3  C   UNL     1      -0.985   8.442  -2.376  0.00  0.00    +0.033 C 
ATOM      4  C   UNL     1       0.390   7.825  -2.546  0.00  0.00    -0.030 C 
ATOM      5  C   UNL     1       1.321   8.671  -2.178  0.00  0.00    -0.023 C 
ATOM      6  C   UNL     1       0.698   9.963  -1.707  0.00  0.00    +0.049 C 
ATOM      7  C   UNL     1       1.459  10.552  -0.562  0.00  0.00    -0.018 A 
ATOM      8  C   UNL     1       2.672  11.175  -0.819  0.00  0.00    +0.034 A 
ATOM      9  C   UNL     1       3.403  11.738   0.207  0.00  0.00    +0.105 A 
ATOM     10  C   UNL     1       2.934  11.686   1.507  0.00  0.00    +0.030 A 
ATOM     11  C   UNL     1       1.730  11.068   1.776  0.00  0.00    +0.025 A 
ATOM     12  C   UNL     1       0.994  10.500   0.743  0.00  0.00    +0.031 A 
ATOM     13  N   UNL     1      -0.223   9.873   1.032  0.00  0.00    -0.336 N 
ATOM     14  H   UNL     1      -0.696  10.062   1.857  0.00  0.00    +0.147 HD
ENDROOT
BRANCH   1  26
ATOM     15  N   UNL     1       2.187   4.111  -0.063  0.00  0.00    -0.340 N 
ATOM     16  C   UNL     1       1.206   3.200  -0.414  0.00  0.00    +0.050 A 
ATOM     17  C   UNL     1       1.238   1.825  -0.622  0.00  0.00    +0.026 A 
ATOM     18  C   UNL     1       0.086   1.153  -0.972  0.00  0.00    +0.002 A 
ATOM     19  C   UNL     1      -1.109   1.838  -1.126  0.00  0.00    +0.001 A 
ATOM     20  C   UNL     1      -1.162   3.200  -0.920  0.00  0.00    +0.010 A 
ATOM     21  C   UNL     1      -0.005   3.890  -0.565  0.00  0.00    +0.008 A 
ATOM     22  C   UNL     1       0.283   5.309  -0.283  0.00  0.00    +0.008 A 
ATOM     23  C   UNL     1       1.651   5.384   0.021  0.00  0.00    +0.050 A 
ATOM     24  C   UNL     1       2.213   6.618   0.333  0.00  0.00    +0.027 A 
ATOM     25  C   UNL     1       1.428   7.751   0.342  0.00  0.00    +0.007 A 
ATOM     26  C   UNL     1       0.077   7.675   0.041  0.00  0.00    -0.026 A 
ATOM     27  C   UNL     1      -0.498   6.461  -0.270  0.00  0.00    +0.016 A 
BRANCH  15  29
ATOM     28  C   UNL     1       4.378   3.877  -1.123  0.00  0.00    +0.027 C 
ATOM     29  C   UNL     1       3.591   3.776   0.185  0.00  0.00    +0.119 C 
ENDBRANCH  15  29
ENDBRANCH   1  26
BRANCH   9  30
ATOM     30  S   UNL     1       4.941  12.525  -0.140  0.00  0.00    +0.056 S 
ATOM     31  O   UNL     1       4.896  12.919  -1.505  0.00  0.00    -0.153 OA
ATOM     32  O   UNL     1       5.170  13.450   0.913  0.00  0.00    -0.153 OA
BRANCH  30  33
ATOM     33  N   UNL     1       6.121  11.369  -0.020  0.00  0.00    -0.204 NA
ATOM     34  H   UNL     1       5.884  10.456   0.207  0.00  0.00    +0.144 HD
ATOM     35  H   UNL     1       7.048  11.604  -0.177  0.00  0.00    +0.144 HD
ENDBRANCH  30  33
ENDBRANCH   9  30
TORSDOF 4
