REMARK  Name = ZINC38847887
REMARK  5 active torsions:
REMARK  status: ('A' for Active; 'I' for Inactive)
REMARK    1  A    between atoms: N_11  and  C_12
REMARK    2  A    between atoms: C_12  and  C_13
REMARK    3  A    between atoms: C_13  and  C_14
REMARK    4  A    between atoms: C_14  and  N_15
REMARK    5  A    between atoms: C_20  and  C_22
REMARK                            x       y       z     vdW  Elec       q    Type
REMARK                         _______ _______ _______ _____ _____    ______ ____
ROOT
ATOM      1  C   UNL     1       0.000   2.077  -0.018  0.00  0.00    +0.017 A 
ATOM      2  C   UNL     1       1.236   2.671  -0.025  0.00  0.00    +0.030 A 
ATOM      3  C   UNL     1       2.413   1.889  -0.030  0.00  0.00    +0.080 A 
ATOM      4  C   UNL     1       2.232   0.487  -0.026  0.00  0.00    +0.042 A 
ATOM      5  C   UNL     1       0.992  -0.100  -0.019  0.00  0.00    +0.032 A 
ATOM      6  C   UNL     1      -0.140   0.696  -0.015  0.00  0.00    +0.019 A 
ATOM      7 BR   UNL     1      -1.861  -0.089  -0.004  0.00  0.00    -0.050 Br
ATOM      8  S   UNL     1       3.905  -0.111  -0.032  0.00  0.00    -0.052 S 
ATOM      9  C   UNL     1       4.713   1.483  -0.039  0.00  0.00    +0.168 A 
ATOM     10  N   UNL     1       3.696   2.313  -0.036  0.00  0.00    -0.224 NA
ATOM     11  N   UNL     1       6.067   1.770  -0.045  0.00  0.00    -0.244 N 
ATOM     12  C   UNL     1       6.968   0.772   0.056  0.00  0.00    +0.288 C 
ATOM     13  O   UNL     1       6.595  -0.386   0.053  0.00  0.00    -0.266 OA
ENDROOT
BRANCH  12  14
ATOM     14  C   UNL     1       8.395   1.083   0.171  0.00  0.00    +0.191 A 
ATOM     15  C   UNL     1       9.400   0.178   0.368  0.00  0.00    +0.056 A 
ATOM     16  C   UNL     1      10.597   0.908   0.415  0.00  0.00    +0.058 A 
ATOM     17  C   UNL     1      10.275   2.212   0.246  0.00  0.00    +0.171 A 
ATOM     18  O   UNL     1       8.948   2.312   0.093  0.00  0.00    -0.444 OA
ATOM     19 BR   UNL     1      11.498   3.654   0.221  0.00  0.00    -0.008 Br
ENDBRANCH  12  14
BRANCH  11  20
ATOM     20  C   UNL     1       6.521   3.158  -0.162  0.00  0.00    +0.118 C 
BRANCH  20  21
ATOM     21  C   UNL     1       6.785   3.727   1.234  0.00  0.00    +0.041 C 
BRANCH  21  22
ATOM     22  C   UNL     1       7.260   5.176   1.112  0.00  0.00    +0.124 C 
BRANCH  22  23
ATOM     23  N   UNL     1       7.512   5.721   2.448  0.00  0.00    -0.338 N 
ATOM     24  C   UNL     1       6.606   6.365   3.248  0.00  0.00    +0.104 A 
ATOM     25  C   UNL     1       7.253   6.696   4.381  0.00  0.00    +0.101 A 
ATOM     26  N   UNL     1       8.520   6.267   4.277  0.00  0.00    -0.352 N 
ATOM     27  C   UNL     1       8.681   5.678   3.124  0.00  0.00    +0.173 A 
ATOM     28  H   UNL     1       9.207   6.374   4.954  0.00  0.00    +0.166 HD
ENDBRANCH  22  23
ENDBRANCH  21  22
ENDBRANCH  20  21
ENDBRANCH  11  20
TORSDOF 5
