REMARK  Name = ZINC40758307
REMARK  4 active torsions:
REMARK  status: ('A' for Active; 'I' for Inactive)
REMARK    1  A    between atoms: C_5  and  N_7
REMARK    2  A    between atoms: C_9  and  N_25
REMARK    3  A    between atoms: C_10  and  N_14
REMARK    4  A    between atoms: N_14  and  C_15
REMARK                            x       y       z     vdW  Elec       q    Type
REMARK                         _______ _______ _______ _____ _____    ______ ____
ROOT
ATOM      1  N   UNL     1       1.237  -2.076   0.008  0.00  0.00    -0.297 N 
ATOM      2  C   UNL     1       0.050  -2.792   0.112  0.00  0.00    +0.149 A 
ATOM      3  C   UNL     1       0.068  -4.185   0.209  0.00  0.00    +0.106 A 
ATOM      4  C   UNL     1      -1.153  -4.854   0.312  0.00  0.00    +0.149 A 
ATOM      5  N   UNL     1      -2.279  -4.144   0.312  0.00  0.00    -0.219 NA
ATOM      6  C   UNL     1      -2.252  -2.831   0.219  0.00  0.00    +0.225 A 
ATOM      7  N   UNL     1      -1.121  -2.160   0.126  0.00  0.00    -0.219 NA
ATOM      8  H   UNL     1       2.080  -2.546  -0.087  0.00  0.00    +0.154 HD
ENDROOT
BRANCH   1  13
ATOM      9  C   UNL     1       0.150   1.369   0.694  0.00  0.00    +0.002 A 
ATOM     10  C   UNL     1       1.173   2.089   0.104  0.00  0.00    +0.002 A 
ATOM     11  C   UNL     1       2.217   1.430  -0.517  0.00  0.00    +0.022 A 
ATOM     12  C   UNL     1       2.242   0.048  -0.551  0.00  0.00    +0.062 A 
ATOM     13  C   UNL     1       1.216  -0.678   0.041  0.00  0.00    +0.051 A 
ATOM     14  C   UNL     1       0.168  -0.012   0.664  0.00  0.00    +0.025 A 
ATOM     15 CL   UNL     1       3.554  -0.778  -1.332  0.00  0.00    -0.082 Cl
ENDBRANCH   1  13
BRANCH   3  16
ATOM     16  N   UNL     1       1.280  -4.892   0.204  0.00  0.00    -0.353 N 
ATOM     17  H   UNL     1       2.121  -4.413   0.133  0.00  0.00    +0.143 HD
ATOM     18  H   UNL     1       1.278  -5.860   0.273  0.00  0.00    +0.143 HD
ENDBRANCH   3  16
BRANCH   4  19
ATOM     19  N   UNL     1      -1.192  -6.240   0.411  0.00  0.00    -0.296 N 
ATOM     20  H   UNL     1      -0.366  -6.745   0.476  0.00  0.00    +0.154 HD
BRANCH  19  21
ATOM     21  C   UNL     1      -2.418  -6.905   0.415  0.00  0.00    +0.059 A 
ATOM     22  C   UNL     1      -3.517  -6.330   1.015  0.00  0.00    +0.025 A 
ATOM     23  C   UNL     1      -4.746  -6.982   1.027  0.00  0.00    +0.003 A 
ATOM     24  C   UNL     1      -4.896  -8.206   0.447  0.00  0.00    +0.010 A 
ATOM     25  C   UNL     1      -3.799  -8.825  -0.174  0.00  0.00    +0.002 A 
ATOM     26  C   UNL     1      -2.544  -8.171  -0.199  0.00  0.00    +0.092 A 
ATOM     27  N   UNL     1      -1.500  -8.755  -0.793  0.00  0.00    -0.253 NA
ATOM     28  C   UNL     1      -1.611  -9.929  -1.365  0.00  0.00    +0.111 A 
ATOM     29  C   UNL     1      -2.817 -10.625  -1.382  0.00  0.00    +0.020 A 
ATOM     30  C   UNL     1      -3.921 -10.090  -0.781  0.00  0.00    +0.011 A 
ENDBRANCH  19  21
ENDBRANCH   4  19
TORSDOF 4
