REMARK  Name = ZINC09045218
REMARK  12 active torsions:
REMARK  status: ('A' for Active; 'I' for Inactive)
REMARK    1  A    between atoms: C_1  and  C_2
REMARK    2  A    between atoms: C_2  and  C_4
REMARK    3  A    between atoms: C_10  and  C_42
REMARK    4  A    between atoms: N_22  and  O_23
REMARK    5  A    between atoms: O_23  and  C_24
REMARK    6  A    between atoms: C_24  and  C_25
REMARK    7  A    between atoms: N_27  and  C_28
REMARK    8  A    between atoms: C_28  and  C_29
REMARK    9  A    between atoms: C_29  and  C_30
REMARK   10  A    between atoms: C_33  and  O_37
REMARK   11  A    between atoms: C_34  and  O_36
REMARK   12  A    between atoms: C_40  and  C_41
REMARK                            x       y       z     vdW  Elec       q    Type
REMARK                         _______ _______ _______ _____ _____    ______ ____
ROOT
ATOM      1  C   UNL     1       8.170  12.136  -9.684  0.00  0.00    +0.061 C 
ATOM      2  C   UNL     1       6.641  11.932  -9.683  0.00  0.00    +0.012 C 
ATOM      3  C   UNL     1       6.349  10.812 -10.705  0.00  0.00    +0.005 C 
ATOM      4  C   UNL     1       7.684  10.012 -10.773  0.00  0.00    -0.001 C 
ATOM      5  C   UNL     1       8.724  11.141 -10.712  0.00  0.00    -0.019 C 
ATOM      6  C   UNL     1      10.105  10.639 -10.352  0.00  0.00    +0.008 C 
ATOM      7  C   UNL     1      10.063   9.861  -9.040  0.00  0.00    +0.005 C 
ATOM      8  C   UNL     1       9.127   8.653  -9.202  0.00  0.00    +0.002 C 
ATOM      9  C   UNL     1       7.721   9.132  -9.516  0.00  0.00    -0.003 C 
ATOM     10  C   UNL     1       6.744   7.982  -9.741  0.00  0.00    +0.008 C 
ATOM     11  C   UNL     1       7.089   6.747  -8.923  0.00  0.00    +0.031 C 
ATOM     12  C   UNL     1       7.852   7.160  -7.689  0.00  0.00    -0.062 C 
ATOM     13  C   UNL     1       7.378   6.891  -6.482  0.00  0.00    +0.026 C 
ATOM     14  C   UNL     1       8.101   7.313  -5.276  0.00  0.00    +0.080 C 
ATOM     15  N   UNL     1       7.632   7.021  -4.104  0.00  0.00    -0.089 NA
ATOM     16  C   UNL     1       9.393   8.080  -5.403  0.00  0.00    +0.059 C 
ATOM     17  C   UNL     1       9.377   8.862  -6.721  0.00  0.00    +0.017 C 
ATOM     18  C   UNL     1       9.159   7.883  -7.876  0.00  0.00    -0.007 C 
ATOM     19  C   UNL     1      10.303   6.867  -7.905  0.00  0.00    +0.016 C 
ATOM     20  C   UNL     1       8.779  11.818 -12.082  0.00  0.00    +0.012 C 
ENDROOT
BRANCH   1  22
ATOM     21  C   UNL     1      10.074  12.407  -7.919  0.00  0.00    +0.086 C 
ATOM     22  C   UNL     1       8.735  11.842  -8.318  0.00  0.00    +0.134 C 
ATOM     23  O   UNL     1       8.115  11.154  -7.544  0.00  0.00    -0.297 OA
ENDBRANCH   1  22
BRANCH  15  24
ATOM     24  O   UNL     1       6.418   6.301  -3.986  0.00  0.00    -0.384 OA
BRANCH  24  25
ATOM     25  C   UNL     1       6.021   6.050  -2.636  0.00  0.00    +0.358 C 
BRANCH  25  26
ATOM     26  C   UNL     1       4.724   5.281  -2.630  0.00  0.00    +0.253 C 
ATOM     27  O   UNL     1       4.193   4.978  -3.677  0.00  0.00    -0.272 OA
ATOM     28  N   UNL     1       4.155   4.930  -1.459  0.00  0.00    -0.312 N 
ATOM     29  H   UNL     1       4.579   5.173  -0.622  0.00  0.00    +0.149 HD
BRANCH  28  30
ATOM     30  C   UNL     1       2.895   4.183  -1.453  0.00  0.00    +0.109 C 
BRANCH  30  31
ATOM     31  C   UNL     1       2.469   3.914  -0.008  0.00  0.00    +0.054 C 
BRANCH  31  32
ATOM     32  C   UNL     1       1.172   3.146  -0.002  0.00  0.00    -0.042 A 
ATOM     33  C   UNL     1       1.190   1.763  -0.010  0.00  0.00    +0.007 A 
ATOM     34  C   UNL     1       0.004   1.054  -0.004  0.00  0.00    +0.049 A 
ATOM     35  C   UNL     1      -1.207   1.728   0.006  0.00  0.00    +0.158 A 
ATOM     36  C   UNL     1      -1.225   3.119   0.019  0.00  0.00    +0.158 A 
ATOM     37  C   UNL     1      -0.032   3.825   0.013  0.00  0.00    +0.052 A 
BRANCH  36  38
ATOM     38  O   UNL     1      -2.410   3.785   0.033  0.00  0.00    -0.503 OA
ATOM     39  H   UNL     1      -2.760   3.983  -0.846  0.00  0.00    +0.292 HD
ENDBRANCH  36  38
BRANCH  35  40
ATOM     40  O   UNL     1      -2.375   1.031   0.007  0.00  0.00    -0.503 OA
ATOM     41  H   UNL     1      -2.709   0.825   0.891  0.00  0.00    +0.292 HD
ENDBRANCH  35  40
ENDBRANCH  31  32
ENDBRANCH  30  31
ENDBRANCH  28  30
ENDBRANCH  25  26
ENDBRANCH  24  25
ENDBRANCH  15  24
TORSDOF 9
