REMARK  Name = ZINC02865882
REMARK  10 active torsions:
REMARK  status: ('A' for Active; 'I' for Inactive)
REMARK    1  A    between atoms: C_1  and  C_2
REMARK    2  A    between atoms: C_2  and  C_3
REMARK    3  A    between atoms: C_10  and  C_12
REMARK    4  A    between atoms: C_14  and  N_20
REMARK    5  A    between atoms: C_16  and  C_19
REMARK    6  A    between atoms: C_17  and  O_18
REMARK    7  A    between atoms: N_20  and  C_21
REMARK    8  A    between atoms: C_21  and  N_23
REMARK    9  A    between atoms: C_24  and  C_26
REMARK   10  A    between atoms: C_29  and  C_33
REMARK                            x       y       z     vdW  Elec       q    Type
REMARK                         _______ _______ _______ _____ _____    ______ ____
ROOT
ATOM      1  C   UNL     1       1.309  -2.603   6.798  0.00  0.00    +0.080 A 
ATOM      2  C   UNL     1       0.110  -2.645   7.511  0.00  0.00    +0.040 A 
ATOM      3  C   UNL     1       0.132  -2.801   8.887  0.00  0.00    +0.034 A 
ATOM      4  C   UNL     1       1.345  -2.915   9.557  0.00  0.00    +0.030 A 
ATOM      5  C   UNL     1       2.535  -2.874   8.857  0.00  0.00    -0.007 A 
ATOM      6  C   UNL     1       2.527  -2.725   7.479  0.00  0.00    +0.132 A 
ATOM      7  C   UNL     1       3.844  -2.998   9.592  0.00  0.00    +0.047 C 
ENDROOT
BRANCH   1  15
ATOM      8  C   UNL     1       0.545  -1.913   0.916  0.00  0.00    -0.045 A 
ATOM      9  C   UNL     1       1.931  -1.960   0.890  0.00  0.00    +0.007 A 
ATOM     10  C   UNL     1       2.649  -2.118   2.058  0.00  0.00    +0.049 A 
ATOM     11  C   UNL     1       1.982  -2.230   3.268  0.00  0.00    +0.156 A 
ATOM     12  C   UNL     1       0.579  -2.182   3.299  0.00  0.00    +0.110 A 
ATOM     13  C   UNL     1      -0.133  -2.017   2.109  0.00  0.00    +0.035 A 
ATOM     14  N   UNL     1       0.213  -2.316   4.600  0.00  0.00    -0.209 NA
ATOM     15  C   UNL     1       1.294  -2.438   5.331  0.00  0.00    +0.232 A 
ATOM     16  O   UNL     1       2.388  -2.389   4.548  0.00  0.00    -0.435 OA
BRANCH   8  18
ATOM     17  C   UNL     1      -0.424  -0.249  -0.647  0.00  0.00    +0.009 C 
ATOM     18  C   UNL     1      -0.222  -1.740  -0.370  0.00  0.00    +0.032 C 
ENDBRANCH   8  18
ENDBRANCH   1  15
BRANCH   6  19
ATOM     19  O   UNL     1       3.697  -2.691   6.792  0.00  0.00    -0.506 OA
ATOM     20  H   UNL     1       4.069  -1.804   6.691  0.00  0.00    +0.292 HD
ENDBRANCH   6  19
BRANCH   3  21
ATOM     21  N   UNL     1      -1.070  -2.843   9.605  0.00  0.00    -0.297 N 
ATOM     22  H   UNL     1      -1.148  -2.370  10.449  0.00  0.00    +0.154 HD
BRANCH  21  23
ATOM     23  C   UNL     1      -2.118  -3.541   9.125  0.00  0.00    +0.141 C 
ATOM     24  S   UNL     1      -1.939  -4.490   7.711  0.00  0.00    -0.018 S 
BRANCH  23  25
ATOM     25  N   UNL     1      -3.308  -3.491   9.756  0.00  0.00    -0.264 N 
ATOM     26  C   UNL     1      -4.356  -4.189   9.276  0.00  0.00    +0.251 C 
ATOM     27  O   UNL     1      -4.228  -4.862   8.272  0.00  0.00    -0.270 OA
ATOM     28  H   UNL     1      -3.409  -2.953  10.557  0.00  0.00    +0.157 HD
BRANCH  26  29
ATOM     29  C   UNL     1      -5.659  -4.134   9.968  0.00  0.00    +0.055 A 
ATOM     30  C   UNL     1      -5.811  -3.356  11.118  0.00  0.00    +0.015 A 
ATOM     31  C   UNL     1      -7.030  -3.309  11.760  0.00  0.00    +0.004 A 
ATOM     32  C   UNL     1      -8.104  -4.032  11.267  0.00  0.00    -0.049 A 
ATOM     33  C   UNL     1      -7.962  -4.804  10.129  0.00  0.00    +0.024 A 
ATOM     34  C   UNL     1      -6.748  -4.856   9.473  0.00  0.00    +0.053 A 
ATOM     35 CL   UNL     1      -6.574  -5.821   8.040  0.00  0.00    -0.083 Cl
ATOM     36  C   UNL     1      -9.433  -3.975  11.975  0.00  0.00    +0.044 C 
ENDBRANCH  26  29
ENDBRANCH  23  25
ENDBRANCH  21  23
ENDBRANCH   3  21
TORSDOF 7
