REMARK  Name = ZINC00806251
REMARK  4 active torsions:
REMARK  status: ('A' for Active; 'I' for Inactive)
REMARK    1  A    between atoms: C_6  and  C_11
REMARK    2  A    between atoms: C_18  and  N_31
REMARK    3  A    between atoms: C_19  and  C_29
REMARK    4  A    between atoms: C_20  and  C_22
REMARK                            x       y       z     vdW  Elec       q    Type
REMARK                         _______ _______ _______ _____ _____    ______ ____
ROOT
ATOM      1  C   UNL     1       4.983  -2.713  -0.060  0.00  0.00    +0.100 A 
ATOM      2  C   UNL     1       5.259  -3.928   0.575  0.00  0.00    +0.054 A 
ATOM      3  C   UNL     1       6.559  -4.252   0.319  0.00  0.00    +0.223 A 
ATOM      4  N   UNL     1       7.083  -3.275  -0.449  0.00  0.00    -0.246 N 
ATOM      5  H   UNL     1       7.993  -3.239  -0.785  0.00  0.00    +0.192 HD
ATOM      6  N   UNL     1       6.080  -2.321  -0.682  0.00  0.00    -0.171 NA
ATOM      7  O   UNL     1       7.139  -5.383   0.794  0.00  0.00    -0.423 OA
ATOM      8  C   UNL     1       6.329  -6.332   1.306  0.00  0.00    +0.200 C 
ATOM      9  C   UNL     1       5.029  -6.127   1.611  0.00  0.00    +0.098 C 
ATOM     10  C   UNL     1       4.352  -4.794   1.411  0.00  0.00    +0.102 C 
ENDROOT
BRANCH   1  16
ATOM     11  C   UNL     1      -0.016   1.357   0.009  0.00  0.00    +0.001 A 
ATOM     12  C   UNL     1       1.168   2.091   0.002  0.00  0.00    +0.001 A 
ATOM     13  C   UNL     1       2.378   1.468  -0.013  0.00  0.00    +0.008 A 
ATOM     14  C   UNL     1       2.437   0.063  -0.021  0.00  0.00    -0.017 A 
ATOM     15  C   UNL     1       3.668  -0.612  -0.036  0.00  0.00    +0.018 A 
ATOM     16  C   UNL     1       3.685  -1.994  -0.044  0.00  0.00    +0.003 A 
ATOM     17  C   UNL     1       2.485  -2.723  -0.036  0.00  0.00    +0.011 A 
ATOM     18  C   UNL     1       1.284  -2.089  -0.021  0.00  0.00    +0.009 A 
ATOM     19  C   UNL     1       1.232  -0.684  -0.013  0.00  0.00    -0.018 A 
ATOM     20  C   UNL     1       0.002  -0.004   0.002  0.00  0.00    +0.008 A 
ENDBRANCH   1  16
BRANCH  10  21
ATOM     21  C   UNL     1       4.113  -4.138   2.747  0.00  0.00    -0.034 A 
ATOM     22  C   UNL     1       5.180  -3.864   3.583  0.00  0.00    +0.006 A 
ATOM     23  C   UNL     1       4.961  -3.263   4.808  0.00  0.00    +0.020 A 
ATOM     24  C   UNL     1       3.675  -2.936   5.198  0.00  0.00    +0.041 A 
ATOM     25  C   UNL     1       2.608  -3.211   4.361  0.00  0.00    +0.020 A 
ATOM     26  C   UNL     1       2.828  -3.806   3.133  0.00  0.00    +0.006 A 
ATOM     27 CL   UNL     1       3.399  -2.182   6.737  0.00  0.00    -0.084 Cl
ENDBRANCH  10  21
BRANCH   8  28
ATOM     28  N   UNL     1       6.856  -7.580   1.528  0.00  0.00    -0.328 N 
ATOM     29  H   UNL     1       7.786  -7.758   1.318  0.00  0.00    +0.145 HD
ATOM     30  H   UNL     1       6.298  -8.284   1.895  0.00  0.00    +0.145 HD
ENDBRANCH   8  28
BRANCH   9  31
ATOM     31  C   UNL     1       4.265  -7.214   2.145  0.00  0.00    +0.101 C 
ATOM     32  N   UNL     1       3.660  -8.077   2.569  0.00  0.00    -0.191 NA
ENDBRANCH   9  31
TORSDOF 4
