REMARK  Name = ZINC21968534
REMARK  14 active torsions:
REMARK  status: ('A' for Active; 'I' for Inactive)
REMARK    1  A    between atoms: C_1  and  C_2
REMARK    2  A    between atoms: C_7  and  C_8
REMARK    3  A    between atoms: N_10  and  N_11
REMARK    4  A    between atoms: C_12  and  C_14
REMARK    5  A    between atoms: C_17  and  O_22
REMARK    6  A    between atoms: C_18  and  O_20
REMARK    7  A    between atoms: O_20  and  C_21
REMARK    8  A    between atoms: O_22  and  C_23
REMARK    9  A    between atoms: C_23  and  C_24
REMARK   10  A    between atoms: C_24  and  C_25
REMARK   11  A    between atoms: C_25  and  C_26
REMARK   12  A    between atoms: C_25  and  C_27
REMARK   13  A    between atoms: C_29  and  C_33
REMARK   14  A    between atoms: C_29  and  C_34
REMARK                            x       y       z     vdW  Elec       q    Type
REMARK                         _______ _______ _______ _____ _____    ______ ____
ROOT
ATOM      1  C   UNL     1      -0.016   1.344   0.009  0.00  0.00    +0.277 C 
ATOM      2  O   UNL     1      -1.078   1.938   0.018  0.00  0.00    -0.267 OA
ATOM      3  N   UNL     1       0.002  -0.004   0.002  0.00  0.00    -0.229 N 
ATOM      4  H   UNL     1       0.962  -0.541  -0.010  0.00  0.00    +0.173 HD
ENDROOT
BRANCH   1  11
ATOM      5  C   UNL     1       0.238   4.459   0.023  0.00  0.00    +0.047 C 
ATOM      6  C   UNL     1       1.364   3.457   0.008  0.00  0.00    -0.010 A 
ATOM      7  C   UNL     1       2.735   3.740  -0.004  0.00  0.00    +0.042 A 
ATOM      8  C   UNL     1       3.418   2.523  -0.019  0.00  0.00    +0.028 A 
ATOM      9  N   UNL     1       2.513   1.545  -0.008  0.00  0.00    -0.354 N 
ATOM     10  H   UNL     1       2.839   0.494  -0.007  0.00  0.00    +0.166 HD
ATOM     11  C   UNL     1       1.245   2.095   0.001  0.00  0.00    +0.107 A 
ATOM     12  C   UNL     1       4.923   2.430  -0.038  0.00  0.00    +0.060 C 
ATOM     13  C   UNL     1       5.504   3.754  -0.543  0.00  0.00    -0.023 C 
ATOM     14  C   UNL     1       4.946   4.932   0.260  0.00  0.00    +0.086 C 
ATOM     15  C   UNL     1       3.450   5.026   0.001  0.00  0.00    +0.166 C 
ATOM     16  O   UNL     1       2.887   6.083  -0.189  0.00  0.00    -0.292 OA
ATOM     17  C   UNL     1       5.141   3.933  -2.019  0.00  0.00    +0.011 C 
ATOM     18  C   UNL     1       7.027   3.722  -0.400  0.00  0.00    +0.011 C 
ENDBRANCH   1  11
BRANCH   3  19
ATOM     19  N   UNL     1      -1.202  -0.721   0.010  0.00  0.00    -0.230 N 
ATOM     20  C   UNL     1      -1.183  -2.069   0.002  0.00  0.00    +0.260 C 
ATOM     21  O   UNL     1      -0.122  -2.662  -0.011  0.00  0.00    -0.269 OA
ATOM     22  H   UNL     1      -2.162  -0.184   0.022  0.00  0.00    +0.173 HD
BRANCH  20  23
ATOM     23  C   UNL     1      -2.451  -2.824   0.010  0.00  0.00    +0.042 A 
ATOM     24  C   UNL     1      -3.671  -2.144   0.031  0.00  0.00    +0.017 A 
ATOM     25  C   UNL     1      -4.854  -2.850   0.034  0.00  0.00    +0.050 A 
ATOM     26  C   UNL     1      -4.838  -4.238   0.026  0.00  0.00    +0.162 A 
ATOM     27  C   UNL     1      -3.624  -4.923   0.011  0.00  0.00    +0.162 A 
ATOM     28  C   UNL     1      -2.434  -4.221   0.003  0.00  0.00    +0.062 A 
BRANCH  27  29
ATOM     29  O   UNL     1      -3.611  -6.284   0.003  0.00  0.00    -0.491 OA
ATOM     30  C   UNL     1      -2.331  -6.920  -0.014  0.00  0.00    +0.277 C 
ENDBRANCH  27  29
BRANCH  26  31
ATOM     31  O   UNL     1      -6.006  -4.930   0.035  0.00  0.00    -0.488 OA
BRANCH  31  32
ATOM     32  C   UNL     1      -7.213  -4.165   0.051  0.00  0.00    +0.229 C 
BRANCH  32  33
ATOM     33  C   UNL     1      -8.416  -5.110   0.058  0.00  0.00    +0.044 C 
BRANCH  33  34
ATOM     34  C   UNL     1      -9.708  -4.291   0.076  0.00  0.00    -0.014 C 
ATOM     35  C   UNL     1      -9.826  -3.496  -1.227  0.00  0.00    +0.007 C 
ATOM     36  C   UNL     1     -10.907  -5.232   0.209  0.00  0.00    +0.007 C 
ENDBRANCH  33  34
ENDBRANCH  32  33
ENDBRANCH  31  32
ENDBRANCH  26  31
ENDBRANCH  20  23
ENDBRANCH   3  19
TORSDOF 8
