REMARK  Name = ZINC10000829
REMARK  9 active torsions:
REMARK  status: ('A' for Active; 'I' for Inactive)
REMARK    1  A    between atoms: C_1  and  C_2
REMARK    2  A    between atoms: C_2  and  C_3
REMARK    3  A    between atoms: C_2  and  C_4
REMARK    4  A    between atoms: C_4  and  C_6
REMARK    5  A    between atoms: C_4  and  N_20
REMARK    6  A    between atoms: N_8  and  N_9
REMARK    7  A    between atoms: C_10  and  C_11
REMARK    8  A    between atoms: C_14  and  O_18
REMARK    9  A    between atoms: C_21  and  C_23
REMARK                            x       y       z     vdW  Elec       q    Type
REMARK                         _______ _______ _______ _____ _____    ______ ____
ROOT
ATOM      1  C   UNL     1       3.713  -5.113   0.196  0.00  0.00    +0.253 C 
ATOM      2  O   UNL     1       4.817  -4.612   0.147  0.00  0.00    -0.272 OA
ATOM      3  N   UNL     1       3.581  -6.431   0.445  0.00  0.00    -0.205 N 
ATOM      4  H   UNL     1       2.704  -6.845   0.413  0.00  0.00    +0.177 HD
ENDROOT
BRANCH   3   5
ATOM      5  N   UNL     1       4.709  -7.202   0.751  0.00  0.00    -0.188 NA
ATOM      6  C   UNL     1       4.582  -8.471   0.991  0.00  0.00    +0.138 C 
BRANCH   6   7
ATOM      7  C   UNL     1       5.770  -9.283   1.313  0.00  0.00    -0.003 A 
ATOM      8  C   UNL     1       7.034  -8.690   1.355  0.00  0.00    +0.028 A 
ATOM      9  C   UNL     1       8.141  -9.452   1.662  0.00  0.00    +0.061 A 
ATOM     10  C   UNL     1       8.003 -10.810   1.919  0.00  0.00    +0.145 A 
ATOM     11  C   UNL     1       6.748 -11.406   1.873  0.00  0.00    +0.061 A 
ATOM     12  C   UNL     1       5.635 -10.650   1.572  0.00  0.00    +0.028 A 
ATOM     13 BR   UNL     1       6.567 -13.255   2.224  0.00  0.00    -0.046 Br
ATOM     14 BR   UNL     1       9.852  -8.648   1.727  0.00  0.00    -0.046 Br
BRANCH  10  15
ATOM     15  O   UNL     1       9.098 -11.559   2.215  0.00  0.00    -0.505 OA
ATOM     16  H   UNL     1       9.528 -11.949   1.442  0.00  0.00    +0.292 HD
ENDBRANCH  10  15
ENDBRANCH   6   7
ENDBRANCH   3   5
BRANCH   1  17
ATOM     17  C   UNL     1       2.489  -4.261  -0.022  0.00  0.00    +0.163 C 
BRANCH  17  18
ATOM     18  N   UNL     1       2.774  -2.883   0.388  0.00  0.00    -0.300 N 
ATOM     19  C   UNL     1       1.768  -2.071   0.766  0.00  0.00    +0.245 C 
ATOM     20  O   UNL     1       0.623  -2.481   0.768  0.00  0.00    -0.270 OA
ATOM     21  H   UNL     1       3.687  -2.556   0.386  0.00  0.00    +0.150 HD
BRANCH  19  22
ATOM     22  C   UNL     1       2.055  -0.682   1.179  0.00  0.00    +0.037 A 
ATOM     23  C   UNL     1       1.014   0.162   1.572  0.00  0.00    +0.016 A 
ATOM     24  C   UNL     1       1.287   1.457   1.956  0.00  0.00    +0.039 A 
ATOM     25  C   UNL     1       2.593   1.923   1.952  0.00  0.00    +0.123 A 
ATOM     26  C   UNL     1       3.631   1.089   1.563  0.00  0.00    +0.039 A 
ATOM     27  C   UNL     1       3.368  -0.208   1.177  0.00  0.00    +0.016 A 
ATOM     28  F   UNL     1       2.856   3.193   2.329  0.00  0.00    -0.205 F 
ENDBRANCH  19  22
ENDBRANCH  17  18
BRANCH  17  30
ATOM     29  C   UNL     1       1.763  -5.715  -1.919  0.00  0.00    +0.009 C 
ATOM     30  C   UNL     1       2.108  -4.284  -1.504  0.00  0.00    +0.012 C 
ATOM     31  C   UNL     1       0.896  -3.380  -1.733  0.00  0.00    +0.009 C 
ENDBRANCH  17  30
ENDBRANCH   1  17
TORSDOF 7
