REMARK  Name = ZINC39666600
REMARK  7 active torsions:
REMARK  status: ('A' for Active; 'I' for Inactive)
REMARK    1  A    between atoms: C_1  and  C_2
REMARK    2  A    between atoms: C_2  and  C_4
REMARK    3  A    between atoms: C_2  and  O_30
REMARK    4  A    between atoms: C_4  and  N_5
REMARK    5  A    between atoms: C_6  and  C_8
REMARK    6  A    between atoms: C_19  and  C_21
REMARK    7  A    between atoms: O_30  and  C_31
REMARK                            x       y       z     vdW  Elec       q    Type
REMARK                         _______ _______ _______ _____ _____    ______ ____
ROOT
ATOM      1  C   UNL     1      -2.825  -4.116  -0.212  0.00  0.00    +0.100 C 
ATOM      2  C   UNL     1      -2.465  -4.630   1.200  0.00  0.00    +0.121 C 
ATOM      3  N   UNL     1      -3.771  -4.905   1.843  0.00  0.00    -0.296 N 
ATOM      4  C   UNL     1      -4.596  -5.498   0.763  0.00  0.00    +0.115 C 
ATOM      5  C   UNL     1      -4.223  -4.691  -0.496  0.00  0.00    -0.004 C 
ATOM      6  C   UNL     1      -5.225  -3.561  -0.713  0.00  0.00    -0.010 C 
ATOM      7  C   UNL     1      -6.595  -4.157  -1.050  0.00  0.00    -0.082 C 
ATOM      8  N   UNL     1      -6.487  -4.981  -2.259  0.00  0.00    +0.379 N 
ATOM      9  C   UNL     1      -5.593  -6.119  -2.013  0.00  0.00    -0.082 C 
ATOM     10  C   UNL     1      -4.181  -5.606  -1.716  0.00  0.00    -0.010 C 
ATOM     11  C   UNL     1      -4.128  -4.670   3.121  0.00  0.00    +0.248 C 
ATOM     12  O   UNL     1      -3.370  -4.076   3.865  0.00  0.00    -0.270 OA
ATOM     13  H   UNL     1      -7.402  -5.323  -2.514  0.00  0.00    -0.086 HD
ATOM     14  H   UNL     1      -6.118  -4.423  -3.014  0.00  0.00    -0.086 HD
ENDROOT
BRANCH  11  15
ATOM     15  C   UNL     1      -5.432  -5.131   3.616  0.00  0.00    +0.052 A 
ATOM     16  C   UNL     1      -6.064  -6.188   3.043  0.00  0.00    +0.059 A 
ATOM     17  S   UNL     1      -7.494  -6.370   3.901  0.00  0.00    -0.096 S 
ATOM     18  C   UNL     1      -7.329  -5.048   5.069  0.00  0.00    +0.020 A 
ATOM     19  C   UNL     1      -6.088  -4.469   4.746  0.00  0.00    +0.001 A 
ATOM     20  C   UNL     1      -5.666  -3.372   5.521  0.00  0.00    +0.010 A 
ATOM     21  C   UNL     1      -6.448  -2.906   6.549  0.00  0.00    +0.001 A 
ATOM     22  C   UNL     1      -7.665  -3.498   6.851  0.00  0.00    +0.001 A 
ATOM     23  C   UNL     1      -8.109  -4.570   6.101  0.00  0.00    +0.015 A 
ENDBRANCH  11  15
BRANCH   1  25
ATOM     24  N   UNL     1      -2.743  -1.945  -1.395  0.00  0.00    -0.312 N 
ATOM     25  C   UNL     1      -2.864  -2.610  -0.228  0.00  0.00    +0.218 C 
ATOM     26  O   UNL     1      -3.003  -1.996   0.808  0.00  0.00    -0.275 OA
ATOM     27  H   UNL     1      -2.632  -2.437  -2.223  0.00  0.00    +0.149 HD
BRANCH  24  28
ATOM     28  C   UNL     1      -2.781  -0.481  -1.410  0.00  0.00    +0.148 C 
BRANCH  28  30
ATOM     29  C   UNL     1      -2.663   1.547  -2.865  0.00  0.00    +0.053 C 
ATOM     30  C   UNL     1      -2.623   0.018  -2.848  0.00  0.00    +0.187 C 
BRANCH  30  31
ATOM     31  O   UNL     1      -1.373  -0.432  -3.374  0.00  0.00    -0.486 OA
BRANCH  31  32
ATOM     32  C   UNL     1      -1.336  -0.739  -4.698  0.00  0.00    +0.139 A 
ATOM     33  C   UNL     1      -2.443  -0.501  -5.498  0.00  0.00    +0.047 A 
ATOM     34  C   UNL     1      -2.403  -0.813  -6.843  0.00  0.00    +0.004 A 
ATOM     35  C   UNL     1      -1.259  -1.363  -7.393  0.00  0.00    +0.002 A 
ATOM     36  C   UNL     1      -0.154  -1.603  -6.598  0.00  0.00    +0.023 A 
ATOM     37  C   UNL     1      -0.187  -1.286  -5.253  0.00  0.00    +0.083 A 
ATOM     38 CL   UNL     1       1.204  -1.580  -4.256  0.00  0.00    -0.080 Cl
ENDBRANCH  31  32
ENDBRANCH  30  31
ENDBRANCH  28  30
ENDBRANCH  24  28
ENDBRANCH   1  25
TORSDOF 6
