REMARK  Name = ZINC36290356
REMARK  3 active torsions:
REMARK  status: ('A' for Active; 'I' for Inactive)
REMARK    1  A    between atoms: C_1  and  C_2
REMARK    2  A    between atoms: C_7  and  N_21
REMARK    3  A    between atoms: C_8  and  C_10
REMARK                            x       y       z     vdW  Elec       q    Type
REMARK                         _______ _______ _______ _____ _____    ______ ____
ROOT
ATOM      1  C   UNL     1      -0.018   1.503   0.010  0.00  0.00    +0.064 C 
ATOM      2  C   UNL     1       0.002  -0.004   0.002  0.00  0.00    +0.031 A 
ATOM      3  C   UNL     1       0.005  -0.655  -1.159  0.00  0.00    +0.070 A 
ATOM      4  S   UNL     1       0.031  -2.360  -0.630  0.00  0.00    -0.057 S 
ATOM      5  C   UNL     1       0.035  -2.064   1.123  0.00  0.00    +0.179 A 
ATOM      6  N   UNL     1       0.023  -0.692   1.199  0.00  0.00    -0.279 N 
ATOM      7  C   UNL     1       0.031  -0.401   2.559  0.00  0.00    +0.129 A 
ATOM      8  C   UNL     1       0.053  -1.585   3.231  0.00  0.00    +0.112 A 
ATOM      9  N   UNL     1       0.048  -2.587   2.313  0.00  0.00    -0.219 NA
ENDROOT
BRANCH   8  10
ATOM     10  C   UNL     1       0.069  -1.751   4.703  0.00  0.00    +0.007 A 
ATOM     11  C   UNL     1       0.753  -0.832   5.502  0.00  0.00    +0.012 A 
ATOM     12  C   UNL     1       0.769  -0.986   6.872  0.00  0.00    +0.030 A 
ATOM     13  C   UNL     1       0.105  -2.054   7.458  0.00  0.00    +0.087 A 
ATOM     14  C   UNL     1      -0.581  -2.976   6.666  0.00  0.00    +0.157 A 
ATOM     15  C   UNL     1      -0.603  -2.821   5.291  0.00  0.00    +0.058 A 
ATOM     16  O   UNL     1      -1.125  -3.897   7.499  0.00  0.00    -0.408 OA
ATOM     17  C   UNL     1      -0.807  -3.587   8.766  0.00  0.00    +0.419 A 
ATOM     18  O   UNL     1      -1.145  -4.219   9.749  0.00  0.00    -0.223 OA
ATOM     19  N   UNL     1      -0.057  -2.468   8.781  0.00  0.00    -0.288 N 
ATOM     20  H   UNL     1       0.305  -2.030   9.568  0.00  0.00    +0.172 HD
ENDBRANCH   8  10
BRANCH   7  21
ATOM     21  N   UNL     1       0.019   0.873   3.131  0.00  0.00    -0.342 N 
ATOM     22  H   UNL     1       0.003   1.660   2.563  0.00  0.00    +0.144 HD
ATOM     23  H   UNL     1       0.027   0.972   4.096  0.00  0.00    +0.144 HD
ENDBRANCH   7  21
TORSDOF 2
