REMARK  Name = ZINC23647374
REMARK  6 active torsions:
REMARK  status: ('A' for Active; 'I' for Inactive)
REMARK    1  A    between atoms: C_1  and  C_2
REMARK    2  A    between atoms: C_5  and  C_7
REMARK    3  A    between atoms: C_7  and  S_8
REMARK    4  A    between atoms: S_8  and  C_9
REMARK    5  A    between atoms: C_17  and  C_21
REMARK    6  A    between atoms: N_24  and  C_25
REMARK                            x       y       z     vdW  Elec       q    Type
REMARK                         _______ _______ _______ _____ _____    ______ ____
ROOT
ATOM      1  C   UNL     1      -0.139   1.945  -0.670  0.00  0.00    +0.178 A 
ATOM      2  N   UNL     1       0.993   2.619  -0.696  0.00  0.00    -0.215 NA
ATOM      3  C   UNL     1       1.114   3.770  -0.046  0.00  0.00    +0.117 A 
ATOM      4  C   UNL     1       0.057   4.326   0.694  0.00  0.00    +0.076 A 
ATOM      5  C   UNL     1       0.342   5.600   1.357  0.00  0.00    -0.023 A 
ATOM      6  C   UNL     1       1.578   6.112   1.194  0.00  0.00    -0.004 A 
ATOM      7  S   UNL     1       2.427   4.946   0.163  0.00  0.00    -0.073 S 
ATOM      8  C   UNL     1       2.114   7.390   1.764  0.00  0.00    +0.046 C 
ATOM      9  C   UNL     1       1.165   7.860   2.875  0.00  0.00    -0.009 C 
ATOM     10  C   UNL     1      -0.273   7.791   2.354  0.00  0.00    +0.008 C 
ATOM     11  C   UNL     1      -0.700   6.331   2.199  0.00  0.00    +0.037 C 
ATOM     12  C   UNL     1       1.502   9.302   3.262  0.00  0.00    +0.008 C 
ATOM     13  C   UNL     1      -1.160   3.574   0.705  0.00  0.00    +0.268 A 
ATOM     14  O   UNL     1      -2.131   3.979   1.320  0.00  0.00    -0.267 OA
ATOM     15  N   UNL     1      -1.220   2.416   0.021  0.00  0.00    -0.255 N 
ENDROOT
BRANCH  15  16
ATOM     16  C   UNL     1      -2.410   1.677   0.023  0.00  0.00    +0.052 A 
ATOM     17  C   UNL     1      -3.372   1.905  -0.952  0.00  0.00    +0.028 A 
ATOM     18  C   UNL     1      -4.543   1.173  -0.951  0.00  0.00    +0.022 A 
ATOM     19  C   UNL     1      -4.762   0.219   0.027  0.00  0.00    +0.041 A 
ATOM     20  C   UNL     1      -3.808  -0.007   1.003  0.00  0.00    +0.022 A 
ATOM     21  C   UNL     1      -2.633   0.720   1.003  0.00  0.00    +0.028 A 
ATOM     22 CL   UNL     1      -6.238  -0.695   0.031  0.00  0.00    -0.084 Cl
ENDBRANCH  15  16
BRANCH   1  23
ATOM     23  S   UNL     1      -0.264   0.420  -1.545  0.00  0.00    -0.078 S 
BRANCH  23  24
ATOM     24  C   UNL     1       1.403   0.321  -2.243  0.00  0.00    +0.175 C 
BRANCH  24  29
ATOM     25  C   UNL     1       2.275  -4.434  -3.651  0.00  0.00    +0.111 C 
ATOM     26  C   UNL     1       1.906  -2.973  -3.658  0.00  0.00    +0.214 A 
ATOM     27  N   UNL     1       1.496  -2.286  -4.686  0.00  0.00    -0.113 NA
ATOM     28  N   UNL     1       1.274  -1.071  -4.326  0.00  0.00    -0.112 NA
ATOM     29  C   UNL     1       1.533  -0.942  -3.056  0.00  0.00    +0.227 A 
ATOM     30  O   UNL     1       1.944  -2.139  -2.605  0.00  0.00    -0.424 OA
ENDBRANCH  24  29
ENDBRANCH  23  24
ENDBRANCH   1  23
TORSDOF 4
