REMARK  Name = ZINC09444001
REMARK  10 active torsions:
REMARK  status: ('A' for Active; 'I' for Inactive)
REMARK    1  A    between atoms: C_1  and  N_2
REMARK    2  A    between atoms: C_6  and  S_7
REMARK    3  A    between atoms: S_7  and  C_8
REMARK    4  A    between atoms: C_8  and  C_9
REMARK    5  A    between atoms: C_12  and  C_25
REMARK    6  A    between atoms: C_15  and  C_17
REMARK    7  A    between atoms: C_20  and  O_23
REMARK    8  A    between atoms: O_23  and  C_24
REMARK    9  A    between atoms: C_28  and  O_31
REMARK   10  A    between atoms: O_31  and  C_32
REMARK                            x       y       z     vdW  Elec       q    Type
REMARK                         _______ _______ _______ _____ _____    ______ ____
ROOT
ATOM      1  C   UNL     1      -1.724   5.089   0.038  0.00  0.00    +0.246 C 
ATOM      2  O   UNL     1      -2.897   4.779   0.042  0.00  0.00    -0.273 OA
ATOM      3  N   UNL     1      -1.371   6.390   0.044  0.00  0.00    -0.184 N 
ATOM      4  C   UNL     1      -2.303   7.529   0.054  0.00  0.00    +0.137 C 
ATOM      5  C   UNL     1      -1.371   8.758   0.056  0.00  0.00    +0.087 C 
ATOM      6  C   UNL     1       0.018   8.161   0.046  0.00  0.00    +0.069 C 
ATOM      7  N   UNL     1      -0.065   6.875   0.046  0.00  0.00    -0.181 NA
ENDROOT
BRANCH   6   8
ATOM      8  C   UNL     1       1.275   8.932   0.044  0.00  0.00    -0.002 A 
ATOM      9  C   UNL     1       1.240  10.329   0.046  0.00  0.00    +0.013 A 
ATOM     10  C   UNL     1       2.418  11.045   0.049  0.00  0.00    +0.046 A 
ATOM     11  C   UNL     1       3.637  10.380   0.039  0.00  0.00    +0.120 A 
ATOM     12  C   UNL     1       3.677   8.992   0.032  0.00  0.00    +0.046 A 
ATOM     13  C   UNL     1       2.504   8.268   0.035  0.00  0.00    +0.013 A 
BRANCH  11  14
ATOM     14  O   UNL     1       4.795  11.091   0.037  0.00  0.00    -0.495 OA
ATOM     15  C   UNL     1       4.683  12.515   0.044  0.00  0.00    +0.277 C 
ENDBRANCH  11  14
ENDBRANCH   6   8
BRANCH   4  16
ATOM     16  C   UNL     1      -3.154   7.507   1.298  0.00  0.00    -0.024 A 
ATOM     17  C   UNL     1      -2.600   7.124   2.506  0.00  0.00    +0.009 A 
ATOM     18  C   UNL     1      -3.377   7.109   3.648  0.00  0.00    +0.046 A 
ATOM     19  C   UNL     1      -4.716   7.466   3.581  0.00  0.00    +0.120 A 
ATOM     20  C   UNL     1      -5.270   7.844   2.366  0.00  0.00    +0.046 A 
ATOM     21  C   UNL     1      -4.487   7.864   1.228  0.00  0.00    +0.009 A 
BRANCH  19  22
ATOM     22  O   UNL     1      -5.483   7.445   4.702  0.00  0.00    -0.495 OA
ATOM     23  C   UNL     1      -4.846   7.045   5.917  0.00  0.00    +0.277 C 
ENDBRANCH  19  22
ENDBRANCH   4  16
BRANCH   1  24
ATOM     24  C   UNL     1      -0.662   4.020   0.027  0.00  0.00    +0.175 C 
BRANCH  24  25
ATOM     25  S   UNL     1      -1.447   2.389   0.022  0.00  0.00    -0.077 S 
BRANCH  25  31
ATOM     26  C   UNL     1      -1.154  -0.904   0.008  0.00  0.00    +0.152 C 
ATOM     27  N   UNL     1       0.002  -0.004   0.002  0.00  0.00    -0.312 N 
ATOM     28  C   UNL     1       1.323  -0.356  -0.013  0.00  0.00    +0.225 A 
ATOM     29  N   UNL     1       2.019   0.745  -0.013  0.00  0.00    -0.137 NA
ATOM     30  N   UNL     1       1.233   1.763  -0.000  0.00  0.00    -0.123 NA
ATOM     31  C   UNL     1      -0.016   1.361   0.009  0.00  0.00    +0.192 A 
ENDBRANCH  25  31
ENDBRANCH  24  25
ENDBRANCH   1  24
TORSDOF 7
