REMARK  Name = ZINC06821677
REMARK  9 active torsions:
REMARK  status: ('A' for Active; 'I' for Inactive)
REMARK    1  A    between atoms: C_1  and  C_2
REMARK    2  A    between atoms: C_2  and  C_3
REMARK    3  A    between atoms: N_5  and  C_17
REMARK    4  A    between atoms: C_12  and  C_16
REMARK    5  A    between atoms: C_17  and  C_19
REMARK    6  A    between atoms: C_17  and  C_21
REMARK    7  A    between atoms: C_19  and  C_20
REMARK    8  A    between atoms: N_23  and  C_24
REMARK    9  A    between atoms: C_30  and  C_32
REMARK                            x       y       z     vdW  Elec       q    Type
REMARK                         _______ _______ _______ _____ _____    ______ ____
ROOT
ATOM      1  C   UNL     1       8.117  -1.929  -2.213  0.00  0.00    +0.135 A 
ATOM      2  N   UNL     1       6.854  -1.868  -2.463  0.00  0.00    -0.154 NA
ATOM      3  N   UNL     1       6.333  -1.068  -3.484  0.00  0.00    -0.214 N 
ATOM      4  C   UNL     1       7.162  -0.327  -4.253  0.00  0.00    +0.292 A 
ATOM      5  O   UNL     1       6.727   0.373  -5.150  0.00  0.00    -0.264 OA
ATOM      6  C   UNL     1       8.599  -0.387  -3.972  0.00  0.00    +0.118 A 
ATOM      7  N   UNL     1       9.040  -1.204  -2.942  0.00  0.00    -0.288 N 
ATOM      8  C   UNL     1      10.405  -1.103  -2.870  0.00  0.00    +0.094 A 
ATOM      9  C   UNL     1      11.573  -1.534  -2.196  0.00  0.00    +0.071 A 
ATOM     10  C   UNL     1      12.617  -0.919  -2.777  0.00  0.00    +0.105 A 
ATOM     11  O   UNL     1      12.174  -0.131  -3.773  0.00  0.00    -0.458 OA
ATOM     12  C   UNL     1      10.829  -0.219  -3.858  0.00  0.00    +0.154 A 
ATOM     13  C   UNL     1       9.691   0.224  -4.542  0.00  0.00    +0.080 A 
ATOM     14  C   UNL     1      14.059  -1.088  -2.376  0.00  0.00    +0.086 C 
ENDROOT
BRANCH   1  16
ATOM     15  C   UNL     1       7.404  -3.510  -0.440  0.00  0.00    +0.012 C 
ATOM     16  C   UNL     1       8.600  -2.816  -1.094  0.00  0.00    +0.073 C 
ENDBRANCH   1  16
BRANCH   3  17
ATOM     17  C   UNL     1       4.888  -1.037  -3.724  0.00  0.00    +0.196 C 
BRANCH  17  18
ATOM     18  C   UNL     1       4.183  -0.551  -2.485  0.00  0.00    +0.238 C 
ATOM     19  O   UNL     1       4.824  -0.259  -1.497  0.00  0.00    -0.273 OA
ATOM     20  N   UNL     1       2.839  -0.440  -2.473  0.00  0.00    -0.310 N 
ATOM     21  H   UNL     1       2.327  -0.674  -3.263  0.00  0.00    +0.149 HD
BRANCH  20  22
ATOM     22  C   UNL     1       2.154   0.032  -1.268  0.00  0.00    +0.076 C 
ATOM     23  C   UNL     1       2.133   1.562  -1.259  0.00  0.00    +0.022 C 
ATOM     24  C   UNL     1       1.417   2.055  -0.000  0.00  0.00    +0.002 C 
ATOM     25  C   UNL     1      -0.019   1.526   0.010  0.00  0.00    +0.000 C 
ATOM     26  C   UNL     1       0.002  -0.004   0.002  0.00  0.00    +0.005 C 
ATOM     27  C   UNL     1       0.718  -0.497  -1.257  0.00  0.00    +0.006 C 
ATOM     28  C   UNL     1       0.739  -2.027  -1.265  0.00  0.00    +0.009 C 
ENDBRANCH  20  22
ENDBRANCH  17  18
BRANCH  17  29
ATOM     29  C   UNL     1       4.398  -2.444  -4.071  0.00  0.00    +0.033 C 
ATOM     30  C   UNL     1       5.020  -2.888  -5.397  0.00  0.00    +0.006 C 
ENDBRANCH  17  29
ENDBRANCH   3  17
TORSDOF 5
