REMARK  Name = ZINC13557688
REMARK  5 active torsions:
REMARK  status: ('A' for Active; 'I' for Inactive)
REMARK    1  A    between atoms: C_1  and  C_2
REMARK    2  A    between atoms: C_8  and  C_24
REMARK    3  A    between atoms: C_28  and  O_30
REMARK    4  A    between atoms: O_30  and  C_31
REMARK    5  A    between atoms: C_31  and  C_32
REMARK                            x       y       z     vdW  Elec       q    Type
REMARK                         _______ _______ _______ _____ _____    ______ ____
ROOT
ATOM      1  C   UNL     1      -2.537   1.477   0.020  0.00  0.00    +0.089 C 
ATOM      2  C   UNL     1      -1.089   1.894   0.017  0.00  0.00    +0.136 A 
ATOM      3  C   UNL     1      -0.013   1.076   0.008  0.00  0.00    +0.091 A 
ATOM      4  C   UNL     1       1.094   1.966   0.002  0.00  0.00    +0.172 A 
ATOM      5  N   UNL     1       0.592   3.173   0.013  0.00  0.00    -0.063 NA
ATOM      6  O   UNL     1      -0.617   3.149   0.024  0.00  0.00    -0.358 OA
ATOM      7  N   UNL     1       2.445   1.622  -0.012  0.00  0.00    -0.235 N 
ATOM      8  C   UNL     1       3.575   2.554   0.080  0.00  0.00    +0.151 C 
ATOM      9  C   UNL     1       4.819   1.706   0.024  0.00  0.00    +0.072 A 
ATOM     10  C   UNL     1       6.246   2.033   0.071  0.00  0.00    +0.199 A 
ATOM     11  O   UNL     1       6.636   3.183   0.179  0.00  0.00    -0.287 OA
ATOM     12  C   UNL     1       7.189   0.901  -0.020  0.00  0.00    +0.067 A 
ATOM     13  C   UNL     1       8.568   1.099   0.013  0.00  0.00    +0.053 A 
ATOM     14  C   UNL     1       9.413   0.012  -0.076  0.00  0.00    +0.124 A 
ATOM     15  C   UNL     1       8.890  -1.270  -0.198  0.00  0.00    +0.042 A 
ATOM     16  C   UNL     1       7.529  -1.476  -0.231  0.00  0.00    +0.050 A 
ATOM     17  C   UNL     1       6.657  -0.395  -0.143  0.00  0.00    +0.140 A 
ATOM     18  O   UNL     1       5.326  -0.585  -0.176  0.00  0.00    -0.450 OA
ATOM     19  C   UNL     1       4.426   0.414  -0.097  0.00  0.00    +0.199 A 
ATOM     20  C   UNL     1       2.942   0.378  -0.118  0.00  0.00    +0.289 C 
ATOM     21  O   UNL     1       2.274  -0.632  -0.217  0.00  0.00    -0.266 OA
ATOM     22  F   UNL     1      10.751   0.195  -0.045  0.00  0.00    -0.205 F 
ENDROOT
BRANCH   8  23
ATOM     23  C   UNL     1       3.521   3.308   1.384  0.00  0.00    -0.019 A 
ATOM     24  C   UNL     1       3.129   2.660   2.541  0.00  0.00    +0.006 A 
ATOM     25  C   UNL     1       3.080   3.348   3.739  0.00  0.00    +0.004 A 
ATOM     26  C   UNL     1       3.422   4.686   3.783  0.00  0.00    +0.045 A 
ATOM     27  C   UNL     1       3.815   5.338   2.624  0.00  0.00    +0.121 A 
ATOM     28  C   UNL     1       3.870   4.644   1.424  0.00  0.00    +0.051 A 
BRANCH  27  29
ATOM     29  O   UNL     1       4.152   6.654   2.665  0.00  0.00    -0.487 OA
BRANCH  29  30
ATOM     30  C   UNL     1       4.079   7.303   3.936  0.00  0.00    +0.266 C 
BRANCH  30  31
ATOM     31  C   UNL     1       4.487   8.747   3.787  0.00  0.00    +0.008 A 
ATOM     32  C   UNL     1       4.858   9.236   2.548  0.00  0.00    +0.008 A 
ATOM     33  C   UNL     1       5.227  10.560   2.410  0.00  0.00    +0.000 A 
ATOM     34  C   UNL     1       5.235  11.395   3.513  0.00  0.00    +0.001 A 
ATOM     35  C   UNL     1       4.868  10.906   4.752  0.00  0.00    +0.020 A 
ATOM     36  C   UNL     1       4.494   9.581   4.890  0.00  0.00    +0.047 A 
ATOM     37 CL   UNL     1       4.033   8.966   6.447  0.00  0.00    -0.083 Cl
ENDBRANCH  30  31
ENDBRANCH  29  30
ENDBRANCH  27  29
ENDBRANCH   8  23
TORSDOF 4
