REMARK  Name = ZINC10066301
REMARK  10 active torsions:
REMARK  status: ('A' for Active; 'I' for Inactive)
REMARK    1  A    between atoms: C_1  and  N_61
REMARK    2  A    between atoms: C_2  and  N_61
REMARK    3  A    between atoms: C_3  and  C_4
REMARK    4  A    between atoms: C_3  and  N_61
REMARK    5  A    between atoms: C_4  and  N_5
REMARK    6  A    between atoms: C_9  and  O_17
REMARK    7  A    between atoms: C_12  and  O_15
REMARK    8  A    between atoms: O_15  and  C_16
REMARK    9  A    between atoms: O_17  and  C_18
REMARK   10  A    between atoms: C_19  and  C_21
REMARK                            x       y       z     vdW  Elec       q    Type
REMARK                         _______ _______ _______ _____ _____    ______ ____
ROOT
ATOM      1  N   UNL     1       4.484  -3.168  -0.511  0.00  0.00    -0.248 N 
ATOM      2  C   UNL     1       3.589  -2.153  -0.215  0.00  0.00    +0.169 A 
ATOM      3  N   UNL     1       3.769  -0.854  -0.272  0.00  0.00    -0.221 NA
ATOM      4  C   UNL     1       2.797   0.029   0.049  0.00  0.00    +0.125 A 
ATOM      5  C   UNL     1       2.861   1.446   0.030  0.00  0.00    +0.147 A 
ATOM      6  C   UNL     1       1.772   2.203   0.390  0.00  0.00    +0.051 A 
ATOM      7  C   UNL     1       0.578   1.614   0.782  0.00  0.00    +0.050 A 
ATOM      8  C   UNL     1       0.481   0.231   0.812  0.00  0.00    +0.136 A 
ATOM      9  C   UNL     1       1.568  -0.535   0.453  0.00  0.00    +0.086 A 
ATOM     10  S   UNL     1       1.895  -2.277   0.342  0.00  0.00    -0.048 S 
ATOM     11  C   UNL     1       4.106  -4.456  -0.390  0.00  0.00    +0.259 C 
ATOM     12  O   UNL     1       2.970  -4.727  -0.047  0.00  0.00    -0.269 OA
ENDROOT
BRANCH  11  13
ATOM     13  C   UNL     1       5.066  -5.534  -0.671  0.00  0.00    +0.122 A 
ATOM     14  C   UNL     1       6.431  -5.330  -0.505  0.00  0.00    +0.032 A 
ATOM     15  C   UNL     1       7.312  -6.392  -0.781  0.00  0.00    +0.026 A 
ATOM     16  C   UNL     1       8.758  -6.224  -0.614  0.00  0.00    -0.007 A 
ATOM     17  C   UNL     1       9.307  -5.017  -0.175  0.00  0.00    +0.009 A 
ATOM     18  C   UNL     1      10.660  -4.903  -0.034  0.00  0.00    +0.001 A 
ATOM     19  C   UNL     1      11.500  -5.974  -0.322  0.00  0.00    +0.001 A 
ATOM     20  C   UNL     1      10.995  -7.164  -0.753  0.00  0.00    +0.008 A 
ATOM     21  C   UNL     1       9.608  -7.315  -0.909  0.00  0.00    -0.017 A 
ATOM     22  C   UNL     1       9.050  -8.530  -1.353  0.00  0.00    +0.012 A 
ATOM     23  C   UNL     1       7.709  -8.672  -1.503  0.00  0.00    +0.047 A 
ATOM     24  C   UNL     1       6.819  -7.627  -1.226  0.00  0.00    +0.140 A 
ATOM     25  O   UNL     1       5.494  -7.819  -1.391  0.00  0.00    -0.422 OA
ATOM     26  C   UNL     1       4.605  -6.845  -1.137  0.00  0.00    +0.350 A 
ATOM     27  O   UNL     1       3.416  -7.050  -1.296  0.00  0.00    -0.244 OA
ENDBRANCH  11  13
BRANCH   8  28
ATOM     28  O   UNL     1      -0.680  -0.365   1.193  0.00  0.00    -0.494 OA
ATOM     29  C   UNL     1      -1.764   0.494   1.552  0.00  0.00    +0.277 C 
ENDBRANCH   8  28
BRANCH   5  30
ATOM     30  O   UNL     1       4.013   2.062  -0.349  0.00  0.00    -0.493 OA
ATOM     31  C   UNL     1       4.015   3.491  -0.347  0.00  0.00    +0.277 C 
ENDBRANCH   5  30
BRANCH   1  32
ATOM     32  C   UNL     1       5.840  -2.842  -0.957  0.00  0.00    +0.097 C 
BRANCH  32  33
ATOM     33  C   UNL     1       6.633  -2.250   0.210  0.00  0.00    -0.060 C 
BRANCH  33  36
ATOM     34  C   UNL     1       7.975  -0.841  -1.230  0.00  0.00    -0.097 C 
ATOM     35  C   UNL     1       8.853  -1.577   0.903  0.00  0.00    -0.097 C 
ATOM     36  N   UNL     1       8.004  -1.946  -0.249  0.00  0.00    +0.377 N 
ATOM     37  H   UNL     1       8.398  -2.781  -0.699  0.00  0.00    -0.083 HD
ENDBRANCH  33  36
ENDBRANCH  32  33
ENDBRANCH   1  32
TORSDOF 6
