REMARK  Name = ZINC03087704
REMARK  3 active torsions:
REMARK  status: ('A' for Active; 'I' for Inactive)
REMARK    1  A    between atoms: C_5  and  C_7
REMARK    2  A    between atoms: C_20  and  N_24
REMARK    3  A    between atoms: C_21  and  C_22
REMARK                            x       y       z     vdW  Elec       q    Type
REMARK                         _______ _______ _______ _____ _____    ______ ____
ROOT
ATOM      1  C   UNL     1       1.262  -2.185  -0.021  0.00  0.00    +0.106 C 
ATOM      2  C   UNL     1       1.236  -0.681  -0.013  0.00  0.00    +0.089 A 
ATOM      3  C   UNL     1       0.002  -0.004   0.002  0.00  0.00    +0.262 A 
ATOM      4  O   UNL     1      -1.042  -0.632   0.009  0.00  0.00    -0.267 OA
ATOM      5  N   UNL     1      -0.016   1.343   0.009  0.00  0.00    -0.275 N 
ATOM      6  H   UNL     1      -0.890   1.829   0.020  0.00  0.00    +0.173 HD
ATOM      7  C   UNL     1       1.135   2.040   0.002  0.00  0.00    +0.329 A 
ATOM      8  O   UNL     1       1.100   3.255   0.008  0.00  0.00    -0.247 OA
ATOM      9  N   UNL     1       2.324   1.412  -0.012  0.00  0.00    -0.278 N 
ATOM     10  H   UNL     1       3.168   1.948  -0.018  0.00  0.00    +0.173 HD
ATOM     11  C   UNL     1       2.389   0.039  -0.020  0.00  0.00    +0.214 A 
ATOM     12  O   UNL     1       3.591  -0.568  -0.034  0.00  0.00    -0.425 OA
ATOM     13  C   UNL     1       3.701  -1.854   0.342  0.00  0.00    +0.200 C 
ATOM     14  C   UNL     1       2.628  -2.680   0.370  0.00  0.00    +0.098 C 
ENDROOT
BRANCH   1  19
ATOM     15  C   UNL     1       1.414  -2.785  -3.745  0.00  0.00    +0.000 A 
ATOM     16  C   UNL     1       0.312  -3.598  -3.939  0.00  0.00    +0.001 A 
ATOM     17  C   UNL     1      -0.482  -3.953  -2.865  0.00  0.00    +0.014 A 
ATOM     18  C   UNL     1      -0.175  -3.496  -1.597  0.00  0.00    +0.017 A 
ATOM     19  C   UNL     1       0.927  -2.684  -1.403  0.00  0.00    -0.021 A 
ATOM     20  C   UNL     1       1.718  -2.324  -2.478  0.00  0.00    +0.005 A 
ATOM     21  I   UNL     1      -1.379  -4.035   0.031  0.00  0.00    -0.044 I 
ENDBRANCH   1  19
BRANCH  13  22
ATOM     22  N   UNL     1       4.931  -2.342   0.707  0.00  0.00    -0.328 N 
ATOM     23  H   UNL     1       5.024  -3.268   0.981  0.00  0.00    +0.145 HD
ATOM     24  H   UNL     1       5.707  -1.761   0.692  0.00  0.00    +0.145 HD
ENDBRANCH  13  22
BRANCH  14  25
ATOM     25  C   UNL     1       2.795  -4.043   0.778  0.00  0.00    +0.101 C 
ATOM     26  N   UNL     1       2.928  -5.124   1.102  0.00  0.00    -0.191 NA
ENDBRANCH  14  25
TORSDOF 3
