REMARK  Name = ZINC39665020
REMARK  7 active torsions:
REMARK  status: ('A' for Active; 'I' for Inactive)
REMARK    1  A    between atoms: C_1  and  C_2
REMARK    2  A    between atoms: C_2  and  C_4
REMARK    3  A    between atoms: C_2  and  O_29
REMARK    4  A    between atoms: C_4  and  N_5
REMARK    5  A    between atoms: C_6  and  C_8
REMARK    6  A    between atoms: C_19  and  C_21
REMARK    7  A    between atoms: O_29  and  C_30
REMARK                            x       y       z     vdW  Elec       q    Type
REMARK                         _______ _______ _______ _____ _____    ______ ____
ROOT
ATOM      1  C   UNL     1       1.520  -3.711   1.452  0.00  0.00    +0.100 C 
ATOM      2  C   UNL     1       2.357  -3.972   0.180  0.00  0.00    +0.121 C 
ATOM      3  N   UNL     1       3.732  -4.212   0.680  0.00  0.00    -0.296 N 
ATOM      4  C   UNL     1       3.541  -5.013   1.913  0.00  0.00    +0.115 C 
ATOM      5  C   UNL     1       2.298  -4.399   2.586  0.00  0.00    -0.004 C 
ATOM      6  C   UNL     1       1.447  -5.493   3.223  0.00  0.00    -0.010 C 
ATOM      7  C   UNL     1       2.220  -6.123   4.385  0.00  0.00    -0.082 C 
ATOM      8  N   UNL     1       2.545  -5.090   5.376  0.00  0.00    +0.379 N 
ATOM      9  C   UNL     1       3.440  -4.090   4.781  0.00  0.00    -0.082 C 
ATOM     10  C   UNL     1       2.719  -3.374   3.635  0.00  0.00    -0.010 C 
ATOM     11  C   UNL     1       4.893  -3.795   0.137  0.00  0.00    +0.249 C 
ATOM     12  O   UNL     1       5.949  -4.076   0.670  0.00  0.00    -0.270 OA
ATOM     13  H   UNL     1       1.696  -4.639   5.682  0.00  0.00    -0.086 HD
ATOM     14  H   UNL     1       3.001  -5.517   6.169  0.00  0.00    -0.086 HD
ENDROOT
BRANCH  11  15
ATOM     15  C   UNL     1       4.882  -2.999  -1.107  0.00  0.00    +0.073 A 
ATOM     16  C   UNL     1       4.824  -1.604  -1.047  0.00  0.00    +0.054 A 
ATOM     17  C   UNL     1       4.814  -0.866  -2.214  0.00  0.00    +0.021 A 
ATOM     18  C   UNL     1       4.862  -1.504  -3.441  0.00  0.00    +0.003 A 
ATOM     19  C   UNL     1       4.920  -2.884  -3.508  0.00  0.00    +0.021 A 
ATOM     20  C   UNL     1       4.936  -3.636  -2.350  0.00  0.00    +0.054 A 
ATOM     21 CL   UNL     1       5.016  -5.368  -2.437  0.00  0.00    -0.083 Cl
ATOM     22 CL   UNL     1       4.762  -0.801   0.491  0.00  0.00    -0.083 Cl
ENDBRANCH  11  15
BRANCH   1  24
ATOM     23  N   UNL     1       0.368  -1.746   2.417  0.00  0.00    -0.312 N 
ATOM     24  C   UNL     1       1.410  -2.231   1.713  0.00  0.00    +0.218 C 
ATOM     25  O   UNL     1       2.260  -1.476   1.291  0.00  0.00    -0.275 OA
ATOM     26  H   UNL     1      -0.312  -2.349   2.754  0.00  0.00    +0.149 HD
BRANCH  23  27
ATOM     27  C   UNL     1       0.261  -0.307   2.671  0.00  0.00    +0.148 C 
BRANCH  27  29
ATOM     28  C   UNL     1      -1.115   1.478   3.749  0.00  0.00    +0.053 C 
ATOM     29  C   UNL     1      -1.004  -0.025   3.483  0.00  0.00    +0.187 C 
BRANCH  29  30
ATOM     30  O   UNL     1      -2.149  -0.465   2.751  0.00  0.00    -0.488 OA
BRANCH  30  31
ATOM     31  C   UNL     1      -3.257  -0.782   3.470  0.00  0.00    +0.121 A 
ATOM     32  C   UNL     1      -4.366  -1.325   2.836  0.00  0.00    +0.045 A 
ATOM     33  C   UNL     1      -5.491  -1.647   3.570  0.00  0.00    +0.004 A 
ATOM     34  C   UNL     1      -5.513  -1.429   4.935  0.00  0.00    +0.000 A 
ATOM     35  C   UNL     1      -4.410  -0.889   5.570  0.00  0.00    +0.004 A 
ATOM     36  C   UNL     1      -3.280  -0.570   4.841  0.00  0.00    +0.045 A 
ENDBRANCH  30  31
ENDBRANCH  29  30
ENDBRANCH  27  29
ENDBRANCH  23  27
ENDBRANCH   1  24
TORSDOF 6
