REMARK  Name = ZINC15936396
REMARK  12 active torsions:
REMARK  status: ('A' for Active; 'I' for Inactive)
REMARK    1  A    between atoms: C_1  and  C_2
REMARK    2  A    between atoms: C_2  and  O_3
REMARK    3  A    between atoms: O_3  and  C_4
REMARK    4  A    between atoms: C_4  and  C_5
REMARK    5  A    between atoms: C_5  and  C_6
REMARK    6  A    between atoms: C_6  and  N_7
REMARK    7  A    between atoms: N_7  and  C_8
REMARK    8  A    between atoms: N_7  and  C_9
REMARK    9  A    between atoms: C_15  and  C_17
REMARK   10  A    between atoms: C_18  and  N_26
REMARK   11  A    between atoms: C_27  and  C_29
REMARK   12  A    between atoms: C_32  and  N_35
REMARK                            x       y       z     vdW  Elec       q    Type
REMARK                         _______ _______ _______ _____ _____    ______ ____
ROOT
ATOM      1  C   UNL     1      -0.331  -9.186  -6.017  0.00  0.00    +0.212 A 
ATOM      2  C   UNL     1      -0.578 -10.477  -5.637  0.00  0.00    +0.092 A 
ATOM      3  C   UNL     1      -1.964 -10.754  -6.032  0.00  0.00    +0.042 A 
ATOM      4  C   UNL     1      -2.799 -11.866  -5.927  0.00  0.00    +0.013 A 
ATOM      5  C   UNL     1      -4.078 -11.802  -6.407  0.00  0.00    +0.001 A 
ATOM      6  C   UNL     1      -4.549 -10.638  -6.997  0.00  0.00    +0.004 A 
ATOM      7  C   UNL     1      -3.739  -9.528  -7.110  0.00  0.00    +0.047 A 
ATOM      8  C   UNL     1      -2.435  -9.571  -6.628  0.00  0.00    +0.138 A 
ATOM      9  O   UNL     1      -1.437  -8.666  -6.594  0.00  0.00    -0.448 OA
ENDROOT
BRANCH   1  16
ATOM     10  C   UNL     1       1.312  -5.710  -2.810  0.00  0.00    -0.066 C 
ATOM     11  C   UNL     1       2.276  -5.771  -3.996  0.00  0.00    +0.004 C 
ATOM     12  C   UNL     1       2.490  -7.233  -4.401  0.00  0.00    +0.106 C 
ATOM     13  N   UNL     1       1.181  -7.849  -4.656  0.00  0.00    -0.295 N 
ATOM     14  C   UNL     1       0.147  -7.768  -3.615  0.00  0.00    +0.106 C 
ATOM     15  C   UNL     1      -0.040  -6.300  -3.219  0.00  0.00    +0.004 C 
ATOM     16  C   UNL     1       0.932  -8.476  -5.823  0.00  0.00    +0.284 C 
ATOM     17  O   UNL     1       1.760  -8.452  -6.715  0.00  0.00    -0.267 OA
BRANCH  10  18
ATOM     18  N   UNL     1       1.131  -4.312  -2.398  0.00  0.00    +0.380 N 
ATOM     19  C   UNL     1       2.428  -3.745  -2.006  0.00  0.00    -0.096 C 
ATOM     20  H   UNL     1       0.750  -3.781  -3.167  0.00  0.00    -0.082 HD
BRANCH  18  21
ATOM     21  C   UNL     1       0.205  -4.253  -1.258  0.00  0.00    -0.077 C 
BRANCH  21  22
ATOM     22  C   UNL     1      -0.081  -2.791  -0.909  0.00  0.00    +0.009 C 
BRANCH  22  23
ATOM     23  C   UNL     1      -1.044  -2.730   0.278  0.00  0.00    +0.158 C 
BRANCH  23  24
ATOM     24  O   UNL     1      -1.311  -1.365   0.605  0.00  0.00    -0.380 OA
BRANCH  24  26
ATOM     25  C   UNL     1      -2.418   0.298   1.966  0.00  0.00    +0.034 C 
ATOM     26  C   UNL     1      -2.205  -1.195   1.707  0.00  0.00    +0.156 C 
ENDBRANCH  24  26
ENDBRANCH  23  24
ENDBRANCH  22  23
ENDBRANCH  21  22
ENDBRANCH  18  21
ENDBRANCH  10  18
ENDBRANCH   1  16
BRANCH   2  27
ATOM     27  N   UNL     1       0.303 -11.347  -5.008  0.00  0.00    -0.278 N 
ATOM     28  C   UNL     1      -0.172 -12.347  -4.238  0.00  0.00    +0.248 C 
ATOM     29  O   UNL     1      -1.367 -12.446  -4.040  0.00  0.00    -0.270 OA
ATOM     30  H   UNL     1       1.260 -11.236  -5.122  0.00  0.00    +0.155 HD
BRANCH  28  31
ATOM     31  C   UNL     1       0.761 -13.322  -3.636  0.00  0.00    +0.037 A 
ATOM     32  C   UNL     1       2.135 -13.208  -3.858  0.00  0.00    +0.015 A 
ATOM     33  C   UNL     1       2.999 -14.123  -3.293  0.00  0.00    +0.033 A 
ATOM     34  C   UNL     1       2.508 -15.151  -2.508  0.00  0.00    +0.126 A 
ATOM     35  C   UNL     1       1.148 -15.270  -2.285  0.00  0.00    +0.033 A 
ATOM     36  C   UNL     1       0.273 -14.359  -2.839  0.00  0.00    +0.015 A 
BRANCH  34  37
ATOM     37  N   UNL     1       3.442 -16.128  -1.905  0.00  0.00    +0.056 N 
ATOM     38  O   UNL     1       4.631 -16.027  -2.099  0.00  0.00    -0.126 OA
ATOM     39  O   UNL     1       3.016 -17.028  -1.219  0.00  0.00    -0.126 OA
ENDBRANCH  34  37
ENDBRANCH  28  31
ENDBRANCH   2  27
TORSDOF 10
