REMARK  Name = ZINC63515462
REMARK  11 active torsions:
REMARK  status: ('A' for Active; 'I' for Inactive)
REMARK    1  A    between atoms: C_1  and  C_2
REMARK    2  A    between atoms: C_8  and  C_11
REMARK    3  A    between atoms: C_11  and  C_12
REMARK    4  A    between atoms: C_12  and  N_13
REMARK    5  A    between atoms: C_15  and  C_20
REMARK    6  A    between atoms: N_22  and  C_23
REMARK    7  A    between atoms: C_27  and  C_30
REMARK    8  A    between atoms: C_30  and  C_31
REMARK    9  A    between atoms: C_31  and  C_32
REMARK   10  A    between atoms: C_31  and  C_33
REMARK   11  A    between atoms: C_31  and  C_34
REMARK                            x       y       z     vdW  Elec       q    Type
REMARK                         _______ _______ _______ _____ _____    ______ ____
ROOT
ATOM      1  N   UNL     1      -3.805  -4.128   6.289  0.00  0.00    -0.300 N 
ATOM      2  C   UNL     1      -3.396  -5.008   7.391  0.00  0.00    +0.121 C 
ATOM      3  C   UNL     1      -2.754  -4.078   8.444  0.00  0.00    +0.101 C 
ATOM      4  C   UNL     1      -3.441  -2.728   8.134  0.00  0.00    +0.110 C 
ATOM      5  C   UNL     1      -3.839  -2.842   6.678  0.00  0.00    +0.216 C 
ATOM      6  O   UNL     1      -4.146  -1.909   5.967  0.00  0.00    -0.276 OA
ENDROOT
BRANCH   3   7
ATOM      7  C   UNL     1      -3.079  -4.541   9.841  0.00  0.00    +0.220 C 
ATOM      8  O   UNL     1      -3.764  -5.528  10.009  0.00  0.00    -0.275 OA
ATOM      9  N   UNL     1      -2.609  -3.858  10.904  0.00  0.00    -0.284 N 
ATOM     10  H   UNL     1      -2.061  -3.069  10.769  0.00  0.00    +0.152 HD
BRANCH   9  11
ATOM     11  C   UNL     1      -2.925  -4.308  12.262  0.00  0.00    +0.275 C 
ATOM     12  N   UNL     1      -2.043  -5.422  12.680  0.00  0.00    -0.157 NA
ATOM     13  N   UNL     1      -1.125  -5.230  13.452  0.00  0.00    -0.175 NA
ATOM     14  C   UNL     1      -0.864  -3.877  13.995  0.00  0.00    +0.189 C 
ATOM     15  S   UNL     1      -2.445  -3.041  13.520  0.00  0.00    -0.085 S 
BRANCH  14  16
ATOM     16  C   UNL     1      -0.685  -3.911  15.514  0.00  0.00    +0.046 C 
BRANCH  16  17
ATOM     17  C   UNL     1      -0.267  -2.525  16.009  0.00  0.00    -0.035 C 
ATOM     18  C   UNL     1      -1.343  -1.503  15.638  0.00  0.00    +0.011 C 
ATOM     19  C   UNL     1      -0.096  -2.557  17.530  0.00  0.00    +0.011 C 
ATOM     20  C   UNL     1       1.059  -2.129  15.356  0.00  0.00    +0.011 C 
ENDBRANCH  16  17
ENDBRANCH  14  16
ENDBRANCH   9  11
ENDBRANCH   3   7
BRANCH   1  21
ATOM     21  C   UNL     1      -4.128  -4.592   4.938  0.00  0.00    +0.112 C 
BRANCH  21  22
ATOM     22  C   UNL     1      -2.859  -4.600   4.084  0.00  0.00    +0.052 C 
BRANCH  22  30
ATOM     23  C   UNL     1      -3.962  -0.881   0.004  0.00  0.00    +0.044 C 
ATOM     24  C   UNL     1      -3.876  -2.372   0.203  0.00  0.00    -0.050 A 
ATOM     25  C   UNL     1      -4.125  -3.221  -0.883  0.00  0.00    +0.005 A 
ATOM     26  C   UNL     1      -4.068  -4.567  -0.786  0.00  0.00    +0.026 A 
ATOM     27  C   UNL     1      -3.745  -5.184   0.454  0.00  0.00    +0.043 A 
ATOM     28  N   UNL     1      -3.630  -6.444   0.797  0.00  0.00    -0.380 N 
ATOM     29  C   UNL     1      -3.275  -6.511   2.220  0.00  0.00    +0.144 C 
ATOM     30  C   UNL     1      -3.192  -5.077   2.693  0.00  0.00    -0.040 C 
ATOM     31  C   UNL     1      -3.477  -4.309   1.617  0.00  0.00    -0.001 A 
ATOM     32  C   UNL     1      -3.554  -2.856   1.425  0.00  0.00    +0.013 A 
ATOM     33  H   UNL     1      -3.758  -7.205   0.210  0.00  0.00    +0.160 HD
ENDBRANCH  22  30
ENDBRANCH  21  22
ENDBRANCH   1  21
TORSDOF 7
