REMARK  Name = ZINC04164015
REMARK  3 active torsions:
REMARK  status: ('A' for Active; 'I' for Inactive)
REMARK    1  A    between atoms: C_3  and  N_31
REMARK    2  A    between atoms: C_6  and  C_7
REMARK    3  A    between atoms: C_18  and  C_23
REMARK                            x       y       z     vdW  Elec       q    Type
REMARK                         _______ _______ _______ _____ _____    ______ ____
ROOT
ATOM      1  C   UNL     1       0.143  -0.184   0.036  0.00  0.00    +0.105 C 
ATOM      2  C   UNL     1       0.320   1.298   0.314  0.00  0.00    +0.029 C 
ATOM      3  C   UNL     1       0.162   1.762   1.769  0.00  0.00    +0.033 C 
ATOM      4  C   UNL     1       1.085   2.981   1.804  0.00  0.00    -0.030 C 
ATOM      5  C   UNL     1       2.030   2.862   0.880  0.00  0.00    -0.023 C 
ATOM      6  C   UNL     1       1.850   1.564   0.181  0.00  0.00    +0.049 C 
ATOM      7  C   UNL     1       2.217   1.385  -1.241  0.00  0.00    -0.019 A 
ATOM      8  C   UNL     1       3.193   2.135  -1.849  0.00  0.00    +0.019 A 
ATOM      9  C   UNL     1       3.527   1.903  -3.186  0.00  0.00    +0.037 A 
ATOM     10  C   UNL     1       2.862   0.904  -3.902  0.00  0.00    +0.015 A 
ATOM     11  C   UNL     1       1.881   0.159  -3.294  0.00  0.00    +0.024 A 
ATOM     12  C   UNL     1       1.540   0.390  -1.962  0.00  0.00    +0.031 A 
ATOM     13  N   UNL     1       0.529  -0.372  -1.379  0.00  0.00    -0.336 N 
ATOM     14  H   UNL     1       0.069  -1.040  -1.912  0.00  0.00    +0.147 HD
ENDROOT
BRANCH   9  15
ATOM     15  C   UNL     1       4.577   2.710  -3.838  0.00  0.00    +0.247 C 
ATOM     16  O   UNL     1       4.557   3.922  -3.746  0.00  0.00    -0.270 OA
ATOM     17  N   UNL     1       5.557   2.103  -4.536  0.00  0.00    -0.293 N 
ATOM     18  C   UNL     1       6.656   2.879  -5.130  0.00  0.00    +0.136 C 
ATOM     19  C   UNL     1       7.984   2.228  -4.711  0.00  0.00    +0.179 C 
ATOM     20  O   UNL     1       7.945   0.835  -5.032  0.00  0.00    -0.377 OA
ATOM     21  C   UNL     1       6.934   0.102  -4.337  0.00  0.00    +0.179 C 
ATOM     22  C   UNL     1       5.556   0.644  -4.732  0.00  0.00    +0.136 C 
ENDBRANCH   9  15
BRANCH   1  28
ATOM     23  C   UNL     1      -2.232  -0.326  -0.744  0.00  0.00    +0.008 A 
ATOM     24  C   UNL     1      -3.550  -0.697  -0.558  0.00  0.00    +0.033 A 
ATOM     25  C   UNL     1      -3.935  -1.316   0.617  0.00  0.00    +0.126 A 
ATOM     26  C   UNL     1      -3.000  -1.569   1.603  0.00  0.00    +0.033 A 
ATOM     27  C   UNL     1      -1.681  -1.203   1.415  0.00  0.00    +0.008 A 
ATOM     28  C   UNL     1      -1.296  -0.584   0.240  0.00  0.00    -0.027 A 
BRANCH  25  29
ATOM     29  N   UNL     1      -5.348  -1.708   0.818  0.00  0.00    +0.056 N 
ATOM     30  O   UNL     1      -5.687  -2.253   1.853  0.00  0.00    -0.126 OA
ATOM     31  O   UNL     1      -6.172  -1.485  -0.051  0.00  0.00    -0.126 OA
ENDBRANCH  25  29
ENDBRANCH   1  28
TORSDOF 3
