REMARK  Name = ZINC37064038
REMARK  4 active torsions:
REMARK  status: ('A' for Active; 'I' for Inactive)
REMARK    1  A    between atoms: C_1  and  C_2
REMARK    2  A    between atoms: N_8  and  S_9
REMARK    3  A    between atoms: S_9  and  C_12
REMARK    4  A    between atoms: C_13  and  N_20
REMARK                            x       y       z     vdW  Elec       q    Type
REMARK                         _______ _______ _______ _____ _____    ______ ____
ROOT
ATOM      1  S   UNL     1       0.077  -5.272   2.067  0.00  0.00    +0.103 S 
ATOM      2  O   UNL     1      -1.117  -5.907   1.632  0.00  0.00    -0.146 OA
ATOM      3  O   UNL     1       1.363  -5.685   1.628  0.00  0.00    -0.146 OA
ENDROOT
BRANCH   1  11
ATOM      4  C   UNL     1      -0.393  -0.135  -1.638  0.00  0.00    +0.044 C 
ATOM      5  C   UNL     1      -0.261  -1.585  -1.250  0.00  0.00    -0.046 A 
ATOM      6  C   UNL     1      -0.174  -2.577  -2.241  0.00  0.00    +0.021 A 
ATOM      7  C   UNL     1      -0.056  -3.877  -1.898  0.00  0.00    +0.084 A 
ATOM      8  N   UNL     1      -0.019  -4.251  -0.589  0.00  0.00    -0.345 N 
ATOM      9  C   UNL     1      -0.102  -3.306   0.406  0.00  0.00    +0.153 A 
ATOM     10  C   UNL     1      -0.221  -1.939   0.062  0.00  0.00    +0.051 A 
ATOM     11  N   UNL     1      -0.067  -3.671   1.671  0.00  0.00    -0.111 NA
ATOM     12  H   UNL     1       0.065  -5.189  -0.357  0.00  0.00    +0.167 HD
ENDBRANCH   1  11
BRANCH   1  13
ATOM     13  C   UNL     1       0.089  -5.373   3.826  0.00  0.00    +0.147 A 
ATOM     14  C   UNL     1       1.292  -5.311   4.518  0.00  0.00    +0.054 A 
ATOM     15  C   UNL     1       1.298  -5.391   5.905  0.00  0.00    +0.040 A 
ATOM     16  C   UNL     1       0.107  -5.532   6.592  0.00  0.00    +0.021 A 
ATOM     17  C   UNL     1      -1.089  -5.595   5.901  0.00  0.00    +0.032 A 
ATOM     18  C   UNL     1      -1.098  -5.510   4.520  0.00  0.00    +0.048 A 
ATOM     19 BR   UNL     1      -2.737  -5.587   3.580  0.00  0.00    -0.048 Br
ATOM     20 BR   UNL     1       0.114  -5.641   8.480  0.00  0.00    -0.050 Br
BRANCH  14  21
ATOM     21  N   UNL     1       2.494  -5.169   3.821  0.00  0.00    -0.356 N 
ATOM     22  H   UNL     1       2.494  -4.792   2.927  0.00  0.00    +0.142 HD
ATOM     23  H   UNL     1       3.328  -5.447   4.230  0.00  0.00    +0.142 HD
ENDBRANCH  14  21
ENDBRANCH   1  13
TORSDOF 3
