REMARK  Name = ZINC21254727
REMARK  8 active torsions:
REMARK  status: ('A' for Active; 'I' for Inactive)
REMARK    1  A    between atoms: C_1  and  C_2
REMARK    2  A    between atoms: C_2  and  C_3
REMARK    3  A    between atoms: C_2  and  C_4
REMARK    4  A    between atoms: C_4  and  O_5
REMARK    5  A    between atoms: O_5  and  C_6
REMARK    6  A    between atoms: C_9  and  C_12
REMARK    7  A    between atoms: C_17  and  C_27
REMARK    8  A    between atoms: C_32  and  O_33
REMARK                            x       y       z     vdW  Elec       q    Type
REMARK                         _______ _______ _______ _____ _____    ______ ____
ROOT
ATOM      1  C   UNL     1       1.755  -2.392   4.105  0.00  0.00    +0.032 C 
ATOM      2  C   UNL     1       2.969  -1.500   4.357  0.00  0.00    +0.059 C 
ATOM      3  C   UNL     1       2.628  -0.056   4.030  0.00  0.00    +0.017 C 
ATOM      4  C   UNL     1       1.758   0.233   3.049  0.00  0.00    +0.037 C 
ATOM      5  C   UNL     1       1.349   1.617   2.605  0.00  0.00    +0.139 C 
ATOM      6  N   UNL     1       1.770   2.678   3.496  0.00  0.00    -0.331 N 
ATOM      7  C   UNL     1       3.118   2.961   3.698  0.00  0.00    +0.049 A 
ATOM      8  C   UNL     1       3.685   4.142   3.248  0.00  0.00    +0.025 A 
ATOM      9  C   UNL     1       5.050   4.332   3.375  0.00  0.00    +0.002 A 
ATOM     10  C   UNL     1       5.843   3.353   3.946  0.00  0.00    +0.002 A 
ATOM     11  C   UNL     1       5.276   2.180   4.415  0.00  0.00    +0.025 A 
ATOM     12  C   UNL     1       3.909   1.997   4.305  0.00  0.00    +0.052 A 
ATOM     13  N   UNL     1       3.269   0.864   4.795  0.00  0.00    -0.316 N 
ATOM     14  C   UNL     1       1.126  -0.808   2.328  0.00  0.00    +0.163 C 
ATOM     15  O   UNL     1       0.354  -0.518   1.435  0.00  0.00    -0.292 OA
ATOM     16  C   UNL     1       1.375  -2.256   2.626  0.00  0.00    +0.088 C 
ATOM     17  H   UNL     1       1.019   3.278   4.030  0.00  0.00    +0.147 HD
ATOM     18  H   UNL     1       3.307   0.740   5.888  0.00  0.00    +0.152 HD
ENDROOT
BRANCH   5  19
ATOM     19  C   UNL     1       1.939   1.876   1.242  0.00  0.00    +0.020 A 
ATOM     20  C   UNL     1       2.974   1.088   0.777  0.00  0.00    +0.029 A 
ATOM     21  C   UNL     1       3.520   1.329  -0.472  0.00  0.00    +0.042 A 
ATOM     22  C   UNL     1       3.026   2.355  -1.258  0.00  0.00    +0.023 A 
ATOM     23  C   UNL     1       1.988   3.141  -0.798  0.00  0.00    +0.047 A 
ATOM     24  C   UNL     1       1.440   2.901   0.453  0.00  0.00    +0.122 A 
ATOM     25 CL   UNL     1       4.825   0.342  -1.052  0.00  0.00    -0.084 Cl
BRANCH  24  26
ATOM     26  O   UNL     1       0.418   3.674   0.908  0.00  0.00    -0.506 OA
ATOM     27  H   UNL     1       0.022   4.487   0.281  0.00  0.00    +0.292 HD
ENDBRANCH  24  26
ENDBRANCH   5  19
BRANCH   1  31
ATOM     28  C   UNL     1       2.737  -6.458   4.980  0.00  0.00    +0.121 A 
ATOM     29  C   UNL     1       1.691  -5.837   5.647  0.00  0.00    +0.046 A 
ATOM     30  C   UNL     1       1.376  -4.522   5.363  0.00  0.00    +0.007 A 
ATOM     31  C   UNL     1       2.101  -3.826   4.414  0.00  0.00    -0.043 A 
ATOM     32  C   UNL     1       3.141  -4.445   3.744  0.00  0.00    +0.007 A 
ATOM     33  C   UNL     1       3.464  -5.757   4.029  0.00  0.00    +0.046 A 
BRANCH  28  34
ATOM     34  O   UNL     1       3.050  -7.751   5.259  0.00  0.00    -0.492 OA
BRANCH  34  35
ATOM     35  C   UNL     1       4.139  -8.326   4.534  0.00  0.00    +0.232 C 
BRANCH  35  37
ATOM     36  C   UNL     1       3.113 -10.603   4.592  0.00  0.00    +0.010 C 
ATOM     37  C   UNL     1       4.340  -9.776   4.980  0.00  0.00    +0.020 C 
ATOM     38  C   UNL     1       5.581 -10.352   4.296  0.00  0.00    +0.010 C 
ENDBRANCH  35  37
ENDBRANCH  34  35
ENDBRANCH  28  34
ENDBRANCH   1  31
TORSDOF 6
