REMARK  Name = ZINC14741527
REMARK  8 active torsions:
REMARK  status: ('A' for Active; 'I' for Inactive)
REMARK    1  A    between atoms: C_2  and  C_3
REMARK    2  A    between atoms: C_3  and  N_4
REMARK    3  A    between atoms: C_7  and  C_9
REMARK    4  A    between atoms: C_19  and  N_62
REMARK    5  A    between atoms: C_23  and  C_24
REMARK    6  A    between atoms: C_23  and  N_62
REMARK    7  A    between atoms: C_26  and  C_27
REMARK    8  A    between atoms: C_26  and  N_62
REMARK                            x       y       z     vdW  Elec       q    Type
REMARK                         _______ _______ _______ _____ _____    ______ ____
ROOT
ATOM      1  N   UNL     1       0.367   3.269   0.308  0.00  0.00    -0.264 N 
ATOM      2  C   UNL     1       0.834   2.011   0.240  0.00  0.00    +0.043 A 
ATOM      3  C   UNL     1      -0.239   1.191   0.121  0.00  0.00    +0.004 A 
ATOM      4  C   UNL     1      -1.367   2.028   0.120  0.00  0.00    +0.151 A 
ATOM      5  N   UNL     1      -0.920   3.267   0.241  0.00  0.00    -0.166 NA
ATOM      6  C   UNL     1      -0.161  -0.307   0.011  0.00  0.00    +0.024 C 
ATOM      7  C   UNL     1       1.280  -0.689  -0.353  0.00  0.00    -0.063 C 
ATOM      8  C   UNL     1       2.252   0.025   0.591  0.00  0.00    -0.009 C 
ATOM      9  C   UNL     1       2.260   1.528   0.282  0.00  0.00    +0.054 C 
ENDROOT
BRANCH   4  10
ATOM     10  C   UNL     1      -2.779   1.607   0.007  0.00  0.00    +0.267 C 
ATOM     11  O   UNL     1      -3.062   0.425   0.003  0.00  0.00    -0.268 OA
ATOM     12  N   UNL     1      -3.752   2.534  -0.091  0.00  0.00    -0.296 N 
ATOM     13  C   UNL     1      -3.377   3.926  -0.197  0.00  0.00    +0.108 C 
ATOM     14  C   UNL     1      -3.252   4.545   1.211  0.00  0.00    +0.019 C 
ATOM     15  C   UNL     1      -4.581   4.698   1.821  0.00  0.00    +0.002 C 
ATOM     16  C   UNL     1      -5.323   3.384   2.049  0.00  0.00    +0.002 C 
ATOM     17  C   UNL     1      -6.050   2.995   0.786  0.00  0.00    +0.019 C 
ATOM     18  C   UNL     1      -5.159   2.086  -0.079  0.00  0.00    +0.108 C 
ENDBRANCH   4  10
BRANCH   7  19
ATOM     19  N   UNL     1       1.428  -2.155  -0.237  0.00  0.00    +0.386 N 
ATOM     20  H   UNL     1       0.672  -2.609  -0.763  0.00  0.00    -0.081 HD
BRANCH  19  21
ATOM     21  C   UNL     1       2.727  -2.577  -0.801  0.00  0.00    -0.051 C 
BRANCH  21  22
ATOM     22  C   UNL     1       2.708  -2.346  -2.291  0.00  0.00    -0.053 C 
ATOM     23  C   UNL     1       3.646  -1.625  -2.853  0.00  0.00    +0.002 C 
ENDBRANCH  21  22
ENDBRANCH  19  21
BRANCH  19  24
ATOM     24  C   UNL     1       1.338  -2.561   1.181  0.00  0.00    -0.051 C 
BRANCH  24  25
ATOM     25  C   UNL     1       1.361  -4.066   1.260  0.00  0.00    -0.053 C 
ATOM     26  C   UNL     1       2.241  -4.668   2.021  0.00  0.00    +0.002 C 
ENDBRANCH  24  25
ENDBRANCH  19  24
ENDBRANCH   7  19
BRANCH   1  27
ATOM     27  C   UNL     1       1.199   4.468   0.440  0.00  0.00    +0.170 C 
BRANCH  27  29
ATOM     28  C   UNL     1       1.288   6.223  -1.256  0.00  0.00    +0.006 C 
ATOM     29  C   UNL     1       1.558   4.983  -0.930  0.00  0.00    -0.012 C 
ENDBRANCH  27  29
ENDBRANCH   1  27
TORSDOF 8
