REMARK  Name = ZINC35852051
REMARK  3 active torsions:
REMARK  status: ('A' for Active; 'I' for Inactive)
REMARK    1  A    between atoms: C_1  and  C_2
REMARK    2  A    between atoms: C_7  and  C_8
REMARK    3  A    between atoms: N_25  and  C_28
REMARK                            x       y       z     vdW  Elec       q    Type
REMARK                         _______ _______ _______ _____ _____    ______ ____
ROOT
ATOM      1  C   UNL     1       0.717   1.594  -0.131  0.00  0.00    +0.044 C 
ATOM      2  C   UNL     1       0.615   0.092  -0.072  0.00  0.00    -0.046 A 
ATOM      3  C   UNL     1       0.338  -0.625  -1.222  0.00  0.00    +0.004 A 
ATOM      4  C   UNL     1       0.245  -2.004  -1.168  0.00  0.00    +0.005 A 
ATOM      5  C   UNL     1       0.428  -2.661   0.029  0.00  0.00    -0.027 A 
ATOM      6  C   UNL     1       0.709  -1.951   1.192  0.00  0.00    +0.039 A 
ATOM      7  C   UNL     1       0.806  -0.562   1.127  0.00  0.00    -0.026 A 
ATOM      8  C   UNL     1       1.114   0.228   2.373  0.00  0.00    +0.046 C 
ATOM      9  N   UNL     1       0.854  -2.827   2.269  0.00  0.00    -0.286 N 
ATOM     10  C   UNL     1       0.684  -4.112   1.906  0.00  0.00    +0.212 C 
ATOM     11  O   UNL     1       0.751  -5.084   2.628  0.00  0.00    -0.277 OA
ATOM     12  C   UNL     1       0.394  -4.109   0.429  0.00  0.00    +0.053 C 
ATOM     13  C   UNL     1       1.433  -4.929  -0.344  0.00  0.00    +0.089 C 
ATOM     14  C   UNL     1       0.628  -5.607  -1.487  0.00  0.00    +0.074 C 
ATOM     15  C   UNL     1      -0.821  -5.120  -1.305  0.00  0.00    -0.054 C 
ATOM     16  N   UNL     1      -0.915  -4.718   0.138  0.00  0.00    +0.395 N 
ATOM     17  C   UNL     1      -1.040  -5.990   0.888  0.00  0.00    -0.076 C 
ATOM     18  C   UNL     1      -1.929  -6.891   0.008  0.00  0.00    -0.020 C 
ATOM     19  C   UNL     1      -1.780  -6.316  -1.455  0.00  0.00    -0.016 C 
ATOM     20  C   UNL     1       0.724  -7.079  -1.156  0.00  0.00    +0.228 C 
ATOM     21  O   UNL     1       0.225  -7.976  -1.802  0.00  0.00    -0.275 OA
ATOM     22  N   UNL     1       1.444  -7.238  -0.040  0.00  0.00    -0.210 N 
ATOM     23  C   UNL     1       1.904  -6.088   0.505  0.00  0.00    +0.229 C 
ATOM     24  O   UNL     1       2.579  -5.993   1.508  0.00  0.00    -0.275 OA
ATOM     25  H   UNL     1       1.053  -2.542   3.175  0.00  0.00    +0.155 HD
ATOM     26  H   UNL     1      -1.681  -4.084   0.309  0.00  0.00    -0.079 HD
ENDROOT
BRANCH  22  27
ATOM     27  C   UNL     1       1.708  -8.496   0.520  0.00  0.00    +0.044 A 
ATOM     28  C   UNL     1       2.522  -9.399  -0.150  0.00  0.00    +0.027 A 
ATOM     29  C   UNL     1       2.781 -10.637   0.403  0.00  0.00    +0.040 A 
ATOM     30  C   UNL     1       2.229 -10.980   1.625  0.00  0.00    +0.124 A 
ATOM     31  C   UNL     1       1.416 -10.081   2.296  0.00  0.00    +0.040 A 
ATOM     32  C   UNL     1       1.160  -8.839   1.749  0.00  0.00    +0.027 A 
ATOM     33  F   UNL     1       2.483 -12.192   2.165  0.00  0.00    -0.205 F 
ENDBRANCH  22  27
TORSDOF 1
