REMARK  Name = ZINC16800573
REMARK  6 active torsions:
REMARK  status: ('A' for Active; 'I' for Inactive)
REMARK    1  A    between atoms: C_1  and  C_2
REMARK    2  A    between atoms: C_2  and  C_4
REMARK    3  A    between atoms: C_2  and  S_16
REMARK    4  A    between atoms: N_6  and  C_7
REMARK    5  A    between atoms: N_6  and  C_8
REMARK    6  A    between atoms: S_16  and  C_17
REMARK                            x       y       z     vdW  Elec       q    Type
REMARK                         _______ _______ _______ _____ _____    ______ ____
ROOT
ATOM      1  C   UNL     1      -3.535   1.589  -0.076  0.00  0.00    +0.192 A 
ATOM      2  N   UNL     1      -2.357   0.976  -0.081  0.00  0.00    -0.207 NA
ATOM      3  C   UNL     1      -1.218   1.641   0.017  0.00  0.00    +0.129 A 
ATOM      4  C   UNL     1      -1.249   3.059   0.138  0.00  0.00    +0.051 A 
ATOM      5  C   UNL     1      -0.126   3.991   0.266  0.00  0.00    -0.025 A 
ATOM      6  C   UNL     1      -0.427   5.301   0.365  0.00  0.00    -0.004 A 
ATOM      7  S   UNL     1      -2.196   5.377   0.283  0.00  0.00    -0.073 S 
ATOM      8  C   UNL     1      -2.531   3.642   0.129  0.00  0.00    +0.115 A 
ATOM      9  N   UNL     1      -3.623   2.909   0.027  0.00  0.00    -0.214 NA
ATOM     10  C   UNL     1       0.532   6.444   0.504  0.00  0.00    +0.043 C 
ATOM     11  C   UNL     1       1.906   5.880   0.893  0.00  0.00    +0.005 C 
ATOM     12  C   UNL     1       2.235   4.707  -0.034  0.00  0.00    +0.005 C 
ATOM     13  C   UNL     1       1.326   3.520   0.288  0.00  0.00    +0.037 C 
ATOM     14  N   UNL     1      -0.011   0.966   0.007  0.00  0.00    -0.343 N 
ATOM     15  H   UNL     1       0.029   0.049  -0.307  0.00  0.00    +0.144 HD
ATOM     16  H   UNL     1       0.796   1.410   0.311  0.00  0.00    +0.144 HD
ENDROOT
BRANCH   1  17
ATOM     17  S   UNL     1      -5.008   0.632  -0.211  0.00  0.00    -0.073 S 
BRANCH  17  19
ATOM     18  C   UNL     1      -3.585  -1.364   0.994  0.00  0.00    +0.029 C 
ATOM     19  C   UNL     1      -4.295  -1.028  -0.318  0.00  0.00    +0.137 C 
BRANCH  19  20
ATOM     20  C   UNL     1      -5.393  -2.031  -0.566  0.00  0.00    +0.229 C 
ATOM     21  O   UNL     1      -6.543  -1.747  -0.307  0.00  0.00    -0.274 OA
ATOM     22  N   UNL     1      -5.096  -3.243  -1.076  0.00  0.00    -0.299 N 
ATOM     23  C   UNL     1      -3.706  -3.585  -1.389  0.00  0.00    +0.132 C 
BRANCH  22  24
ATOM     24  C   UNL     1      -6.163  -4.217  -1.317  0.00  0.00    +0.098 C 
ATOM     25  C   UNL     1      -6.203  -4.585  -2.810  0.00  0.00    +0.046 C 
ATOM     26  C   UNL     1      -7.094  -5.832  -3.022  0.00  0.00    +0.168 C 
ATOM     27  S   UNL     1      -6.940  -6.717  -1.417  0.00  0.00    -0.029 S 
ATOM     28  O   UNL     1      -8.217  -6.773  -0.796  0.00  0.00    -0.174 OA
ATOM     29  O   UNL     1      -6.207  -7.918  -1.620  0.00  0.00    -0.174 OA
ATOM     30  C   UNL     1      -5.882  -5.514  -0.506  0.00  0.00    +0.188 C 
ENDBRANCH  22  24
ENDBRANCH  19  20
ENDBRANCH  17  19
ENDBRANCH   1  17
TORSDOF 4
