REMARK  Name = ZINC06196032
REMARK  14 active torsions:
REMARK  status: ('A' for Active; 'I' for Inactive)
REMARK    1  A    between atoms: C_1  and  C_2
REMARK    2  A    between atoms: C_2  and  O_3
REMARK    3  A    between atoms: O_3  and  C_4
REMARK    4  A    between atoms: C_6  and  C_11
REMARK    5  A    between atoms: C_9  and  O_10
REMARK    6  A    between atoms: C_16  and  C_21
REMARK    7  A    between atoms: C_24  and  O_29
REMARK    8  A    between atoms: C_25  and  O_27
REMARK    9  A    between atoms: O_27  and  C_28
REMARK   10  A    between atoms: O_29  and  C_30
REMARK   11  A    between atoms: C_32  and  C_42
REMARK   12  A    between atoms: C_33  and  C_34
REMARK   13  A    between atoms: C_34  and  O_36
REMARK   14  A    between atoms: O_36  and  C_37
REMARK                            x       y       z     vdW  Elec       q    Type
REMARK                         _______ _______ _______ _____ _____    ______ ____
ROOT
ATOM      1  C   UNL     1      -0.045   0.112  -0.254  0.00  0.00    +0.073 C 
ATOM      2  C   UNL     1       0.040   1.594   0.011  0.00  0.00    +0.112 C 
ATOM      3  C   UNL     1       1.231   2.187   0.237  0.00  0.00    +0.031 C 
ATOM      4  C   UNL     1       1.322   3.667   0.519  0.00  0.00    +0.060 C 
ATOM      5  C   UNL     1       0.194   4.399  -0.209  0.00  0.00    +0.032 C 
ATOM      6  C   UNL     1      -1.146   3.822   0.260  0.00  0.00    +0.083 C 
ATOM      7  C   UNL     1      -1.153   2.339   0.009  0.00  0.00    +0.143 C 
ATOM      8  O   UNL     1      -2.208   1.774  -0.195  0.00  0.00    -0.297 OA
ATOM      9  N   UNL     1       2.387   1.454   0.216  0.00  0.00    -0.260 NA
ATOM     10  C   UNL     1       2.428   0.233  -0.397  0.00  0.00    +0.049 C 
ATOM     11  C   UNL     1       1.293  -0.441  -0.648  0.00  0.00    +0.066 C 
ATOM     12  C   UNL     1       3.753  -0.358  -0.801  0.00  0.00    +0.066 C 
ENDROOT
BRANCH   1  15
ATOM     13  C   UNL     1      -2.132  -1.964   2.113  0.00  0.00    +0.162 A 
ATOM     14  C   UNL     1      -1.695  -1.317   0.969  0.00  0.00    +0.053 A 
ATOM     15  C   UNL     1      -0.521  -0.587   0.993  0.00  0.00    -0.035 A 
ATOM     16  C   UNL     1       0.213  -0.491   2.160  0.00  0.00    +0.008 A 
ATOM     17  C   UNL     1      -0.221  -1.130   3.307  0.00  0.00    +0.049 A 
ATOM     18  C   UNL     1      -1.393  -1.867   3.288  0.00  0.00    +0.158 A 
BRANCH  18  19
ATOM     19  O   UNL     1      -1.822  -2.496   4.416  0.00  0.00    -0.503 OA
ATOM     20  H   UNL     1      -2.402  -1.957   4.970  0.00  0.00    +0.292 HD
ENDBRANCH  18  19
BRANCH  13  21
ATOM     21  O   UNL     1      -3.284  -2.687   2.090  0.00  0.00    -0.489 OA
BRANCH  21  23
ATOM     22  C   UNL     1      -5.250  -3.593   1.016  0.00  0.00    +0.048 C 
ATOM     23  C   UNL     1      -3.990  -2.741   0.849  0.00  0.00    +0.226 C 
ENDBRANCH  21  23
ENDBRANCH  13  21
ENDBRANCH   1  15
BRANCH   5  24
ATOM     24  C   UNL     1       0.253   5.870   0.116  0.00  0.00    -0.040 A 
ATOM     25  C   UNL     1       0.124   6.293   1.426  0.00  0.00    +0.008 A 
ATOM     26  C   UNL     1       0.183   7.640   1.729  0.00  0.00    +0.049 A 
ATOM     27  C   UNL     1       0.361   8.571   0.718  0.00  0.00    +0.161 A 
ATOM     28  C   UNL     1       0.485   8.146  -0.601  0.00  0.00    +0.162 A 
ATOM     29  C   UNL     1       0.431   6.793  -0.897  0.00  0.00    +0.053 A 
BRANCH  28  30
ATOM     30  O   UNL     1       0.660   9.055  -1.596  0.00  0.00    -0.491 OA
ATOM     31  C   UNL     1       0.781   8.546  -2.926  0.00  0.00    +0.277 C 
ENDBRANCH  28  30
BRANCH  27  32
ATOM     32  O   UNL     1       0.413   9.897   1.015  0.00  0.00    -0.491 OA
ATOM     33  C   UNL     1       0.278  10.260   2.390  0.00  0.00    +0.277 C 
ENDBRANCH  27  32
ENDBRANCH   5  24
BRANCH  11  34
ATOM     34  C   UNL     1       1.362  -1.698  -1.293  0.00  0.00    +0.338 C 
ATOM     35  O   UNL     1       2.424  -2.103  -1.727  0.00  0.00    -0.245 OA
BRANCH  34  36
ATOM     36  O   UNL     1       0.248  -2.449  -1.428  0.00  0.00    -0.458 OA
BRANCH  36  37
ATOM     37  C   UNL     1       0.391  -3.708  -2.089  0.00  0.00    +0.177 C 
ATOM     38  C   UNL     1       0.097  -3.549  -3.596  0.00  0.00    +0.044 C 
ATOM     39  C   UNL     1      -0.640  -4.856  -3.979  0.00  0.00    +0.004 C 
ATOM     40  C   UNL     1      -1.526  -5.125  -2.737  0.00  0.00    +0.004 C 
ATOM     41  C   UNL     1      -0.642  -4.710  -1.544  0.00  0.00    +0.044 C 
ENDBRANCH  36  37
ENDBRANCH  34  36
ENDBRANCH  11  34
TORSDOF 10
