REMARK  Name = ZINC65179705
REMARK  6 active torsions:
REMARK  status: ('A' for Active; 'I' for Inactive)
REMARK    1  A    between atoms: C_1  and  C_2
REMARK    2  A    between atoms: C_2  and  C_3
REMARK    3  A    between atoms: C_2  and  C_4
REMARK    4  A    between atoms: C_4  and  N_5
REMARK    5  A    between atoms: N_8  and  N_9
REMARK    6  A    between atoms: C_10  and  C_12
REMARK                            x       y       z     vdW  Elec       q    Type
REMARK                         _______ _______ _______ _____ _____    ______ ____
ROOT
ATOM      1  N   UNL     1      -1.435   0.569   4.652  0.00  0.00    -0.228 N 
ATOM      2  C   UNL     1      -2.125   0.910   5.758  0.00  0.00    +0.276 C 
ATOM      3  O   UNL     1      -1.705   0.600   6.857  0.00  0.00    -0.267 OA
ATOM      4  H   UNL     1      -1.769   0.817   3.776  0.00  0.00    +0.173 HD
ENDROOT
BRANCH   2   5
ATOM      5  C   UNL     1      -3.385   1.658   5.637  0.00  0.00    +0.104 A 
ATOM      6  C   UNL     1      -4.165   2.062   6.674  0.00  0.00    +0.041 A 
ATOM      7  C   UNL     1      -5.280   2.747   6.134  0.00  0.00    +0.002 A 
ATOM      8  C   UNL     1      -6.394   3.373   6.708  0.00  0.00    +0.030 A 
ATOM      9  C   UNL     1      -7.328   3.965   5.907  0.00  0.00    +0.042 A 
ATOM     10  C   UNL     1      -7.184   3.953   4.524  0.00  0.00    +0.022 A 
ATOM     11  C   UNL     1      -6.098   3.343   3.937  0.00  0.00    +0.027 A 
ATOM     12  C   UNL     1      -5.132   2.733   4.734  0.00  0.00    +0.047 A 
ATOM     13  N   UNL     1      -3.963   2.066   4.450  0.00  0.00    -0.351 N 
ATOM     14  H   UNL     1      -3.605   1.907   3.563  0.00  0.00    +0.166 HD
ATOM     15 CL   UNL     1      -8.708   4.739   6.621  0.00  0.00    -0.084 Cl
ENDBRANCH   2   5
BRANCH   1  19
ATOM     16  N   UNL     1      -0.008  -0.140   2.444  0.00  0.00    -0.298 N 
ATOM     17  C   UNL     1       0.457  -0.484   3.661  0.00  0.00    +0.316 C 
ATOM     18  O   UNL     1       1.499  -1.102   3.762  0.00  0.00    -0.251 OA
ATOM     19  N   UNL     1      -0.234  -0.143   4.767  0.00  0.00    -0.218 N 
ATOM     20  H   UNL     1      -0.840   0.353   2.364  0.00  0.00    +0.150 HD
ATOM     21  H   UNL     1       0.101  -0.391   5.644  0.00  0.00    +0.174 HD
BRANCH  16  22
ATOM     22  C   UNL     1       0.742  -0.511   1.242  0.00  0.00    +0.108 C 
BRANCH  22  24
ATOM     23  C   UNL     1      -0.019   1.526   0.010  0.00  0.00    +0.009 C 
ATOM     24  C   UNL     1       0.002  -0.004   0.002  0.00  0.00    -0.000 C 
ATOM     25  C   UNL     1       0.718  -0.497  -1.257  0.00  0.00    +0.009 C 
ENDBRANCH  22  24
ENDBRANCH  16  22
ENDBRANCH   1  19
TORSDOF 4
