REMARK  Name = ZINC45834873
REMARK  6 active torsions:
REMARK  status: ('A' for Active; 'I' for Inactive)
REMARK    1  A    between atoms: C_1  and  C_2
REMARK    2  A    between atoms: C_2  and  C_4
REMARK    3  A    between atoms: C_2  and  N_14
REMARK    4  A    between atoms: C_7  and  N_10
REMARK    5  A    between atoms: C_15  and  C_17
REMARK    6  A    between atoms: C_17  and  C_18
REMARK                            x       y       z     vdW  Elec       q    Type
REMARK                         _______ _______ _______ _____ _____    ______ ____
ROOT
ATOM      1  C   UNL     1       0.002   1.489   0.238  0.00  0.00    +0.033 C 
ATOM      2  C   UNL     1       0.010  -0.025   0.017  0.00  0.00    +0.100 C 
ENDROOT
BRANCH   2   3
ATOM      3  C   UNL     1      -1.406  -0.541   0.024  0.00  0.00    -0.027 A 
ATOM      4  C   UNL     1      -2.059  -0.749   1.225  0.00  0.00    +0.007 A 
ATOM      5  C   UNL     1      -3.357  -1.222   1.234  0.00  0.00    +0.023 A 
ATOM      6  C   UNL     1      -4.006  -1.488   0.036  0.00  0.00    +0.035 A 
ATOM      7  C   UNL     1      -3.347  -1.279  -1.168  0.00  0.00    +0.023 A 
ATOM      8  C   UNL     1      -2.051  -0.801  -1.171  0.00  0.00    +0.007 A 
BRANCH   6   9
ATOM      9  N   UNL     1      -5.320  -1.968   0.042  0.00  0.00    -0.270 N 
ATOM     10  C   UNL     1      -6.177  -1.575   1.006  0.00  0.00    +0.301 C 
ATOM     11  O   UNL     1      -5.838  -0.730   1.812  0.00  0.00    -0.253 OA
ATOM     12  N   UNL     1      -7.408  -2.117   1.075  0.00  0.00    -0.313 N 
ATOM     13  H   UNL     1      -5.615  -2.584  -0.647  0.00  0.00    +0.156 HD
ATOM     14  H   UNL     1      -7.678  -2.791   0.432  0.00  0.00    +0.146 HD
ATOM     15  H   UNL     1      -8.025  -1.834   1.769  0.00  0.00    +0.146 HD
ENDBRANCH   6   9
ENDBRANCH   2   3
BRANCH   2  16
ATOM     16  N   UNL     1       0.770  -0.671   1.090  0.00  0.00    -0.308 N 
ATOM     17  C   UNL     1       2.110  -0.780   0.995  0.00  0.00    +0.218 C 
ATOM     18  O   UNL     1       2.687  -0.344   0.021  0.00  0.00    -0.275 OA
ATOM     19  H   UNL     1       0.309  -1.020   1.869  0.00  0.00    +0.149 HD
BRANCH  17  20
ATOM     20  C   UNL     1       2.892  -1.445   2.098  0.00  0.00    +0.132 C 
BRANCH  20  21
ATOM     21  C   UNL     1       4.358  -1.438   1.749  0.00  0.00    -0.020 A 
ATOM     22  C   UNL     1       4.926  -2.534   1.128  0.00  0.00    +0.007 A 
ATOM     23  C   UNL     1       6.271  -2.528   0.808  0.00  0.00    +0.020 A 
ATOM     24  C   UNL     1       7.049  -1.424   1.109  0.00  0.00    +0.042 A 
ATOM     25  C   UNL     1       6.481  -0.327   1.730  0.00  0.00    +0.040 A 
ATOM     26  C   UNL     1       5.134  -0.331   2.046  0.00  0.00    +0.046 A 
ATOM     27 CL   UNL     1       4.419   1.048   2.821  0.00  0.00    -0.083 Cl
ATOM     28 CL   UNL     1       8.738  -1.417   0.707  0.00  0.00    -0.083 Cl
ENDBRANCH  20  21
ENDBRANCH  17  20
ENDBRANCH   2  16
TORSDOF 5
