REMARK  Name = ZINC16228220
REMARK  12 active torsions:
REMARK  status: ('A' for Active; 'I' for Inactive)
REMARK    1  A    between atoms: C_1  and  O_2
REMARK    2  A    between atoms: O_2  and  C_3
REMARK    3  A    between atoms: C_7  and  C_18
REMARK    4  A    between atoms: C_8  and  O_9
REMARK    5  A    between atoms: O_9  and  C_10
REMARK    6  A    between atoms: C_10  and  C_11
REMARK    7  A    between atoms: C_18  and  N_54
REMARK    8  A    between atoms: C_19  and  C_20
REMARK    9  A    between atoms: C_19  and  N_54
REMARK   10  A    between atoms: C_20  and  N_21
REMARK   11  A    between atoms: N_21  and  C_22
REMARK   12  A    between atoms: C_25  and  N_28
REMARK                            x       y       z     vdW  Elec       q    Type
REMARK                         _______ _______ _______ _____ _____    ______ ____
ROOT
ATOM      1  C   UNL     1       6.633  -7.948   1.075  0.00  0.00    +0.162 A 
ATOM      2  C   UNL     1       7.133  -8.445  -0.117  0.00  0.00    +0.049 A 
ATOM      3  C   UNL     1       6.407  -8.300  -1.285  0.00  0.00    +0.004 A 
ATOM      4  C   UNL     1       5.182  -7.660  -1.266  0.00  0.00    +0.005 A 
ATOM      5  C   UNL     1       4.677  -7.162  -0.080  0.00  0.00    -0.019 A 
ATOM      6  C   UNL     1       5.401  -7.299   1.093  0.00  0.00    +0.164 A 
ENDROOT
BRANCH   1   8
ATOM      7  C   UNL     1       8.603  -8.761   2.131  0.00  0.00    +0.277 C 
ATOM      8  O   UNL     1       7.345  -8.089   2.225  0.00  0.00    -0.491 OA
ENDBRANCH   1   8
BRANCH   6   9
ATOM      9  O   UNL     1       4.908  -6.805   2.260  0.00  0.00    -0.484 OA
BRANCH   9  10
ATOM     10  C   UNL     1       4.096  -7.682   3.044  0.00  0.00    +0.264 C 
BRANCH  10  11
ATOM     11  C   UNL     1       3.644  -6.967   4.291  0.00  0.00    -0.010 A 
ATOM     12  C   UNL     1       4.409  -7.032   5.441  0.00  0.00    +0.010 A 
ATOM     13  C   UNL     1       3.998  -6.372   6.584  0.00  0.00    +0.039 A 
ATOM     14  C   UNL     1       2.813  -5.655   6.580  0.00  0.00    +0.123 A 
ATOM     15  C   UNL     1       2.045  -5.595   5.430  0.00  0.00    +0.039 A 
ATOM     16  C   UNL     1       2.461  -6.251   4.286  0.00  0.00    +0.010 A 
ATOM     17  F   UNL     1       2.408  -5.014   7.698  0.00  0.00    -0.205 F 
ENDBRANCH  10  11
ENDBRANCH   9  10
ENDBRANCH   6   9
BRANCH   5  18
ATOM     18  C   UNL     1       3.341  -6.466  -0.063  0.00  0.00    -0.043 C 
BRANCH  18  19
ATOM     19  N   UNL     1       3.556  -5.006  -0.058  0.00  0.00    +0.383 N 
ATOM     20  H   UNL     1       4.079  -4.739  -0.900  0.00  0.00    -0.085 HD
ATOM     21  H   UNL     1       4.095  -4.747   0.777  0.00  0.00    -0.085 HD
BRANCH  19  22
ATOM     22  C   UNL     1       2.263  -4.298  -0.042  0.00  0.00    -0.063 C 
BRANCH  22  23
ATOM     23  C   UNL     1       2.518  -2.789  -0.037  0.00  0.00    +0.082 C 
BRANCH  23  24
ATOM     24  N   UNL     1       1.238  -2.077  -0.021  0.00  0.00    -0.346 N 
ATOM     25  H   UNL     1       0.406  -2.576  -0.015  0.00  0.00    +0.146 HD
BRANCH  24  26
ATOM     26  C   UNL     1       1.215  -0.681  -0.013  0.00  0.00    +0.027 A 
ATOM     27  C   UNL     1       0.002  -0.004   0.002  0.00  0.00    +0.025 A 
ATOM     28  C   UNL     1      -0.017   1.377   0.010  0.00  0.00    +0.034 A 
ATOM     29  C   UNL     1       1.171   2.086   0.002  0.00  0.00    +0.126 A 
ATOM     30  C   UNL     1       2.380   1.416  -0.013  0.00  0.00    +0.034 A 
ATOM     31  C   UNL     1       2.406   0.035  -0.021  0.00  0.00    +0.025 A 
BRANCH  29  32
ATOM     32  N   UNL     1       1.147   3.566   0.010  0.00  0.00    +0.056 N 
ATOM     33  O   UNL     1       0.082   4.158   0.023  0.00  0.00    -0.126 OA
ATOM     34  O   UNL     1       2.191   4.192   0.003  0.00  0.00    -0.126 OA
ENDBRANCH  29  32
ENDBRANCH  24  26
ENDBRANCH  23  24
ENDBRANCH  22  23
ENDBRANCH  19  22
ENDBRANCH  18  19
ENDBRANCH   5  18
TORSDOF 11
