REMARK  Name = ZINC64040541
REMARK  5 active torsions:
REMARK  status: ('A' for Active; 'I' for Inactive)
REMARK    1  A    between atoms: C_1  and  O_2
REMARK    2  A    between atoms: O_2  and  C_3
REMARK    3  A    between atoms: C_6  and  C_10
REMARK    4  A    between atoms: N_24  and  C_25
REMARK    5  A    between atoms: C_25  and  C_26
REMARK                            x       y       z     vdW  Elec       q    Type
REMARK                         _______ _______ _______ _____ _____    ______ ____
ROOT
ATOM      1  C   UNL     1      -4.985  -2.625   0.036  0.00  0.00    +0.116 C 
ATOM      2  C   UNL     1      -5.401  -2.962  -1.398  0.00  0.00    +0.128 C 
ATOM      3  C   UNL     1      -5.640  -1.629  -2.097  0.00  0.00    -0.035 C 
ATOM      4  C   UNL     1      -4.889  -1.639  -3.189  0.00  0.00    -0.001 A 
ATOM      5  C   UNL     1      -4.758  -0.680  -4.299  0.00  0.00    +0.010 A 
ATOM      6  C   UNL     1      -3.865  -1.006  -5.270  0.00  0.00    +0.001 A 
ATOM      7  C   UNL     1      -3.097  -2.174  -5.249  0.00  0.00    +0.002 A 
ATOM      8  C   UNL     1      -3.157  -3.114  -4.272  0.00  0.00    +0.026 A 
ATOM      9  C   UNL     1      -4.065  -2.886  -3.198  0.00  0.00    +0.043 A 
ATOM     10  N   UNL     1      -4.341  -3.635  -2.147  0.00  0.00    -0.376 N 
ATOM     11  C   UNL     1      -6.513  -0.560  -1.486  0.00  0.00    +0.049 C 
ATOM     12  C   UNL     1      -6.060  -0.421  -0.021  0.00  0.00    +0.089 C 
ATOM     13  N   UNL     1      -6.006  -1.740   0.619  0.00  0.00    -0.291 NA
ATOM     14  H   UNL     1      -3.921  -4.476  -1.906  0.00  0.00    +0.160 HD
ENDROOT
BRANCH   1  18
ATOM     15  C   UNL     1      -1.200  -0.637   0.010  0.00  0.00    +0.123 A 
ATOM     16  C   UNL     1      -2.244  -0.159  -0.770  0.00  0.00    +0.046 A 
ATOM     17  C   UNL     1      -3.466  -0.803  -0.760  0.00  0.00    +0.011 A 
ATOM     18  C   UNL     1      -3.651  -1.925   0.027  0.00  0.00    +0.007 A 
ATOM     19  C   UNL     1      -2.612  -2.405   0.806  0.00  0.00    +0.132 A 
ATOM     20  C   UNL     1      -1.385  -1.766   0.794  0.00  0.00    +0.084 A 
ATOM     21  F   UNL     1      -2.795  -3.501   1.574  0.00  0.00    -0.205 F 
BRANCH  15  23
ATOM     22  C   UNL     1       0.120   1.153  -0.831  0.00  0.00    +0.277 C 
ATOM     23  O   UNL     1       0.002  -0.004   0.000  0.00  0.00    -0.495 OA
ENDBRANCH  15  23
ENDBRANCH   1  18
BRANCH  13  24
ATOM     24  C   UNL     1      -5.828  -1.615   2.071  0.00  0.00    +0.118 C 
BRANCH  24  25
ATOM     25  C   UNL     1      -7.038  -0.900   2.674  0.00  0.00    +0.166 C 
ATOM     26  C   UNL     1      -6.972  -0.916   4.191  0.00  0.00    +0.024 C 
ATOM     27  C   UNL     1      -8.063  -1.594   4.553  0.00  0.00    +0.132 C 
ATOM     28  N   UNL     1      -8.769  -1.982   3.468  0.00  0.00    -0.162 NA
ATOM     29  N   UNL     1      -8.278  -1.640   2.385  0.00  0.00    -0.179 NA
ENDBRANCH  24  25
ENDBRANCH  13  24
TORSDOF 4
