REMARK  Name = ZINC17879590
REMARK  7 active torsions:
REMARK  status: ('A' for Active; 'I' for Inactive)
REMARK    1  A    between atoms: C_1  and  C_2
REMARK    2  A    between atoms: C_5  and  C_30
REMARK    3  A    between atoms: C_6  and  N_8
REMARK    4  A    between atoms: C_9  and  C_11
REMARK    5  A    between atoms: C_11  and  S_12
REMARK    6  A    between atoms: S_12  and  C_13
REMARK    7  A    between atoms: N_17  and  C_18
REMARK                            x       y       z     vdW  Elec       q    Type
REMARK                         _______ _______ _______ _____ _____    ______ ____
ROOT
ATOM      1  C   UNL     1      -3.110   1.246   1.129  0.00  0.00    +0.198 A 
ATOM      2  N   UNL     1      -4.182   0.610   0.724  0.00  0.00    -0.120 NA
ATOM      3  N   UNL     1      -4.183   0.610  -0.677  0.00  0.00    -0.112 NA
ATOM      4  C   UNL     1      -3.115   1.250  -1.084  0.00  0.00    +0.225 A 
ATOM      5  N   UNL     1      -2.423   1.663   0.021  0.00  0.00    -0.257 N 
ATOM      6  N   UNL     1      -2.749   1.470  -2.406  0.00  0.00    -0.299 N 
ATOM      7  C   UNL     1      -1.455   0.810  -2.717  0.00  0.00    +0.108 C 
ATOM      8  C   UNL     1      -1.476   0.701  -4.263  0.00  0.00    +0.020 C 
ATOM      9  C   UNL     1      -2.958   0.383  -4.567  0.00  0.00    +0.020 C 
ATOM     10  C   UNL     1      -3.737   0.879  -3.335  0.00  0.00    +0.108 C 
ENDROOT
BRANCH   5  11
ATOM     11  C   UNL     1      -1.218   2.383   0.020  0.00  0.00    +0.070 A 
ATOM     12  C   UNL     1      -1.237   3.771   0.024  0.00  0.00    +0.028 A 
ATOM     13  C   UNL     1      -0.050   4.477   0.016  0.00  0.00    +0.002 A 
ATOM     14  C   UNL     1       1.157   3.803   0.010  0.00  0.00    +0.002 A 
ATOM     15  C   UNL     1       1.181   2.421   0.011  0.00  0.00    +0.022 A 
ATOM     16  C   UNL     1      -0.004   1.708   0.019  0.00  0.00    +0.065 A 
ATOM     17 CL   UNL     1       0.025  -0.028   0.021  0.00  0.00    -0.081 Cl
ENDBRANCH   5  11
BRANCH   1  18
ATOM     18  S   UNL     1      -2.638   1.518   2.805  0.00  0.00    -0.076 S 
BRANCH  18  19
ATOM     19  C   UNL     1      -3.956   0.724   3.767  0.00  0.00    +0.173 C 
BRANCH  19  21
ATOM     20  N   UNL     1      -4.521   0.372   6.149  0.00  0.00    -0.285 N 
ATOM     21  C   UNL     1      -3.671   0.886   5.237  0.00  0.00    +0.227 C 
ATOM     22  O   UNL     1      -2.677   1.478   5.601  0.00  0.00    -0.275 OA
ATOM     23  H   UNL     1      -5.355  -0.031   5.861  0.00  0.00    +0.155 HD
BRANCH  20  29
ATOM     24  C   UNL     1      -1.119   0.640   9.688  0.00  0.00    +0.044 C 
ATOM     25  C   UNL     1      -2.559   0.550   9.254  0.00  0.00    -0.049 A 
ATOM     26  C   UNL     1      -3.566   0.514  10.201  0.00  0.00    +0.004 A 
ATOM     27  C   UNL     1      -4.889   0.432   9.807  0.00  0.00    +0.005 A 
ATOM     28  C   UNL     1      -5.208   0.384   8.464  0.00  0.00    -0.029 A 
ATOM     29  C   UNL     1      -4.200   0.420   7.510  0.00  0.00    +0.037 A 
ATOM     30  C   UNL     1      -2.872   0.497   7.910  0.00  0.00    +0.027 A 
ATOM     31  C   UNL     1      -6.650   0.294   8.035  0.00  0.00    +0.045 C 
ENDBRANCH  20  29
ENDBRANCH  19  21
ENDBRANCH  18  19
ENDBRANCH   1  18
TORSDOF 5
