REMARK  Name = ZINC09260397
REMARK  6 active torsions:
REMARK  status: ('A' for Active; 'I' for Inactive)
REMARK    1  A    between atoms: C_1  and  S_2
REMARK    2  A    between atoms: S_2  and  N_5
REMARK    3  A    between atoms: N_5  and  C_6
REMARK    4  A    between atoms: C_11  and  C_12
REMARK    5  A    between atoms: C_15  and  C_18
REMARK    6  A    between atoms: C_23  and  C_25
REMARK                            x       y       z     vdW  Elec       q    Type
REMARK                         _______ _______ _______ _____ _____    ______ ____
ROOT
ATOM      1  C   UNL     1       2.660   1.153   3.094  0.00  0.00    +0.071 C 
ATOM      2  N   UNL     1       3.229   0.705   2.027  0.00  0.00    -0.180 NA
ATOM      3  N   UNL     1       4.607   0.541   2.144  0.00  0.00    -0.178 N 
ATOM      4  C   UNL     1       5.020   0.931   3.502  0.00  0.00    +0.173 C 
ATOM      5  C   UNL     1       3.699   1.355   4.173  0.00  0.00    +0.090 C 
ATOM      6  C   UNL     1       5.429   0.092   1.174  0.00  0.00    +0.269 C 
ATOM      7  O   UNL     1       6.632   0.086   1.351  0.00  0.00    -0.268 OA
ENDROOT
BRANCH   6   8
ATOM      8  C   UNL     1       4.867  -0.392  -0.102  0.00  0.00    +0.074 A 
ATOM      9  C   UNL     1       3.486  -0.542  -0.250  0.00  0.00    +0.016 A 
ATOM     10  C   UNL     1       2.968  -0.990  -1.447  0.00  0.00    +0.001 A 
ATOM     11  C   UNL     1       3.813  -1.303  -2.498  0.00  0.00    +0.003 A 
ATOM     12  C   UNL     1       5.181  -1.163  -2.360  0.00  0.00    +0.039 A 
ATOM     13  C   UNL     1       5.716  -0.709  -1.168  0.00  0.00    +0.136 A 
ATOM     14  F   UNL     1       7.053  -0.573  -1.033  0.00  0.00    -0.205 F 
ENDBRANCH   6   8
BRANCH   1  20
ATOM     15  C   UNL     1       0.344   1.183   2.168  0.00  0.00    +0.057 A 
ATOM     16  C   UNL     1      -1.010   1.444   2.316  0.00  0.00    +0.025 A 
ATOM     17  C   UNL     1      -1.496   1.925   3.516  0.00  0.00    +0.002 A 
ATOM     18  C   UNL     1      -0.636   2.161   4.576  0.00  0.00    +0.001 A 
ATOM     19  C   UNL     1       0.714   1.913   4.445  0.00  0.00    +0.011 A 
ATOM     20  C   UNL     1       1.219   1.421   3.240  0.00  0.00    +0.020 A 
BRANCH  15  21
ATOM     21  N   UNL     1       0.835   0.692   0.960  0.00  0.00    -0.220 N 
ATOM     22  H   UNL     1       1.553   0.039   0.957  0.00  0.00    +0.173 HD
BRANCH  21  24
ATOM     23  C   UNL     1       0.648   2.976  -0.565  0.00  0.00    +0.218 C 
ATOM     24  S   UNL     1       0.193   1.222  -0.471  0.00  0.00    +0.040 S 
ATOM     25  O   UNL     1      -1.213   1.089  -0.310  0.00  0.00    -0.155 OA
ATOM     26  O   UNL     1       0.880   0.484  -1.473  0.00  0.00    -0.155 OA
ENDBRANCH  21  24
ENDBRANCH  15  21
ENDBRANCH   1  20
BRANCH   4  27
ATOM     27  C   UNL     1       5.985   2.087   3.452  0.00  0.00    +0.128 A 
ATOM     28  C   UNL     1       7.010   2.293   4.297  0.00  0.00    +0.046 A 
ATOM     29  C   UNL     1       7.647   3.487   3.886  0.00  0.00    +0.041 A 
ATOM     30  C   UNL     1       6.972   3.939   2.813  0.00  0.00    +0.195 A 
ATOM     31  O   UNL     1       5.970   3.084   2.552  0.00  0.00    -0.466 OA
ENDBRANCH   4  27
TORSDOF 5
