REMARK  Name = ZINC14544911
REMARK  6 active torsions:
REMARK  status: ('A' for Active; 'I' for Inactive)
REMARK    1  A    between atoms: C_1  and  C_2
REMARK    2  A    between atoms: C_2  and  C_3
REMARK    3  A    between atoms: C_2  and  C_4
REMARK    4  A    between atoms: C_2  and  N_5
REMARK    5  A    between atoms: C_6  and  C_8
REMARK    6  A    between atoms: C_15  and  C_24
REMARK                            x       y       z     vdW  Elec       q    Type
REMARK                         _______ _______ _______ _____ _____    ______ ____
ROOT
ATOM      1  C   UNL     1       2.433   0.936  -0.016  0.00  0.00    +0.058 A 
ATOM      2  C   UNL     1       2.447  -0.458  -0.018  0.00  0.00    +0.015 A 
ATOM      3  C   UNL     1       3.645  -1.136  -0.044  0.00  0.00    +0.001 A 
ATOM      4  C   UNL     1       4.837  -0.431  -0.051  0.00  0.00    +0.006 A 
ATOM      5  C   UNL     1       4.843   0.947  -0.035  0.00  0.00    -0.019 A 
ATOM      6  C   UNL     1       3.642   1.662  -0.024  0.00  0.00    +0.044 A 
ATOM      7  N   UNL     1       3.559   3.044  -0.035  0.00  0.00    -0.336 N 
ATOM      8  C   UNL     1       4.827   3.788   0.035  0.00  0.00    +0.107 C 
ATOM      9  C   UNL     1       5.831   3.036  -0.812  0.00  0.00    +0.029 C 
ATOM     10  C   UNL     1       6.105   1.719  -0.020  0.00  0.00    +0.049 C 
ATOM     11  C   UNL     1       7.359   1.215  -0.631  0.00  0.00    -0.023 C 
ATOM     12  C   UNL     1       8.053   2.252  -1.088  0.00  0.00    -0.030 C 
ATOM     13  C   UNL     1       7.276   3.548  -0.843  0.00  0.00    +0.033 C 
ATOM     14  H   UNL     1       2.993   3.366  -0.805  0.00  0.00    +0.147 HD
ENDROOT
BRANCH   8  15
ATOM     15  C   UNL     1       4.636   5.181  -0.508  0.00  0.00    -0.002 A 
ATOM     16  C   UNL     1       3.648   5.594  -1.318  0.00  0.00    +0.089 A 
ATOM     17  N   UNL     1       3.802   6.923  -1.602  0.00  0.00    -0.360 N 
ATOM     18  H   UNL     1       3.211   7.444  -2.167  0.00  0.00    +0.165 HD
ATOM     19  C   UNL     1       4.922   7.411  -0.966  0.00  0.00    +0.047 A 
ATOM     20  C   UNL     1       5.490   6.342  -0.248  0.00  0.00    +0.005 A 
ATOM     21  C   UNL     1       6.647   6.546   0.505  0.00  0.00    +0.010 A 
ATOM     22  C   UNL     1       7.221   7.786   0.545  0.00  0.00    +0.001 A 
ATOM     23  C   UNL     1       6.663   8.844  -0.159  0.00  0.00    +0.002 A 
ATOM     24  C   UNL     1       5.526   8.663  -0.915  0.00  0.00    +0.026 A 
ENDBRANCH   8  15
BRANCH   1  26
ATOM     25  N   UNL     1      -0.011   0.966   0.007  0.00  0.00    -0.307 N 
ATOM     26  C   UNL     1       1.147   1.655   0.000  0.00  0.00    +0.246 C 
ATOM     27  O   UNL     1       1.130   2.871   0.007  0.00  0.00    -0.270 OA
ATOM     28  H   UNL     1       0.002  -0.004   0.002  0.00  0.00    +0.150 HD
BRANCH  25  30
ATOM     29  C   UNL     1      -1.389   2.566  -1.227  0.00  0.00    +0.031 C 
ATOM     30  C   UNL     1      -1.290   1.681   0.017  0.00  0.00    +0.026 C 
ATOM     31  C   UNL     1      -2.439   0.671   0.017  0.00  0.00    +0.031 C 
ATOM     32  C   UNL     1      -1.377   2.553   1.272  0.00  0.00    +0.031 C 
ENDBRANCH  25  30
ENDBRANCH   1  26
TORSDOF 3
