REMARK  Name = ZINC15065033
REMARK  8 active torsions:
REMARK  status: ('A' for Active; 'I' for Inactive)
REMARK    1  A    between atoms: C_1  and  C_2
REMARK    2  A    between atoms: C_3  and  C_14
REMARK    3  A    between atoms: C_5  and  C_7
REMARK    4  A    between atoms: C_14  and  N_49
REMARK    5  A    between atoms: C_15  and  N_49
REMARK    6  A    between atoms: C_16  and  C_17
REMARK    7  A    between atoms: C_16  and  N_49
REMARK    8  A    between atoms: C_20  and  N_23
REMARK                            x       y       z     vdW  Elec       q    Type
REMARK                         _______ _______ _______ _____ _____    ______ ____
ROOT
ATOM      1  C   UNL     1       1.993   3.262   1.042  0.00  0.00    -0.095 C 
ATOM      2  N   UNL     1       1.986   2.995   2.496  0.00  0.00    +0.384 N 
ATOM      3  H   UNL     1       1.470   3.746   2.970  0.00  0.00    -0.081 HD
ENDROOT
BRANCH   2   4
ATOM      4  C   UNL     1       1.316   1.706   2.769  0.00  0.00    -0.019 C 
BRANCH   4   7
ATOM      5  C   UNL     1      -0.013   1.086   0.008  0.00  0.00    +0.088 C 
ATOM      6  C   UNL     1      -0.718   1.572   1.248  0.00  0.00    +0.124 A 
ATOM      7  C   UNL     1      -0.148   1.839   2.437  0.00  0.00    +0.066 A 
ATOM      8  N   UNL     1      -1.115   2.245   3.274  0.00  0.00    -0.216 NA
ATOM      9  C   UNL     1      -2.259   2.234   2.631  0.00  0.00    +0.229 A 
ATOM     10  O   UNL     1      -2.036   1.825   1.370  0.00  0.00    -0.440 OA
BRANCH   9  11
ATOM     11  C   UNL     1      -3.570   2.614   3.197  0.00  0.00    +0.055 A 
ATOM     12  C   UNL     1      -3.668   3.024   4.527  0.00  0.00    +0.014 A 
ATOM     13  C   UNL     1      -4.894   3.381   5.048  0.00  0.00    +0.001 A 
ATOM     14  C   UNL     1      -6.029   3.325   4.257  0.00  0.00    +0.001 A 
ATOM     15  C   UNL     1      -5.941   2.914   2.939  0.00  0.00    +0.021 A 
ATOM     16  C   UNL     1      -4.719   2.558   2.404  0.00  0.00    +0.053 A 
ATOM     17 CL   UNL     1      -4.610   2.043   0.750  0.00  0.00    -0.083 Cl
ENDBRANCH   9  11
ENDBRANCH   4   7
ENDBRANCH   2   4
BRANCH   2  18
ATOM     18  C   UNL     1       3.370   2.964   3.011  0.00  0.00    -0.043 C 
BRANCH  18  19
ATOM     19  C   UNL     1       3.954   4.350   2.920  0.00  0.00    -0.064 A 
ATOM     20  C   UNL     1       4.647   4.734   1.786  0.00  0.00    +0.004 A 
ATOM     21  C   UNL     1       5.179   6.006   1.698  0.00  0.00    +0.028 A 
ATOM     22  C   UNL     1       5.027   6.895   2.753  0.00  0.00    +0.065 A 
ATOM     23  C   UNL     1       4.336   6.505   3.892  0.00  0.00    +0.028 A 
ATOM     24  C   UNL     1       3.802   5.234   3.973  0.00  0.00    +0.004 A 
BRANCH  22  25
ATOM     25  N   UNL     1       5.570   8.185   2.668  0.00  0.00    -0.240 N 
ATOM     26  C   UNL     1       6.267   8.688   1.624  0.00  0.00    +0.114 A 
ATOM     27  C   UNL     1       6.611   9.960   1.933  0.00  0.00    +0.041 A 
ATOM     28  C   UNL     1       6.117  10.241   3.212  0.00  0.00    +0.135 A 
ATOM     29  N   UNL     1       5.493   9.178   3.653  0.00  0.00    -0.175 NA
ENDBRANCH  22  25
ENDBRANCH  18  19
ENDBRANCH   2  18
TORSDOF 6
