REMARK  Name = ZINC60268595
REMARK  8 active torsions:
REMARK  status: ('A' for Active; 'I' for Inactive)
REMARK    1  A    between atoms: C_1  and  C_2
REMARK    2  A    between atoms: C_4  and  C_14
REMARK    3  A    between atoms: C_7  and  N_8
REMARK    4  A    between atoms: N_16  and  C_17
REMARK    5  A    between atoms: C_17  and  C_18
REMARK    6  A    between atoms: C_18  and  C_19
REMARK    7  A    between atoms: C_18  and  C_20
REMARK    8  A    between atoms: C_18  and  C_21
REMARK                            x       y       z     vdW  Elec       q    Type
REMARK                         _______ _______ _______ _____ _____    ______ ____
ROOT
ATOM      1  C   UNL     1       0.028  -2.816  -2.482  0.00  0.00    +0.244 C 
ATOM      2  O   UNL     1       0.014  -2.204  -3.533  0.00  0.00    -0.270 OA
ATOM      3  N   UNL     1       0.046  -4.163  -2.487  0.00  0.00    -0.311 N 
ATOM      4  H   UNL     1       0.057  -4.651  -1.649  0.00  0.00    +0.149 HD
ENDROOT
BRANCH   1   8
ATOM      5  C   UNL     1      -0.018   1.503   0.010  0.00  0.00    +0.046 C 
ATOM      6  C   UNL     1       0.002  -0.004   0.002  0.00  0.00    -0.028 A 
ATOM      7  C   UNL     1       0.006  -0.685  -1.194  0.00  0.00    +0.018 A 
ATOM      8  C   UNL     1       0.025  -2.082  -1.201  0.00  0.00    +0.037 A 
ATOM      9  C   UNL     1       0.040  -2.784   0.008  0.00  0.00    +0.015 A 
ATOM     10  C   UNL     1       0.036  -2.097   1.200  0.00  0.00    +0.024 A 
ATOM     11  C   UNL     1       0.023  -0.705   1.203  0.00  0.00    +0.041 A 
BRANCH  11  12
ATOM     12  N   UNL     1       0.025  -0.012   2.413  0.00  0.00    -0.254 N 
ATOM     13  C   UNL     1      -1.171   0.390   3.167  0.00  0.00    +0.134 C 
ATOM     14  C   UNL     1      -0.603   1.112   4.404  0.00  0.00    +0.125 C 
ATOM     15  N   UNL     1       0.854   1.040   4.216  0.00  0.00    -0.297 N 
ATOM     16  C   UNL     1       1.119   0.388   3.076  0.00  0.00    +0.307 C 
ATOM     17  O   UNL     1       2.248   0.180   2.678  0.00  0.00    -0.252 OA
ATOM     18  H   UNL     1       1.518   1.404   4.822  0.00  0.00    +0.150 HD
ENDBRANCH  11  12
ENDBRANCH   1   8
BRANCH   3  19
ATOM     19  C   UNL     1       0.050  -4.891  -3.758  0.00  0.00    +0.115 C 
BRANCH  19  20
ATOM     20  C   UNL     1       0.072  -6.396  -3.484  0.00  0.00    +0.006 C 
ATOM     21  C   UNL     1       1.330  -6.752  -2.689  0.00  0.00    +0.017 C 
ATOM     22  C   UNL     1      -1.168  -6.786  -2.676  0.00  0.00    +0.017 C 
BRANCH  20  23
ATOM     23  C   UNL     1       0.075  -7.145  -4.792  0.00  0.00    -0.039 A 
ATOM     24  C   UNL     1       0.065  -6.449  -5.986  0.00  0.00    +0.006 A 
ATOM     25  C   UNL     1       0.068  -7.135  -7.186  0.00  0.00    +0.022 A 
ATOM     26  C   UNL     1       0.081  -8.518  -7.193  0.00  0.00    +0.059 A 
ATOM     27  C   UNL     1       0.091  -9.215  -5.996  0.00  0.00    +0.060 A 
ATOM     28  C   UNL     1       0.094  -8.527  -4.796  0.00  0.00    +0.025 A 
ATOM     29 CL   UNL     1       0.107 -10.951  -6.003  0.00  0.00    -0.082 Cl
ATOM     30 CL   UNL     1       0.084  -9.380  -8.700  0.00  0.00    -0.082 Cl
ENDBRANCH  20  23
ENDBRANCH  19  20
ENDBRANCH   3  19
TORSDOF 5
