REMARK  Name = ZINC60298104
REMARK  6 active torsions:
REMARK  status: ('A' for Active; 'I' for Inactive)
REMARK    1  A    between atoms: C_1  and  C_2
REMARK    2  A    between atoms: C_2  and  C_3
REMARK    3  A    between atoms: C_2  and  C_4
REMARK    4  A    between atoms: C_4  and  C_6
REMARK    5  A    between atoms: C_4  and  N_24
REMARK    6  A    between atoms: C_14  and  C_16
REMARK                            x       y       z     vdW  Elec       q    Type
REMARK                         _______ _______ _______ _____ _____    ______ ____
ROOT
ATOM      1  C   UNL     1       1.167   0.613   1.375  0.00  0.00    +0.236 C 
ATOM      2  O   UNL     1       2.136  -0.068   1.637  0.00  0.00    -0.274 OA
ATOM      3  N   UNL     1       1.301   1.946   1.227  0.00  0.00    -0.297 N 
ATOM      4  C   UNL     1       0.124   2.795   0.994  0.00  0.00    +0.127 C 
ATOM      5  C   UNL     1       0.089   3.890   2.067  0.00  0.00    +0.127 C 
ATOM      6  N   UNL     1       1.414   4.521   2.138  0.00  0.00    -0.291 N 
ATOM      7  C   UNL     1       2.591   3.672   2.371  0.00  0.00    +0.127 C 
ATOM      8  C   UNL     1       2.626   2.578   1.303  0.00  0.00    +0.127 C 
ATOM      9  C   UNL     1       1.548   5.854   1.990  0.00  0.00    +0.302 C 
ATOM     10  O   UNL     1       0.563   6.555   1.888  0.00  0.00    -0.265 OA
ENDROOT
BRANCH   9  11
ATOM     11  C   UNL     1       2.910   6.469   1.953  0.00  0.00    +0.302 C 
ATOM     12  O   UNL     1       3.533   6.501   0.912  0.00  0.00    -0.265 OA
ATOM     13  N   UNL     1       3.446   6.987   3.076  0.00  0.00    -0.289 N 
ATOM     14  C   UNL     1       2.762   6.857   4.372  0.00  0.00    +0.136 C 
ATOM     15  C   UNL     1       3.765   6.312   5.395  0.00  0.00    +0.179 C 
ATOM     16  O   UNL     1       4.942   7.122   5.378  0.00  0.00    -0.377 OA
ATOM     17  C   UNL     1       5.639   7.114   4.129  0.00  0.00    +0.179 C 
ATOM     18  C   UNL     1       4.735   7.696   3.042  0.00  0.00    +0.136 C 
ENDBRANCH   9  11
BRANCH   1  19
ATOM     19  C   UNL     1      -0.185  -0.031   1.213  0.00  0.00    +0.165 C 
BRANCH  19  20
ATOM     20  N   UNL     1      -0.225  -1.281   1.976  0.00  0.00    -0.290 N 
ATOM     21  C   UNL     1      -1.084  -1.512   3.143  0.00  0.00    +0.109 C 
ATOM     22  C   UNL     1      -1.118  -3.044   3.334  0.00  0.00    +0.028 C 
ATOM     23  C   UNL     1       0.216  -3.473   2.680  0.00  0.00    +0.097 C 
ATOM     24  C   UNL     1       0.516  -2.366   1.693  0.00  0.00    +0.216 C 
ATOM     25  O   UNL     1       1.311  -2.446   0.781  0.00  0.00    -0.276 OA
ENDBRANCH  19  20
BRANCH  19  27
ATOM     26  C   UNL     1      -1.834  -0.924  -0.438  0.00  0.00    +0.009 C 
ATOM     27  C   UNL     1      -0.435  -0.328  -0.267  0.00  0.00    +0.012 C 
ATOM     28  C   UNL     1      -0.331   0.968  -1.072  0.00  0.00    +0.009 C 
ENDBRANCH  19  27
ENDBRANCH   1  19
TORSDOF 4
