REMARK  Name = ZINC66652368
REMARK  8 active torsions:
REMARK  status: ('A' for Active; 'I' for Inactive)
REMARK    1  A    between atoms: C_1  and  C_2
REMARK    2  A    between atoms: C_3  and  S_8
REMARK    3  A    between atoms: C_4  and  C_7
REMARK    4  A    between atoms: S_8  and  N_11
REMARK    5  A    between atoms: C_15  and  C_18
REMARK    6  A    between atoms: N_20  and  C_21
REMARK    7  A    between atoms: C_21  and  C_22
REMARK    8  A    between atoms: N_26  and  C_28
REMARK                            x       y       z     vdW  Elec       q    Type
REMARK                         _______ _______ _______ _____ _____    ______ ____
ROOT
ATOM      1  N   UNL     1       1.570  -0.091  -3.285  0.00  0.00    -0.176 NA
ATOM      2  C   UNL     1       2.270   1.187  -3.093  0.00  0.00    +0.109 C 
ATOM      3  C   UNL     1       3.570   0.926  -2.326  0.00  0.00    +0.018 C 
ATOM      4  C   UNL     1       4.389  -0.135  -3.063  0.00  0.00    +0.015 C 
ATOM      5  C   UNL     1       3.595  -1.442  -3.126  0.00  0.00    +0.091 C 
ATOM      6  C   UNL     1       2.298  -1.210  -3.897  0.00  0.00    +0.122 C 
ENDROOT
BRANCH   5   7
ATOM      7  C   UNL     1       4.416  -2.496  -3.824  0.00  0.00    +0.217 C 
ATOM      8  O   UNL     1       4.003  -3.013  -4.840  0.00  0.00    -0.275 OA
ATOM      9  N   UNL     1       5.610  -2.865  -3.318  0.00  0.00    -0.315 N 
ATOM     10  H   UNL     1       5.941  -2.452  -2.505  0.00  0.00    +0.149 HD
BRANCH   9  11
ATOM     11  C   UNL     1       6.408  -3.889  -3.996  0.00  0.00    +0.105 C 
BRANCH  11  12
ATOM     12  C   UNL     1       7.707  -4.119  -3.221  0.00  0.00    -0.012 C 
ATOM     13  C   UNL     1       8.648  -2.891  -3.338  0.00  0.00    -0.016 C 
ATOM     14  C   UNL     1      10.049  -3.507  -3.138  0.00  0.00    -0.079 C 
ATOM     15  N   UNL     1       9.948  -4.940  -3.467  0.00  0.00    +0.378 N 
ATOM     16  C   UNL     1       8.559  -5.231  -3.883  0.00  0.00    -0.074 C 
ATOM     17  C   UNL     1      10.870  -5.262  -4.565  0.00  0.00    -0.096 C 
ATOM     18  H   UNL     1      10.182  -5.493  -2.656  0.00  0.00    -0.082 HD
ENDBRANCH  11  12
ENDBRANCH   9  11
ENDBRANCH   5   7
BRANCH   1  19
ATOM     19  S   UNL     1      -0.008  -0.267  -2.813  0.00  0.00    +0.066 S 
ATOM     20  O   UNL     1      -0.547  -1.328  -3.589  0.00  0.00    -0.153 OA
ATOM     21  O   UNL     1      -0.577   1.035  -2.802  0.00  0.00    -0.153 OA
BRANCH  19  24
ATOM     22  C   UNL     1      -0.018   1.503   0.010  0.00  0.00    +0.071 C 
ATOM     23  C   UNL     1       0.002  -0.004   0.002  0.00  0.00    +0.107 A 
ATOM     24  C   UNL     1       0.008  -0.824  -1.141  0.00  0.00    +0.170 A 
ATOM     25  C   UNL     1       0.027  -2.108  -0.735  0.00  0.00    +0.161 A 
ATOM     26  O   UNL     1       0.034  -2.119   0.606  0.00  0.00    -0.358 OA
ATOM     27  N   UNL     1       0.023  -0.775   1.052  0.00  0.00    -0.081 NA
ATOM     28  C   UNL     1       0.039  -3.320  -1.631  0.00  0.00    +0.091 C 
ENDBRANCH  19  24
ENDBRANCH   1  19
TORSDOF 5
