REMARK  Name = ZINC09668398
REMARK  5 active torsions:
REMARK  status: ('A' for Active; 'I' for Inactive)
REMARK    1  A    between atoms: C_1  and  C_2
REMARK    2  A    between atoms: C_2  and  C_4
REMARK    3  A    between atoms: C_2  and  N_19
REMARK    4  A    between atoms: N_9  and  C_12
REMARK    5  A    between atoms: C_20  and  C_30
REMARK                            x       y       z     vdW  Elec       q    Type
REMARK                         _______ _______ _______ _____ _____    ______ ____
ROOT
ATOM      1  N   UNL     1       2.557   1.824  -0.178  0.00  0.00    -0.275 N 
ATOM      2  C   UNL     1       2.134   3.102  -0.762  0.00  0.00    +0.140 C 
ATOM      3  C   UNL     1       0.630   3.136  -0.661  0.00  0.00    -0.010 A 
ATOM      4  C   UNL     1      -0.319   4.062  -1.028  0.00  0.00    +0.006 A 
ATOM      5  C   UNL     1      -1.661   3.804  -0.802  0.00  0.00    +0.000 A 
ATOM      6  C   UNL     1      -2.050   2.620  -0.201  0.00  0.00    +0.001 A 
ATOM      7  C   UNL     1      -1.107   1.687   0.175  0.00  0.00    +0.013 A 
ATOM      8  C   UNL     1       0.248   1.938  -0.052  0.00  0.00    +0.042 A 
ATOM      9  C   UNL     1       1.465   1.154   0.231  0.00  0.00    +0.248 C 
ATOM     10  O   UNL     1       1.479   0.059   0.758  0.00  0.00    -0.270 OA
ENDROOT
BRANCH   2  11
ATOM     11  C   UNL     1       2.731   4.248   0.013  0.00  0.00    +0.002 A 
ATOM     12  C   UNL     1       3.156   4.216   1.286  0.00  0.00    +0.089 A 
ATOM     13  N   UNL     1       3.639   5.444   1.648  0.00  0.00    -0.360 N 
ATOM     14  H   UNL     1       4.003   5.664   2.520  0.00  0.00    +0.165 HD
ATOM     15  C   UNL     1       3.526   6.321   0.593  0.00  0.00    +0.047 A 
ATOM     16  C   UNL     1       2.952   5.611  -0.477  0.00  0.00    +0.005 A 
ATOM     17  C   UNL     1       2.716   6.254  -1.694  0.00  0.00    +0.010 A 
ATOM     18  C   UNL     1       3.044   7.573  -1.838  0.00  0.00    +0.001 A 
ATOM     19  C   UNL     1       3.610   8.278  -0.785  0.00  0.00    +0.002 A 
ATOM     20  C   UNL     1       3.852   7.662   0.424  0.00  0.00    +0.026 A 
ENDBRANCH   2  11
BRANCH   1  22
ATOM     21  C   UNL     1       4.232   0.993   1.397  0.00  0.00    +0.038 C 
ATOM     22  C   UNL     1       3.939   1.355  -0.060  0.00  0.00    +0.160 C 
BRANCH  22  23
ATOM     23  C   UNL     1       4.134   0.140  -0.929  0.00  0.00    +0.236 C 
ATOM     24  O   UNL     1       3.172  -0.436  -1.390  0.00  0.00    -0.274 OA
ATOM     25  N   UNL     1       5.378  -0.306  -1.194  0.00  0.00    -0.297 N 
ATOM     26  C   UNL     1       6.561   0.415  -0.700  0.00  0.00    +0.126 C 
ATOM     27  C   UNL     1       7.471  -0.590   0.022  0.00  0.00    +0.124 C 
ATOM     28  N   UNL     1       7.762  -1.714  -0.878  0.00  0.00    -0.325 N 
ATOM     29  C   UNL     1       6.538  -2.450  -1.223  0.00  0.00    +0.124 C 
ATOM     30  C   UNL     1       5.589  -1.525  -1.991  0.00  0.00    +0.126 C 
BRANCH  28  31
ATOM     31  C   UNL     1       8.720  -2.568  -0.321  0.00  0.00    +0.065 A 
ATOM     32  C   UNL     1       9.196  -3.649  -1.050  0.00  0.00    +0.026 A 
ATOM     33  C   UNL     1      10.145  -4.488  -0.499  0.00  0.00    +0.002 A 
ATOM     34  C   UNL     1      10.615  -4.258   0.781  0.00  0.00    +0.003 A 
ATOM     35  C   UNL     1      10.140  -3.185   1.513  0.00  0.00    +0.040 A 
ATOM     36  C   UNL     1       9.193  -2.339   0.966  0.00  0.00    +0.144 A 
ATOM     37  F   UNL     1       8.728  -1.291   1.682  0.00  0.00    -0.204 F 
ENDBRANCH  28  31
ENDBRANCH  22  23
ENDBRANCH   1  22
TORSDOF 4
