REMARK  Name = ZINC09542537
REMARK  9 active torsions:
REMARK  status: ('A' for Active; 'I' for Inactive)
REMARK    1  A    between atoms: C_1  and  C_2
REMARK    2  A    between atoms: C_2  and  O_3
REMARK    3  A    between atoms: O_3  and  C_4
REMARK    4  A    between atoms: C_8  and  C_11
REMARK    5  A    between atoms: C_9  and  O_10
REMARK    6  A    between atoms: C_14  and  C_27
REMARK    7  A    between atoms: C_16  and  C_18
REMARK    8  A    between atoms: C_21  and  O_25
REMARK    9  A    between atoms: O_25  and  C_26
REMARK                            x       y       z     vdW  Elec       q    Type
REMARK                         _______ _______ _______ _____ _____    ______ ____
ROOT
ATOM      1  C   UNL     1       6.136  -0.772  -0.449  0.00  0.00    -0.028 C 
ATOM      2  C   UNL     1       4.962   0.124  -0.050  0.00  0.00    +0.044 C 
ATOM      3  C   UNL     1       3.693  -0.683  -0.036  0.00  0.00    +0.040 C 
ATOM      4  N   UNL     1       3.679  -1.962  -0.042  0.00  0.00    -0.299 NA
ATOM      5  C   UNL     1       4.876  -2.794  -0.067  0.00  0.00    +0.081 C 
ATOM      6  N   UNL     1       6.059  -2.018   0.338  0.00  0.00    +0.401 N 
ATOM      7  H   UNL     1       5.989  -1.787   1.336  0.00  0.00    -0.081 HD
ATOM      8  H   UNL     1       6.904  -2.577   0.175  0.00  0.00    -0.081 HD
ENDROOT
BRANCH   5   9
ATOM      9  C   UNL     1       5.083  -3.324  -1.462  0.00  0.00    -0.039 A 
ATOM     10  C   UNL     1       6.362  -3.580  -1.921  0.00  0.00    +0.007 A 
ATOM     11  C   UNL     1       6.554  -4.071  -3.197  0.00  0.00    +0.047 A 
ATOM     12  C   UNL     1       5.463  -4.298  -4.024  0.00  0.00    +0.134 A 
ATOM     13  C   UNL     1       4.181  -4.036  -3.563  0.00  0.00    +0.060 A 
ATOM     14  C   UNL     1       3.993  -3.549  -2.283  0.00  0.00    +0.022 A 
ATOM     15 BR   UNL     1       2.690  -4.343  -4.686  0.00  0.00    -0.047 Br
BRANCH  12  16
ATOM     16  O   UNL     1       5.650  -4.776  -5.282  0.00  0.00    -0.494 OA
ATOM     17  C   UNL     1       6.998  -5.024  -5.689  0.00  0.00    +0.277 C 
ENDBRANCH  12  16
ENDBRANCH   5   9
BRANCH   3  18
ATOM     18  C   UNL     1       2.404   0.035  -0.020  0.00  0.00    -0.004 A 
ATOM     19  C   UNL     1       1.204  -0.680  -0.013  0.00  0.00    +0.011 A 
ATOM     20  C   UNL     1       0.002  -0.004   0.002  0.00  0.00    +0.020 A 
ATOM     21  C   UNL     1      -0.017   1.381   0.010  0.00  0.00    +0.041 A 
ATOM     22  C   UNL     1       1.170   2.095   0.002  0.00  0.00    +0.020 A 
ATOM     23  C   UNL     1       2.378   1.431  -0.013  0.00  0.00    +0.011 A 
ATOM     24 CL   UNL     1      -1.534   2.225   0.021  0.00  0.00    -0.084 Cl
ENDBRANCH   3  18
BRANCH   1  29
ATOM     25  C   UNL     1       9.133   1.516  -0.774  0.00  0.00    +0.162 A 
ATOM     26  C   UNL     1       9.831   1.215   0.385  0.00  0.00    +0.049 A 
ATOM     27  C   UNL     1       9.333   0.275   1.267  0.00  0.00    +0.004 A 
ATOM     28  C   UNL     1       8.138  -0.367   0.997  0.00  0.00    +0.006 A 
ATOM     29  C   UNL     1       7.437  -0.071  -0.157  0.00  0.00    -0.016 A 
ATOM     30  C   UNL     1       7.934   0.866  -1.049  0.00  0.00    +0.160 A 
BRANCH  30  31
ATOM     31  O   UNL     1       7.248   1.155  -2.187  0.00  0.00    -0.503 OA
ATOM     32  H   UNL     1       6.611   1.876  -2.090  0.00  0.00    +0.292 HD
ENDBRANCH  30  31
BRANCH  25  33
ATOM     33  O   UNL     1       9.622   2.441  -1.643  0.00  0.00    -0.489 OA
BRANCH  33  35
ATOM     34  C   UNL     1      11.248   4.067  -2.387  0.00  0.00    +0.048 C 
ATOM     35  C   UNL     1      10.861   3.064  -1.298  0.00  0.00    +0.226 C 
ENDBRANCH  33  35
ENDBRANCH  25  33
ENDBRANCH   1  29
TORSDOF 7
