REMARK  Name = ZINC56794128
REMARK  9 active torsions:
REMARK  status: ('A' for Active; 'I' for Inactive)
REMARK    1  A    between atoms: C_1  and  N_2
REMARK    2  A    between atoms: N_2  and  C_3
REMARK    3  A    between atoms: N_2  and  C_4
REMARK    4  A    between atoms: C_4  and  C_5
REMARK    5  A    between atoms: C_5  and  C_6
REMARK    6  A    between atoms: N_14  and  C_15
REMARK    7  A    between atoms: C_15  and  C_16
REMARK    8  A    between atoms: C_16  and  C_18
REMARK    9  A    between atoms: C_16  and  N_23
REMARK                            x       y       z     vdW  Elec       q    Type
REMARK                         _______ _______ _______ _____ _____    ______ ____
ROOT
ATOM      1  C   UNL     1       2.847  -0.001  -2.200  0.00  0.00    -0.010 C 
ATOM      2  C   UNL     1       2.274   0.614  -3.479  0.00  0.00    +0.022 C 
ATOM      3  C   UNL     1       2.934  -0.042  -4.696  0.00  0.00    +0.109 C 
ATOM      4  N   UNL     1       4.393   0.083  -4.567  0.00  0.00    -0.286 N 
ATOM      5  C   UNL     1       5.037  -0.394  -3.336  0.00  0.00    +0.109 C 
ATOM      6  C   UNL     1       4.353   0.265  -2.134  0.00  0.00    +0.022 C 
ATOM      7  C   UNL     1       5.126   0.625  -5.560  0.00  0.00    +0.302 C 
ATOM      8  O   UNL     1       4.595   0.931  -6.610  0.00  0.00    -0.253 OA
ATOM      9  N   UNL     1       6.447   0.827  -5.389  0.00  0.00    -0.300 N 
ATOM     10  H   UNL     1       6.885   0.517  -4.580  0.00  0.00    +0.150 HD
ENDROOT
BRANCH   1  11
ATOM     11  C   UNL     1       2.164   0.627  -0.983  0.00  0.00    -0.015 C 
BRANCH  11  12
ATOM     12  C   UNL     1       0.680   0.256  -0.983  0.00  0.00    -0.079 C 
BRANCH  12  14
ATOM     13  C   UNL     1       0.060   2.322   0.066  0.00  0.00    -0.097 C 
ATOM     14  N   UNL     1       0.025   0.859   0.186  0.00  0.00    +0.376 N 
ATOM     15  C   UNL     1      -1.371   0.406   0.252  0.00  0.00    -0.097 C 
ATOM     16  H   UNL     1       0.510   0.579   1.025  0.00  0.00    -0.083 HD
ENDBRANCH  12  14
ENDBRANCH  11  12
ENDBRANCH   1  11
BRANCH   9  17
ATOM     17  C   UNL     1       7.223   1.516  -6.423  0.00  0.00    +0.098 C 
BRANCH  17  18
ATOM     18  C   UNL     1       8.705   1.502  -6.043  0.00  0.00    +0.016 C 
BRANCH  18  19
ATOM     19  N   UNL     1       9.465   2.308  -7.007  0.00  0.00    +0.387 N 
ATOM     20  C   UNL     1       9.102   3.742  -6.875  0.00  0.00    -0.078 C 
ATOM     21  C   UNL     1      10.319   4.475  -7.492  0.00  0.00    -0.020 C 
ATOM     22  C   UNL     1      11.514   3.611  -7.029  0.00  0.00    -0.020 C 
ATOM     23  C   UNL     1      10.912   2.230  -6.709  0.00  0.00    -0.078 C 
ATOM     24  H   UNL     1       9.286   1.988  -7.947  0.00  0.00    -0.081 HD
ENDBRANCH  18  19
BRANCH  18  25
ATOM     25  C   UNL     1       9.215   0.084  -6.062  0.00  0.00    +0.093 A 
ATOM     26  C   UNL     1       9.381  -0.707  -4.986  0.00  0.00    +0.043 A 
ATOM     27  C   UNL     1       9.875  -1.944  -5.460  0.00  0.00    +0.041 A 
ATOM     28  C   UNL     1       9.981  -1.836  -6.796  0.00  0.00    +0.195 A 
ATOM     29  O   UNL     1       9.574  -0.607  -7.156  0.00  0.00    -0.469 OA
ENDBRANCH  18  25
ENDBRANCH  17  18
ENDBRANCH   9  17
TORSDOF 7
