REMARK  Name = ZINC20489782
REMARK  10 active torsions:
REMARK  status: ('A' for Active; 'I' for Inactive)
REMARK    1  A    between atoms: C_1  and  C_2
REMARK    2  A    between atoms: C_2  and  C_3
REMARK    3  A    between atoms: N_9  and  C_10
REMARK    4  A    between atoms: C_10  and  C_11
REMARK    5  A    between atoms: C_11  and  C_12
REMARK    6  A    between atoms: C_12  and  N_13
REMARK    7  A    between atoms: C_14  and  C_16
REMARK    8  A    between atoms: C_16  and  C_17
REMARK    9  A    between atoms: C_17  and  C_18
REMARK   10  A    between atoms: C_18  and  N_19
REMARK                            x       y       z     vdW  Elec       q    Type
REMARK                         _______ _______ _______ _____ _____    ______ ____
ROOT
ATOM      1  C   UNL     1       5.329   2.240  -1.593  0.00  0.00    +0.097 C 
ENDROOT
BRANCH   1   3
ATOM      2  N   UNL     1       6.912   1.304  -3.248  0.00  0.00    -0.315 N 
ATOM      3  C   UNL     1       5.765   1.972  -3.010  0.00  0.00    +0.213 C 
ATOM      4  O   UNL     1       5.084   2.357  -3.937  0.00  0.00    -0.276 OA
ATOM      5  H   UNL     1       7.529   0.956  -2.407  0.00  0.00    +0.149 HD
BRANCH   2   6
ATOM      6  C   UNL     1       7.335   1.044  -4.626  0.00  0.00    +0.102 C 
BRANCH   6   7
ATOM      7  C   UNL     1       8.659   0.277  -4.616  0.00  0.00    +0.000 C 
BRANCH   7   8
ATOM      8  C   UNL     1       9.101   0.004  -6.055  0.00  0.00    -0.077 C 
BRANCH   8  14
ATOM      9  C   UNL     1      10.652  -1.316  -7.364  0.00  0.00    -0.069 C 
ATOM     10  C   UNL     1      11.903  -2.193  -7.279  0.00  0.00    -0.015 C 
ATOM     11  C   UNL     1      13.088  -1.341  -6.816  0.00  0.00    -0.003 C 
ATOM     12  C   UNL     1      12.752  -0.706  -5.463  0.00  0.00    -0.019 C 
ATOM     13  C   UNL     1      11.476   0.128  -5.600  0.00  0.00    -0.078 C 
ATOM     14  N   UNL     1      10.372  -0.733  -6.045  0.00  0.00    +0.382 N 
ATOM     15  H   UNL     1      10.281  -1.559  -5.326  0.00  0.00    -0.081 HD
BRANCH   9  17
ATOM     16  C   UNL     1       9.167  -3.227  -6.743  0.00  0.00    +0.002 C 
ATOM     17  C   UNL     1       9.461  -2.168  -7.807  0.00  0.00    -0.019 C 
ENDBRANCH   9  17
ENDBRANCH   8  14
ENDBRANCH   7   8
ENDBRANCH   6   7
ENDBRANCH   2   6
ENDBRANCH   1   3
BRANCH   1  18
ATOM     18  C   UNL     1       4.006   3.007  -1.603  0.00  0.00    +0.031 C 
BRANCH  18  19
ATOM     19  C   UNL     1       3.563   3.279  -0.163  0.00  0.00    +0.126 C 
BRANCH  19  20
ATOM     20  N   UNL     1       2.296   4.014  -0.173  0.00  0.00    -0.305 N 
ATOM     21  C   UNL     1       1.089   3.314  -0.166  0.00  0.00    +0.069 A 
ATOM     22  C   UNL     1       1.101   1.924  -0.150  0.00  0.00    +0.028 A 
ATOM     23  C   UNL     1      -0.089   1.223  -0.144  0.00  0.00    +0.002 A 
ATOM     24  C   UNL     1      -1.296   1.900  -0.159  0.00  0.00    +0.002 A 
ATOM     25  C   UNL     1      -1.319   3.280  -0.168  0.00  0.00    +0.028 A 
ATOM     26  C   UNL     1      -0.128   3.994  -0.175  0.00  0.00    +0.070 A 
ATOM     27  N   UNL     1      -0.154   5.393  -0.190  0.00  0.00    -0.310 N 
ATOM     28  C   UNL     1      -1.176   6.284  -0.200  0.00  0.00    +0.092 A 
ATOM     29  C   UNL     1      -0.664   7.540  -0.214  0.00  0.00    +0.020 A 
ATOM     30  C   UNL     1       0.730   7.436  -0.212  0.00  0.00    +0.033 A 
ATOM     31  C   UNL     1       1.035   6.093  -0.197  0.00  0.00    +0.112 A 
ATOM     32  C   UNL     1       2.304   5.362  -0.188  0.00  0.00    +0.276 A 
ATOM     33  O   UNL     1       3.360   5.968  -0.194  0.00  0.00    -0.265 OA
ENDBRANCH  19  20
ENDBRANCH  18  19
ENDBRANCH   1  18
TORSDOF 9
