REMARK  Name = ZINC08948539
REMARK  10 active torsions:
REMARK  status: ('A' for Active; 'I' for Inactive)
REMARK    1  A    between atoms: C_1  and  C_2
REMARK    2  A    between atoms: C_8  and  N_10
REMARK    3  A    between atoms: C_14  and  C_16
REMARK    4  A    between atoms: C_16  and  N_17
REMARK    5  A    between atoms: C_20  and  C_24
REMARK    6  A    between atoms: C_20  and  C_25
REMARK    7  A    between atoms: C_28  and  C_31
REMARK    8  A    between atoms: C_31  and  C_32
REMARK    9  A    between atoms: C_31  and  C_33
REMARK   10  A    between atoms: C_31  and  C_34
REMARK                            x       y       z     vdW  Elec       q    Type
REMARK                         _______ _______ _______ _____ _____    ______ ____
ROOT
ATOM      1  N   UNL     1       0.253  -3.594  -6.109  0.00  0.00    -0.215 N 
ATOM      2  C   UNL     1      -0.798  -3.854  -6.911  0.00  0.00    +0.251 C 
ATOM      3  O   UNL     1      -1.508  -3.047  -7.473  0.00  0.00    -0.272 OA
ATOM      4  C   UNL     1      -0.909  -5.365  -6.966  0.00  0.00    +0.135 C 
ATOM      5  N   UNL     1       0.196  -5.824  -6.106  0.00  0.00    -0.281 N 
ATOM      6  C   UNL     1       0.818  -4.719  -5.657  0.00  0.00    +0.310 C 
ATOM      7  O   UNL     1       1.784  -4.741  -4.920  0.00  0.00    -0.252 OA
ATOM      8  C   UNL     1      -2.257  -5.826  -6.407  0.00  0.00    +0.047 C 
ATOM      9  H   UNL     1       0.431  -6.744  -5.907  0.00  0.00    +0.152 HD
ENDROOT
BRANCH   4  10
ATOM     10  C   UNL     1      -0.724  -5.859  -8.377  0.00  0.00    -0.015 A 
ATOM     11  C   UNL     1      -1.105  -5.066  -9.443  0.00  0.00    +0.006 A 
ATOM     12  C   UNL     1      -0.932  -5.518 -10.738  0.00  0.00    +0.004 A 
ATOM     13  C   UNL     1      -0.386  -6.768 -10.966  0.00  0.00    -0.042 A 
ATOM     14  C   UNL     1      -0.009  -7.563  -9.900  0.00  0.00    +0.004 A 
ATOM     15  C   UNL     1      -0.179  -7.109  -8.606  0.00  0.00    +0.006 A 
BRANCH  13  16
ATOM     16  C   UNL     1      -0.201  -7.263 -12.378  0.00  0.00    -0.013 C 
ATOM     17  C   UNL     1      -1.004  -8.550 -12.576  0.00  0.00    +0.015 C 
ATOM     18  C   UNL     1      -0.695  -6.198 -13.360  0.00  0.00    +0.015 C 
ATOM     19  C   UNL     1       1.282  -7.542 -12.631  0.00  0.00    +0.015 C 
ENDBRANCH  13  16
ENDBRANCH   4  10
BRANCH   1  20
ATOM     20  C   UNL     1       0.721  -2.247  -5.777  0.00  0.00    +0.214 C 
BRANCH  20  25
ATOM     21  N   UNL     1      -0.067   1.120  -2.437  0.00  0.00    -0.296 N 
ATOM     22  C   UNL     1      -0.341  -0.103  -2.932  0.00  0.00    +0.306 C 
ATOM     23  O   UNL     1      -1.157  -0.814  -2.379  0.00  0.00    -0.252 OA
ATOM     24  N   UNL     1       0.290  -0.537  -4.041  0.00  0.00    -0.239 N 
ATOM     25  C   UNL     1       0.016  -1.761  -4.537  0.00  0.00    +0.238 C 
ATOM     26  O   UNL     1      -0.798  -2.470  -3.985  0.00  0.00    -0.274 OA
ATOM     27  H   UNL     1       0.584   1.688  -2.878  0.00  0.00    +0.151 HD
ATOM     28  H   UNL     1       0.941   0.030  -4.483  0.00  0.00    +0.159 HD
BRANCH  21  35
ATOM     29  C   UNL     1      -1.513   3.629  -2.463  0.00  0.00    +0.009 C 
ATOM     30  C   UNL     1      -0.773   3.123  -1.223  0.00  0.00    +0.006 C 
ATOM     31  C   UNL     1      -1.490   3.616   0.036  0.00  0.00    +0.005 C 
ATOM     32  C   UNL     1      -0.750   3.109   1.275  0.00  0.00    +0.000 C 
ATOM     33  C   UNL     1      -0.729   1.579   1.267  0.00  0.00    +0.002 C 
ATOM     34  C   UNL     1      -0.013   1.086   0.008  0.00  0.00    +0.022 C 
ATOM     35  C   UNL     1      -0.753   1.593  -1.232  0.00  0.00    +0.077 C 
ENDBRANCH  21  35
ENDBRANCH  20  25
ENDBRANCH   1  20
TORSDOF 5
