REMARK  Name = ZINC12704698
REMARK  7 active torsions:
REMARK  status: ('A' for Active; 'I' for Inactive)
REMARK    1  A    between atoms: C_1  and  O_2
REMARK    2  A    between atoms: O_2  and  C_3
REMARK    3  A    between atoms: C_3  and  C_4
REMARK    4  A    between atoms: C_7  and  C_9
REMARK    5  A    between atoms: N_15  and  C_22
REMARK    6  A    between atoms: C_27  and  O_28
REMARK    7  A    between atoms: O_28  and  C_29
REMARK                            x       y       z     vdW  Elec       q    Type
REMARK                         _______ _______ _______ _____ _____    ______ ____
ROOT
ATOM      1  C   UNL     1      -6.229   3.334  -0.507  0.00  0.00    +0.001 C 
ATOM      2  C   UNL     1      -5.442   3.285   0.814  0.00  0.00    -0.004 C 
ATOM      3  C   UNL     1      -4.605   4.581   0.819  0.00  0.00    +0.004 C 
ATOM      4  C   UNL     1      -3.166   4.241   1.258  0.00  0.00    +0.116 C 
ATOM      5  N   UNL     1      -2.456   3.840   0.038  0.00  0.00    -0.269 N 
ATOM      6  C   UNL     1      -3.130   4.213  -1.065  0.00  0.00    +0.210 C 
ATOM      7  O   UNL     1      -2.755   4.029  -2.204  0.00  0.00    -0.277 OA
ATOM      8  C   UNL     1      -4.417   4.891  -0.683  0.00  0.00    +0.018 C 
ATOM      9  C   UNL     1      -6.502   5.442  -1.646  0.00  0.00    -0.076 C 
ATOM     10  C   UNL     1      -5.566   6.644  -1.923  0.00  0.00    -0.019 C 
ATOM     11  C   UNL     1      -4.386   6.394  -0.953  0.00  0.00    -0.004 C 
ATOM     12  N   UNL     1      -5.574   4.339  -1.375  0.00  0.00    +0.396 N 
ATOM     13  H   UNL     1      -5.282   3.900  -2.256  0.00  0.00    -0.079 HD
ENDROOT
BRANCH   5  14
ATOM     14  C   UNL     1      -1.236   3.152   0.024  0.00  0.00    +0.078 A 
ATOM     15  C   UNL     1      -0.041   3.856   0.010  0.00  0.00    +0.027 A 
ATOM     16  C   UNL     1       1.162   3.175  -0.003  0.00  0.00    +0.002 A 
ATOM     17  C   UNL     1       1.177   1.793  -0.003  0.00  0.00    +0.004 A 
ATOM     18  C   UNL     1      -0.010   1.084   0.010  0.00  0.00    +0.047 A 
ATOM     19  C   UNL     1      -1.220   1.759   0.018  0.00  0.00    +0.141 A 
BRANCH  19  20
ATOM     20  O   UNL     1      -2.388   1.064   0.025  0.00  0.00    -0.493 OA
ATOM     21  C   UNL     1      -2.294  -0.362   0.024  0.00  0.00    +0.277 C 
ENDBRANCH  19  20
ENDBRANCH   5  14
BRANCH   1  25
ATOM     22  C   UNL     1      -9.393   4.672   0.731  0.00  0.00    +0.131 A 
ATOM     23  C   UNL     1      -9.834   4.088  -0.398  0.00  0.00    +0.047 A 
ATOM     24  C   UNL     1      -8.709   3.507  -1.026  0.00  0.00    +0.043 A 
ATOM     25  C   UNL     1      -7.648   3.764  -0.239  0.00  0.00    +0.092 A 
ATOM     26  O   UNL     1      -8.068   4.472   0.821  0.00  0.00    -0.464 OA
BRANCH  22  27
ATOM     27  C   UNL     1     -10.241   5.423   1.725  0.00  0.00    +0.233 C 
BRANCH  27  29
ATOM     28  C   UNL     1     -11.547   5.130   3.713  0.00  0.00    +0.194 C 
ATOM     29  O   UNL     1     -10.727   4.516   2.716  0.00  0.00    -0.375 OA
ENDBRANCH  27  29
ENDBRANCH  22  27
ENDBRANCH   1  25
TORSDOF 5
