REMARK  Name = ZINC51675590
REMARK  6 active torsions:
REMARK  status: ('A' for Active; 'I' for Inactive)
REMARK    1  A    between atoms: C_1  and  C_2
REMARK    2  A    between atoms: C_2  and  C_3
REMARK    3  A    between atoms: C_3  and  N_4
REMARK    4  A    between atoms: C_5  and  C_7
REMARK    5  A    between atoms: N_16  and  C_17
REMARK    6  A    between atoms: C_17  and  C_18
REMARK                            x       y       z     vdW  Elec       q    Type
REMARK                         _______ _______ _______ _____ _____    ______ ____
ROOT
ATOM      1  C   UNL     1       1.336  -4.126  -2.293  0.00  0.00    +0.092 C 
ATOM      2  C   UNL     1       2.056  -4.620  -3.550  0.00  0.00    +0.016 C 
ATOM      3  C   UNL     1       2.110  -6.150  -3.540  0.00  0.00    +0.020 C 
ATOM      4  C   UNL     1       0.683  -6.707  -3.549  0.00  0.00    +0.109 C 
ATOM      5  N   UNL     1      -0.060  -6.123  -2.424  0.00  0.00    -0.285 N 
ATOM      6  C   UNL     1      -0.099  -4.660  -2.287  0.00  0.00    +0.122 C 
ATOM      7  C   UNL     1      -0.694  -6.913  -1.535  0.00  0.00    +0.302 C 
ATOM      8  O   UNL     1      -1.224  -6.423  -0.556  0.00  0.00    -0.253 OA
ATOM      9  N   UNL     1      -0.739  -8.246  -1.730  0.00  0.00    -0.295 N 
ATOM     10  H   UNL     1      -0.255  -8.644  -2.470  0.00  0.00    +0.151 HD
ENDROOT
BRANCH   1  12
ATOM     11  N   UNL     1       0.725  -1.958  -1.270  0.00  0.00    -0.315 N 
ATOM     12  C   UNL     1       1.312  -2.619  -2.288  0.00  0.00    +0.218 C 
ATOM     13  O   UNL     1       1.821  -2.001  -3.199  0.00  0.00    -0.275 OA
ATOM     14  H   UNL     1       0.318  -2.452  -0.542  0.00  0.00    +0.149 HD
BRANCH  11  15
ATOM     15  C   UNL     1       0.701  -0.493  -1.265  0.00  0.00    +0.104 C 
BRANCH  15  17
ATOM     16  C   UNL     1      -0.045   1.530  -0.004  0.00  0.00    +0.005 C 
ATOM     17  C   UNL     1      -0.020   0.001  -0.009  0.00  0.00    +0.015 C 
ENDBRANCH  15  17
ENDBRANCH  11  15
ENDBRANCH   1  12
BRANCH   9  18
ATOM     18  C   UNL     1      -1.519  -9.092  -0.824  0.00  0.00    +0.142 C 
BRANCH  18  19
ATOM     19  C   UNL     1      -1.405 -10.531  -1.258  0.00  0.00    -0.012 A 
ATOM     20  C   UNL     1      -2.419 -11.113  -1.995  0.00  0.00    +0.008 A 
ATOM     21  C   UNL     1      -2.315 -12.432  -2.393  0.00  0.00    +0.020 A 
ATOM     22  C   UNL     1      -1.195 -13.171  -2.055  0.00  0.00    +0.042 A 
ATOM     23  C   UNL     1      -0.180 -12.589  -1.318  0.00  0.00    +0.040 A 
ATOM     24  C   UNL     1      -0.282 -11.267  -0.924  0.00  0.00    +0.047 A 
ATOM     25 CL   UNL     1       0.995 -10.534  -0.004  0.00  0.00    -0.083 Cl
ATOM     26 CL   UNL     1      -1.065 -14.829  -2.555  0.00  0.00    -0.083 Cl
ENDBRANCH  18  19
ENDBRANCH   9  18
TORSDOF 5
