REMARK  Name = ZINC35072159
REMARK  13 active torsions:
REMARK  status: ('A' for Active; 'I' for Inactive)
REMARK    1  A    between atoms: C_1  and  C_2
REMARK    2  A    between atoms: C_2  and  N_3
REMARK    3  A    between atoms: N_6  and  C_7
REMARK    4  A    between atoms: N_6  and  C_12
REMARK    5  A    between atoms: C_7  and  C_8
REMARK    6  A    between atoms: C_8  and  N_9
REMARK    7  A    between atoms: N_9  and  C_10
REMARK    8  A    between atoms: N_9  and  C_11
REMARK    9  A    between atoms: C_12  and  C_14
REMARK   10  A    between atoms: C_12  and  C_15
REMARK   11  A    between atoms: N_25  and  C_26
REMARK   12  A    between atoms: C_28  and  C_33
REMARK   13  A    between atoms: C_31  and  C_32
REMARK                            x       y       z     vdW  Elec       q    Type
REMARK                         _______ _______ _______ _____ _____    ______ ____
ROOT
ATOM      1  C   UNL     1       3.134  -0.601   2.860  0.00  0.00    +0.138 A 
ATOM      2  N   UNL     1       3.279  -0.142   1.654  0.00  0.00    -0.231 NA
ATOM      3  C   UNL     1       4.040   0.951   1.395  0.00  0.00    +0.078 A 
ATOM      4  C   UNL     1       4.195   1.445   0.098  0.00  0.00    +0.028 A 
ATOM      5  C   UNL     1       4.976   2.558  -0.118  0.00  0.00    +0.002 A 
ATOM      6  C   UNL     1       5.615   3.196   0.937  0.00  0.00    +0.001 A 
ATOM      7  C   UNL     1       5.477   2.727   2.225  0.00  0.00    +0.015 A 
ATOM      8  C   UNL     1       4.690   1.603   2.466  0.00  0.00    +0.065 A 
ATOM      9  C   UNL     1       4.506   1.058   3.820  0.00  0.00    +0.266 A 
ATOM     10  O   UNL     1       5.039   1.573   4.786  0.00  0.00    -0.267 OA
ATOM     11  N   UNL     1       3.718  -0.034   3.950  0.00  0.00    -0.263 N 
ENDROOT
BRANCH  11  12
ATOM     12  C   UNL     1       3.506  -0.590   5.218  0.00  0.00    +0.054 A 
ATOM     13  C   UNL     1       4.274  -1.665   5.644  0.00  0.00    +0.030 A 
ATOM     14  C   UNL     1       4.063  -2.211   6.895  0.00  0.00    -0.048 A 
ATOM     15  C   UNL     1       3.087  -1.687   7.724  0.00  0.00    +0.004 A 
ATOM     16  C   UNL     1       2.320  -0.616   7.302  0.00  0.00    +0.005 A 
ATOM     17  C   UNL     1       2.531  -0.063   6.054  0.00  0.00    -0.026 A 
ATOM     18  C   UNL     1       1.699   1.108   5.599  0.00  0.00    +0.046 C 
ATOM     19  C   UNL     1       4.896  -3.378   7.358  0.00  0.00    +0.044 C 
ENDBRANCH  11  12
BRANCH   1  20
ATOM     20  C   UNL     1       2.271  -1.820   3.062  0.00  0.00    +0.141 C 
ATOM     21  C   UNL     1       0.948  -1.406   3.709  0.00  0.00    +0.036 C 
BRANCH  20  25
ATOM     22  N   UNL     1       0.986  -0.489   1.017  0.00  0.00    -0.299 N 
ATOM     23  C   UNL     1       1.330  -1.776   0.815  0.00  0.00    +0.303 C 
ATOM     24  O   UNL     1       1.032  -2.329  -0.226  0.00  0.00    -0.253 OA
ATOM     25  N   UNL     1       2.005  -2.451   1.767  0.00  0.00    -0.278 N 
ATOM     26  H   UNL     1       1.165  -0.068   1.872  0.00  0.00    +0.150 HD
BRANCH  22  28
ATOM     27  C   UNL     1       0.060   1.697   0.430  0.00  0.00    +0.024 C 
ATOM     28  C   UNL     1       0.343   0.274  -0.056  0.00  0.00    +0.102 C 
ENDBRANCH  22  28
BRANCH  25  29
ATOM     29  C   UNL     1       2.473  -3.814   1.507  0.00  0.00    +0.091 C 
BRANCH  29  30
ATOM     30  C   UNL     1       3.879  -3.765   0.905  0.00  0.00    -0.060 C 
BRANCH  30  31
ATOM     31  N   UNL     1       4.348  -5.133   0.644  0.00  0.00    +0.377 N 
ATOM     32  C   UNL     1       3.505  -5.751  -0.388  0.00  0.00    -0.097 C 
ATOM     33  C   UNL     1       5.741  -5.093   0.180  0.00  0.00    -0.097 C 
ATOM     34  H   UNL     1       4.292  -5.675   1.493  0.00  0.00    -0.083 HD
ENDBRANCH  30  31
ENDBRANCH  29  30
ENDBRANCH  25  29
ENDBRANCH  20  25
ENDBRANCH   1  20
TORSDOF 7
