REMARK  Name = ZINC63195048
REMARK  7 active torsions:
REMARK  status: ('A' for Active; 'I' for Inactive)
REMARK    1  A    between atoms: C_4  and  C_7
REMARK    2  A    between atoms: C_8  and  C_30
REMARK    3  A    between atoms: C_10  and  S_13
REMARK    4  A    between atoms: S_13  and  C_14
REMARK    5  A    between atoms: C_14  and  C_15
REMARK    6  A    between atoms: C_18  and  N_29
REMARK    7  A    between atoms: N_20  and  C_26
REMARK                            x       y       z     vdW  Elec       q    Type
REMARK                         _______ _______ _______ _____ _____    ______ ____
ROOT
ATOM      1  S   UNL     1       6.613  -3.161   1.495  0.00  0.00    -0.080 S 
ENDROOT
BRANCH   1   5
ATOM      2  C   UNL     1       2.893  -3.906   0.498  0.00  0.00    +0.075 A 
ATOM      3  C   UNL     1       3.555  -4.984  -0.055  0.00  0.00    +0.098 A 
ATOM      4  N   UNL     1       4.866  -4.845   0.222  0.00  0.00    -0.221 NA
ATOM      5  C   UNL     1       5.056  -3.745   0.913  0.00  0.00    +0.168 A 
ATOM      6  N   UNL     1       3.859  -3.125   1.105  0.00  0.00    -0.332 N 
ATOM      7  H   UNL     1       3.712  -2.292   1.580  0.00  0.00    +0.168 HD
BRANCH   2  11
ATOM      8  C   UNL     1      -1.279  -3.134   0.348  0.00  0.00    +0.000 A 
ATOM      9  C   UNL     1      -0.385  -2.171  -0.087  0.00  0.00    +0.001 A 
ATOM     10  C   UNL     1       0.972  -2.415  -0.041  0.00  0.00    +0.010 A 
ATOM     11  C   UNL     1       1.442  -3.637   0.447  0.00  0.00    +0.000 A 
ATOM     12  C   UNL     1       0.534  -4.604   0.885  0.00  0.00    +0.010 A 
ATOM     13  C   UNL     1      -0.820  -4.346   0.833  0.00  0.00    +0.001 A 
ENDBRANCH   2  11
BRANCH   3  14
ATOM     14  C   UNL     1       2.936  -6.093  -0.815  0.00  0.00    +0.002 A 
ATOM     15  C   UNL     1       1.875  -5.840  -1.685  0.00  0.00    +0.010 A 
ATOM     16  C   UNL     1       1.302  -6.878  -2.391  0.00  0.00    +0.001 A 
ATOM     17  C   UNL     1       1.778  -8.168  -2.237  0.00  0.00    +0.000 A 
ATOM     18  C   UNL     1       2.829  -8.426  -1.376  0.00  0.00    +0.001 A 
ATOM     19  C   UNL     1       3.414  -7.395  -0.669  0.00  0.00    +0.010 A 
ENDBRANCH   3  14
ENDBRANCH   1   5
BRANCH   1  20
ATOM     20  C   UNL     1       7.795  -4.410   0.914  0.00  0.00    +0.156 C 
BRANCH  20  21
ATOM     21  C   UNL     1       9.185  -4.026   1.350  0.00  0.00    +0.177 C 
ATOM     22  O   UNL     1       9.582  -4.256   2.618  0.00  0.00    -0.291 OA
ATOM     23  C   UNL     1      10.031  -3.454   0.474  0.00  0.00    +0.092 C 
ATOM     24  C   UNL     1      11.499  -3.259   0.802  0.00  0.00    +0.183 C 
ATOM     25  N   UNL     1      12.328  -2.621  -0.235  0.00  0.00    -0.263 N 
ATOM     26  C   UNL     1      11.752  -2.254  -1.394  0.00  0.00    +0.310 C 
ATOM     27  O   UNL     1      12.444  -1.729  -2.244  0.00  0.00    -0.252 OA
ATOM     28  N   UNL     1      10.453  -2.438  -1.655  0.00  0.00    -0.236 N 
ATOM     29  C   UNL     1       9.590  -3.010  -0.802  0.00  0.00    +0.254 C 
ATOM     30  O   UNL     1       8.423  -3.146  -1.121  0.00  0.00    -0.270 OA
ATOM     31  H   UNL     1      10.116  -2.145  -2.516  0.00  0.00    +0.159 HD
BRANCH  25  32
ATOM     32  C   UNL     1      13.757  -2.391  -0.008  0.00  0.00    +0.080 C 
ATOM     33  C   UNL     1      14.371  -2.966   1.269  0.00  0.00    +0.024 C 
ATOM     34  C   UNL     1      14.149  -1.458   1.139  0.00  0.00    +0.024 C 
ENDBRANCH  25  32
BRANCH  24  35
ATOM     35  N   UNL     1      11.588  -2.442   2.020  0.00  0.00    -0.309 NA
ATOM     36  H   UNL     1      11.008  -2.821   2.753  0.00  0.00    +0.120 HD
ATOM     37  H   UNL     1      12.546  -2.352   2.326  0.00  0.00    +0.120 HD
ENDBRANCH  24  35
ENDBRANCH  20  21
ENDBRANCH   1  20
TORSDOF 7
