REMARK  Name = ZINC31672828
REMARK  4 active torsions:
REMARK  status: ('A' for Active; 'I' for Inactive)
REMARK    1  A    between atoms: C_1  and  C_2
REMARK    2  A    between atoms: C_11  and  O_13
REMARK    3  A    between atoms: O_13  and  C_14
REMARK    4  A    between atoms: C_14  and  C_15
REMARK                            x       y       z     vdW  Elec       q    Type
REMARK                         _______ _______ _______ _____ _____    ______ ____
ROOT
ATOM      1  O   UNL     1      -2.401   1.704   0.023  0.00  0.00    -0.483 OA
ENDROOT
BRANCH   1  12
ATOM      2  C   UNL     1       3.719   3.905  -0.011  0.00  0.00    +0.045 C 
ATOM      3  C   UNL     1       2.380   4.597   0.004  0.00  0.00    -0.033 A 
ATOM      4  C   UNL     1       2.295   5.952   0.012  0.00  0.00    +0.096 A 
ATOM      5  C   UNL     1       1.031   6.576   0.027  0.00  0.00    +0.337 A 
ATOM      6  O   UNL     1       0.969   7.793   0.035  0.00  0.00    -0.245 OA
ATOM      7  O   UNL     1      -0.107   5.864   0.034  0.00  0.00    -0.422 OA
ATOM      8  C   UNL     1      -0.093   4.514   0.026  0.00  0.00    +0.143 A 
ATOM      9  C   UNL     1       1.135   3.826   0.011  0.00  0.00    +0.022 A 
ATOM     10  C   UNL     1       1.154   2.426   0.004  0.00  0.00    +0.035 A 
ATOM     11  C   UNL     1      -0.021   1.732   0.012  0.00  0.00    +0.083 A 
ATOM     12  C   UNL     1      -1.241   2.408   0.021  0.00  0.00    +0.143 A 
ATOM     13  C   UNL     1      -1.277   3.793   0.033  0.00  0.00    +0.094 A 
ATOM     14 CL   UNL     1       0.002  -0.004   0.002  0.00  0.00    -0.080 Cl
ENDBRANCH   1  12
BRANCH   1  15
ATOM     15  C   UNL     1      -3.616   2.456   0.033  0.00  0.00    +0.305 C 
BRANCH  15  16
ATOM     16  C   UNL     1      -4.791   1.512   0.033  0.00  0.00    +0.173 A 
ATOM     17  N   UNL     1      -5.314   1.110  -1.112  0.00  0.00    -0.196 NA
ATOM     18  C   UNL     1      -6.349   0.273  -1.116  0.00  0.00    +0.217 A 
ATOM     19  N   UNL     1      -6.862  -0.151   0.034  0.00  0.00    -0.181 NA
ATOM     20  C   UNL     1      -6.338   0.260   1.183  0.00  0.00    +0.217 A 
ATOM     21  N   UNL     1      -5.300   1.093   1.179  0.00  0.00    -0.196 NA
ATOM     22  N   UNL     1      -6.868  -0.177   2.380  0.00  0.00    -0.327 N 
ATOM     23  N   UNL     1      -6.891  -0.151  -2.312  0.00  0.00    -0.327 N 
ATOM     24  H   UNL     1      -6.433   0.164   3.331  0.00  0.00    +0.145 HD
ATOM     25  H   UNL     1      -7.726  -0.865   2.383  0.00  0.00    +0.145 HD
ATOM     26  H   UNL     1      -7.746  -0.843  -2.315  0.00  0.00    +0.145 HD
ATOM     27  H   UNL     1      -6.467   0.203  -3.264  0.00  0.00    +0.145 HD
ENDBRANCH  15  16
ENDBRANCH   1  15
TORSDOF 3
