REMARK  Name = ZINC14160916
REMARK  6 active torsions:
REMARK  status: ('A' for Active; 'I' for Inactive)
REMARK    1  A    between atoms: C_1  and  C_2
REMARK    2  A    between atoms: C_4  and  C_32
REMARK    3  A    between atoms: N_10  and  C_11
REMARK    4  A    between atoms: C_11  and  N_13
REMARK    5  A    between atoms: N_13  and  C_14
REMARK    6  A    between atoms: C_25  and  C_27
REMARK                            x       y       z     vdW  Elec       q    Type
REMARK                         _______ _______ _______ _____ _____    ______ ____
ROOT
ATOM      1  C   UNL     1       0.120  -3.631   4.280  0.00  0.00    +0.066 C 
ATOM      2  C   UNL     1       0.180  -3.025   5.659  0.00  0.00    +0.044 A 
ATOM      3  C   UNL     1       0.473  -3.815   6.759  0.00  0.00    +0.046 A 
ATOM      4  C   UNL     1       0.518  -3.218   8.009  0.00  0.00    +0.044 A 
ATOM      5  N   UNL     1       0.280  -1.921   8.114  0.00  0.00    -0.219 NA
ATOM      6  C   UNL     1       0.003  -1.195   7.042  0.00  0.00    +0.222 A 
ATOM      7  N   UNL     1      -0.053  -1.735   5.834  0.00  0.00    -0.219 NA
ATOM      8  N   UNL     1      -0.242   0.164   7.188  0.00  0.00    -0.258 N 
ATOM      9  C   UNL     1      -0.531   0.929   6.090  0.00  0.00    +0.180 C 
ATOM     10  N   UNL     1      -0.478   0.398   4.881  0.00  0.00    -0.164 NA
ATOM     11  N   UNL     1      -0.874   2.241   6.245  0.00  0.00    -0.302 N 
ATOM     12  C   UNL     1      -1.916   2.846   5.403  0.00  0.00    +0.126 C 
ATOM     13  C   UNL     1      -2.986   3.460   6.321  0.00  0.00    +0.127 C 
ATOM     14  N   UNL     1      -2.317   4.295   7.328  0.00  0.00    -0.292 N 
ATOM     15  C   UNL     1      -1.271   3.692   8.166  0.00  0.00    +0.127 C 
ATOM     16  C   UNL     1      -0.204   3.076   7.252  0.00  0.00    +0.126 C 
ATOM     17  C   UNL     1      -2.655   5.591   7.480  0.00  0.00    +0.282 C 
ATOM     18  O   UNL     1      -3.599   6.050   6.863  0.00  0.00    -0.267 OA
ATOM     19  C   UNL     1       0.834  -4.036   9.235  0.00  0.00    +0.066 C 
ATOM     20  H   UNL     1      -0.209   0.571   8.068  0.00  0.00    +0.157 HD
ENDROOT
BRANCH  17  21
ATOM     21  C   UNL     1      -1.885   6.448   8.387  0.00  0.00    +0.189 A 
ATOM     22  C   UNL     1      -2.201   7.729   8.742  0.00  0.00    +0.054 A 
ATOM     23  C   UNL     1      -1.197   8.162   9.622  0.00  0.00    +0.042 A 
ATOM     24  C   UNL     1      -0.324   7.141   9.764  0.00  0.00    +0.196 A 
ATOM     25  O   UNL     1      -0.745   6.108   9.023  0.00  0.00    -0.458 OA
ENDBRANCH  17  21
BRANCH  10  26
ATOM     26  C   UNL     1      -0.604   1.180   3.799  0.00  0.00    +0.157 C 
ATOM     27  S   UNL     1       0.449   2.511   3.577  0.00  0.00    -0.017 S 
BRANCH  26  28
ATOM     28  N   UNL     1      -1.561   0.917   2.887  0.00  0.00    -0.322 N 
ATOM     29  H   UNL     1      -2.157   0.163   3.013  0.00  0.00    +0.148 HD
BRANCH  28  30
ATOM     30  C   UNL     1      -1.699   1.771   1.704  0.00  0.00    +0.072 C 
ATOM     31  C   UNL     1      -2.365   0.995   0.541  0.00  0.00    +0.022 C 
ATOM     32  C   UNL     1      -2.985   2.094  -0.346  0.00  0.00    +0.002 C 
ATOM     33  C   UNL     1      -3.204   3.318   0.561  0.00  0.00    +0.002 C 
ATOM     34  C   UNL     1      -2.710   2.920   1.967  0.00  0.00    +0.022 C 
ENDBRANCH  28  30
ENDBRANCH  26  28
ENDBRANCH  10  26
TORSDOF 4
