REMARK  Name = ZINC64045177
REMARK  12 active torsions:
REMARK  status: ('A' for Active; 'I' for Inactive)
REMARK    1  A    between atoms: C_1  and  C_2
REMARK    2  A    between atoms: C_2  and  O_3
REMARK    3  A    between atoms: O_3  and  C_4
REMARK    4  A    between atoms: C_8  and  C_11
REMARK    5  A    between atoms: C_9  and  O_10
REMARK    6  A    between atoms: C_11  and  N_12
REMARK    7  A    between atoms: C_14  and  N_23
REMARK    8  A    between atoms: C_17  and  C_19
REMARK    9  A    between atoms: C_19  and  O_21
REMARK   10  A    between atoms: O_21  and  C_22
REMARK   11  A    between atoms: C_24  and  C_26
REMARK   12  A    between atoms: C_28  and  C_37
REMARK                            x       y       z     vdW  Elec       q    Type
REMARK                         _______ _______ _______ _____ _____    ______ ____
ROOT
ATOM      1  N   UNL     1       3.693  -4.077  -3.664  0.00  0.00    -0.284 NA
ATOM      2  C   UNL     1       4.074  -2.643  -3.748  0.00  0.00    +0.107 C 
ATOM      3  C   UNL     1       5.577  -2.660  -4.100  0.00  0.00    +0.089 C 
ATOM      4  C   UNL     1       5.814  -4.025  -4.779  0.00  0.00    +0.054 C 
ATOM      5  C   UNL     1       4.435  -4.717  -4.780  0.00  0.00    +0.168 C 
ENDROOT
BRANCH   3   6
ATOM      6  N   UNL     1       6.386  -2.548  -2.884  0.00  0.00    -0.309 N 
ATOM      7  C   UNL     1       6.688  -1.333  -2.385  0.00  0.00    +0.240 C 
ATOM      8  O   UNL     1       6.289  -0.332  -2.943  0.00  0.00    -0.273 OA
ATOM      9  H   UNL     1       6.705  -3.348  -2.437  0.00  0.00    +0.149 HD
BRANCH   7  10
ATOM     10  C   UNL     1       7.520  -1.217  -1.134  0.00  0.00    +0.193 C 
ATOM     11  C   UNL     1       8.987  -1.368  -1.468  0.00  0.00    -0.033 C 
ATOM     12  C   UNL     1       9.577  -0.208  -1.097  0.00  0.00    +0.001 A 
ATOM     13  C   UNL     1      10.965   0.265  -1.158  0.00  0.00    +0.030 A 
ATOM     14  C   UNL     1      11.257   1.504  -0.699  0.00  0.00    +0.042 A 
ATOM     15  C   UNL     1      10.268   2.345  -0.167  0.00  0.00    +0.022 A 
ATOM     16  C   UNL     1       8.972   1.980  -0.078  0.00  0.00    +0.027 A 
ATOM     17  C   UNL     1       8.553   0.699  -0.531  0.00  0.00    +0.043 A 
ATOM     18  N   UNL     1       7.374   0.122  -0.551  0.00  0.00    -0.370 N 
ATOM     19 CL   UNL     1      12.898   2.067  -0.768  0.00  0.00    -0.084 Cl
ATOM     20  C   UNL     1       9.656  -2.567  -2.088  0.00  0.00    +0.042 C 
ATOM     21  H   UNL     1       6.545   0.514  -0.235  0.00  0.00    +0.161 HD
ENDBRANCH   7  10
ENDBRANCH   3   6
BRANCH   5  22
ATOM     22  C   UNL     1       4.588  -6.195  -4.530  0.00  0.00    +0.324 C 
ATOM     23  O   UNL     1       4.132  -6.688  -3.525  0.00  0.00    -0.249 OA
BRANCH  22  24
ATOM     24  O   UNL     1       5.232  -6.964  -5.422  0.00  0.00    -0.467 OA
ATOM     25  C   UNL     1       5.340  -8.357  -5.120  0.00  0.00    +0.280 C 
ENDBRANCH  22  24
ENDBRANCH   5  22
BRANCH   1  26
ATOM     26  C   UNL     1       2.243  -4.247  -3.829  0.00  0.00    +0.124 C 
BRANCH  26  31
ATOM     27  C   UNL     1       0.906  -4.174  -0.288  0.00  0.00    +0.162 A 
ATOM     28  C   UNL     1       0.241  -2.959  -0.274  0.00  0.00    +0.049 A 
ATOM     29  C   UNL     1       0.227  -2.166  -1.407  0.00  0.00    +0.004 A 
ATOM     30  C   UNL     1       0.874  -2.583  -2.555  0.00  0.00    +0.009 A 
ATOM     31  C   UNL     1       1.539  -3.795  -2.575  0.00  0.00    +0.012 A 
ATOM     32  C   UNL     1       1.562  -4.592  -1.442  0.00  0.00    +0.163 A 
BRANCH  32  33
ATOM     33  O   UNL     1       2.221  -5.781  -1.459  0.00  0.00    -0.503 OA
ATOM     34  H   UNL     1       1.695  -6.517  -1.802  0.00  0.00    +0.292 HD
ENDBRANCH  32  33
BRANCH  27  35
ATOM     35  O   UNL     1       0.921  -4.955   0.825  0.00  0.00    -0.489 OA
BRANCH  35  37
ATOM     36  C   UNL     1       0.353  -5.471   3.117  0.00  0.00    +0.048 C 
ATOM     37  C   UNL     1       0.226  -4.463   1.972  0.00  0.00    +0.226 C 
ENDBRANCH  35  37
ENDBRANCH  27  35
ENDBRANCH  26  31
ENDBRANCH   1  26
TORSDOF 9
