REMARK  Name = ZINC16458842
REMARK  15 active torsions:
REMARK  status: ('A' for Active; 'I' for Inactive)
REMARK    1  A    between atoms: C_1  and  C_2
REMARK    2  A    between atoms: C_2  and  C_3
REMARK    3  A    between atoms: C_3  and  C_5
REMARK    4  A    between atoms: C_3  and  N_6
REMARK    5  A    between atoms: N_6  and  C_7
REMARK    6  A    between atoms: C_7  and  C_8
REMARK    7  A    between atoms: N_10  and  C_11
REMARK    8  A    between atoms: N_10  and  C_25
REMARK    9  A    between atoms: C_11  and  C_12
REMARK   10  A    between atoms: N_16  and  C_17
REMARK   11  A    between atoms: C_17  and  C_18
REMARK   12  A    between atoms: C_25  and  C_26
REMARK   13  A    between atoms: C_26  and  C_27
REMARK   14  A    between atoms: C_26  and  C_28
REMARK   15  A    between atoms: C_29  and  C_31
REMARK                            x       y       z     vdW  Elec       q    Type
REMARK                         _______ _______ _______ _____ _____    ______ ____
ROOT
ATOM      1  C   UNL     1      -2.649   2.534   0.933  0.00  0.00    +0.233 C 
ATOM      2  O   UNL     1      -2.597   2.921   2.082  0.00  0.00    -0.274 OA
ATOM      3  N   UNL     1      -1.557   1.998   0.353  0.00  0.00    -0.294 N 
ENDROOT
BRANCH   1   4
ATOM      4  C   UNL     1      -3.935   2.652   0.156  0.00  0.00    +0.204 C 
BRANCH   4   5
ATOM      5  N   UNL     1      -4.958   3.278   0.997  0.00  0.00    -0.286 N 
ATOM      6  C   UNL     1      -5.013   4.620   1.106  0.00  0.00    +0.254 C 
ATOM      7  O   UNL     1      -4.275   5.316   0.432  0.00  0.00    -0.269 OA
BRANCH   6   8
ATOM      8  C   UNL     1      -5.960   5.242   2.035  0.00  0.00    +0.074 A 
ATOM      9  C   UNL     1      -6.522   6.509   1.993  0.00  0.00    +0.021 A 
ATOM     10  C   UNL     1      -7.391   6.841   3.002  0.00  0.00    +0.008 A 
ATOM     11  C   UNL     1      -7.654   5.932   3.977  0.00  0.00    +0.046 A 
ATOM     12  S   UNL     1      -6.696   4.564   3.513  0.00  0.00    -0.092 S 
ENDBRANCH   6   8
BRANCH   5  13
ATOM     13  C   UNL     1      -5.923   2.445   1.719  0.00  0.00    +0.074 C 
ATOM     14  C   UNL     1      -5.194   1.638   2.795  0.00  0.00    +0.028 C 
BRANCH  13  16
ATOM     15  C   UNL     1      -7.354   2.296  -0.323  0.00  0.00    +0.005 C 
ATOM     16  C   UNL     1      -6.605   1.489   0.739  0.00  0.00    +0.019 C 
ENDBRANCH  13  16
ENDBRANCH   5  13
ENDBRANCH   4   5
ENDBRANCH   1   4
BRANCH   3  17
ATOM     17  C   UNL     1      -0.308   1.883   1.109  0.00  0.00    +0.161 C 
BRANCH  17  18
ATOM     18  C   UNL     1       0.445   3.187   1.036  0.00  0.00    +0.036 A 
ATOM     19  C   UNL     1       0.380   4.189   1.936  0.00  0.00    +0.024 A 
ATOM     20  C   UNL     1       1.237   5.213   1.490  0.00  0.00    +0.019 A 
ATOM     21  C   UNL     1       1.788   4.802   0.329  0.00  0.00    +0.086 A 
ATOM     22  N   UNL     1       1.305   3.559   0.046  0.00  0.00    -0.345 N 
BRANCH  22  23
ATOM     23  C   UNL     1       1.653   2.756  -1.129  0.00  0.00    +0.158 C 
BRANCH  23  24
ATOM     24  C   UNL     1       2.738   3.452  -1.910  0.00  0.00    -0.009 A 
ATOM     25  C   UNL     1       4.058   3.073  -1.748  0.00  0.00    +0.007 A 
ATOM     26  C   UNL     1       5.053   3.712  -2.464  0.00  0.00    +0.000 A 
ATOM     27  C   UNL     1       4.729   4.729  -3.343  0.00  0.00    +0.001 A 
ATOM     28  C   UNL     1       3.410   5.109  -3.505  0.00  0.00    +0.020 A 
ATOM     29  C   UNL     1       2.413   4.466  -2.793  0.00  0.00    +0.046 A 
ATOM     30 CL   UNL     1       0.755   4.938  -3.002  0.00  0.00    -0.083 Cl
ENDBRANCH  23  24
ENDBRANCH  22  23
ENDBRANCH  17  18
ENDBRANCH   3  17
BRANCH   3  31
ATOM     31  C   UNL     1      -1.620   1.532  -1.035  0.00  0.00    +0.111 C 
BRANCH  31  32
ATOM     32  C   UNL     1      -2.176   0.106  -1.068  0.00  0.00    +0.000 C 
ATOM     33  C   UNL     1      -2.373  -0.330  -2.522  0.00  0.00    +0.009 C 
ATOM     34  C   UNL     1      -1.192  -0.842  -0.380  0.00  0.00    +0.009 C 
ENDBRANCH  31  32
ENDBRANCH   3  31
TORSDOF 11
