REMARK  Name = ZINC63520717
REMARK  7 active torsions:
REMARK  status: ('A' for Active; 'I' for Inactive)
REMARK    1  A    between atoms: C_1  and  C_2
REMARK    2  A    between atoms: C_5  and  N_8
REMARK    3  A    between atoms: C_14  and  C_19
REMARK    4  A    between atoms: N_21  and  C_22
REMARK    5  A    between atoms: C_22  and  C_23
REMARK    6  A    between atoms: C_23  and  C_24
REMARK    7  A    between atoms: C_32  and  C_34
REMARK                            x       y       z     vdW  Elec       q    Type
REMARK                         _______ _______ _______ _____ _____    ______ ____
ROOT
ATOM      1  N   UNL     1       0.058  -4.172  -0.021  0.00  0.00    -0.202 N 
ATOM      2  C   UNL     1       0.069  -4.926  -1.134  0.00  0.00    +0.258 C 
ATOM      3  O   UNL     1       0.063  -4.508  -2.274  0.00  0.00    -0.269 OA
ATOM      4  C   UNL     1       0.088  -6.352  -0.737  0.00  0.00    +0.050 A 
ATOM      5  C   UNL     1       0.105  -7.548  -1.436  0.00  0.00    +0.014 A 
ATOM      6  C   UNL     1       0.121  -8.750  -0.749  0.00  0.00    +0.014 A 
ATOM      7  C   UNL     1       0.121  -8.763   0.646  0.00  0.00    +0.037 A 
ATOM      8  C   UNL     1       0.104  -7.561   1.359  0.00  0.00    +0.027 A 
ATOM      9  C   UNL     1       0.088  -6.359   0.673  0.00  0.00    +0.050 A 
ATOM     10  C   UNL     1       0.074  -4.939   1.084  0.00  0.00    +0.258 C 
ATOM     11  O   UNL     1       0.073  -4.532   2.228  0.00  0.00    -0.269 OA
ENDROOT
BRANCH   1  16
ATOM     12  C   UNL     1      -0.018   1.503   0.010  0.00  0.00    +0.044 C 
ATOM     13  C   UNL     1       0.002  -0.004   0.002  0.00  0.00    -0.050 A 
ATOM     14  C   UNL     1       0.006  -0.688  -1.200  0.00  0.00    +0.005 A 
ATOM     15  C   UNL     1       0.024  -2.068  -1.211  0.00  0.00    +0.024 A 
ATOM     16  C   UNL     1       0.040  -2.771  -0.013  0.00  0.00    +0.045 A 
ATOM     17  C   UNL     1       0.036  -2.082   1.192  0.00  0.00    +0.024 A 
ATOM     18  C   UNL     1       0.023  -0.700   1.196  0.00  0.00    +0.005 A 
ENDBRANCH   1  16
BRANCH   7  19
ATOM     19  C   UNL     1       0.138 -10.052   1.373  0.00  0.00    +0.244 C 
ATOM     20  O   UNL     1       0.138 -10.065   2.588  0.00  0.00    -0.270 OA
ATOM     21  N   UNL     1       0.154 -11.212   0.686  0.00  0.00    -0.311 N 
ATOM     22  H   UNL     1       0.154 -11.202  -0.283  0.00  0.00    +0.149 HD
BRANCH  21  23
ATOM     23  C   UNL     1       0.171 -12.488   1.406  0.00  0.00    +0.109 C 
BRANCH  23  24
ATOM     24  C   UNL     1       0.187 -13.641   0.399  0.00  0.00    +0.052 C 
BRANCH  24  25
ATOM     25  C   UNL     1       0.205 -14.953   1.139  0.00  0.00    -0.037 C 
ATOM     26  C   UNL     1       0.201 -15.131   2.480  0.00  0.00    +0.002 A 
ATOM     27  C   UNL     1       0.180 -14.192   3.607  0.00  0.00    +0.048 A 
ATOM     28  C   UNL     1       0.182 -14.681   4.870  0.00  0.00    +0.124 A 
ATOM     29  C   UNL     1       0.203 -16.061   5.125  0.00  0.00    +0.040 A 
ATOM     30  C   UNL     1       0.223 -16.984   4.141  0.00  0.00    +0.029 A 
ATOM     31  C   UNL     1       0.223 -16.581   2.777  0.00  0.00    +0.043 A 
ATOM     32  N   UNL     1       0.240 -17.273   1.663  0.00  0.00    -0.378 N 
ATOM     33  C   UNL     1       0.224 -16.339   0.532  0.00  0.00    +0.103 C 
ATOM     34  C   UNL     1      -1.028 -16.558  -0.320  0.00  0.00    +0.035 C 
ATOM     35  F   UNL     1       0.164 -13.818   5.910  0.00  0.00    -0.205 F 
ATOM     36  H   UNL     1       0.256 -18.241   1.598  0.00  0.00    +0.160 HD
ENDBRANCH  24  25
ENDBRANCH  23  24
ENDBRANCH  21  23
ENDBRANCH   7  19
TORSDOF 5
