REMARK  Name = ZINC00714327
REMARK  6 active torsions:
REMARK  status: ('A' for Active; 'I' for Inactive)
REMARK    1  A    between atoms: C_1  and  C_2
REMARK    2  A    between atoms: N_5  and  C_7
REMARK    3  A    between atoms: C_14  and  N_30
REMARK    4  A    between atoms: C_15  and  C_28
REMARK    5  A    between atoms: C_16  and  C_18
REMARK    6  A    between atoms: C_22  and  N_24
REMARK                            x       y       z     vdW  Elec       q    Type
REMARK                         _______ _______ _______ _____ _____    ______ ____
ROOT
ATOM      1  C   UNL     1      -2.964   1.833   3.098  0.00  0.00    +0.068 C 
ATOM      2  C   UNL     1      -2.767   0.436   2.567  0.00  0.00    +0.068 A 
ATOM      3  C   UNL     1      -2.575   0.092   1.236  0.00  0.00    +0.050 A 
ATOM      4  C   UNL     1      -2.437  -1.267   1.165  0.00  0.00    +0.230 A 
ATOM      5  N   UNL     1      -2.539  -1.751   2.422  0.00  0.00    -0.200 N 
ATOM      6  N   UNL     1      -2.747  -0.663   3.284  0.00  0.00    -0.168 NA
ATOM      7  O   UNL     1      -2.236  -1.923  -0.004  0.00  0.00    -0.423 OA
ATOM      8  C   UNL     1      -2.448  -1.240  -1.148  0.00  0.00    +0.200 C 
ATOM      9  C   UNL     1      -2.587   0.104  -1.207  0.00  0.00    +0.098 C 
ATOM     10  C   UNL     1      -2.514   0.979   0.019  0.00  0.00    +0.101 C 
ENDROOT
BRANCH  10  11
ATOM     11  C   UNL     1      -1.219   1.751   0.017  0.00  0.00    -0.032 A 
ATOM     12  C   UNL     1      -0.013   1.076   0.008  0.00  0.00    +0.006 A 
ATOM     13  C   UNL     1       1.175   1.783   0.000  0.00  0.00    +0.022 A 
ATOM     14  C   UNL     1       1.156   3.166   0.008  0.00  0.00    +0.071 A 
ATOM     15  C   UNL     1      -0.052   3.841   0.022  0.00  0.00    +0.145 A 
ATOM     16  C   UNL     1      -1.239   3.133   0.030  0.00  0.00    +0.038 A 
ATOM     17 CL   UNL     1       2.647   4.055  -0.001  0.00  0.00    -0.081 Cl
BRANCH  15  18
ATOM     18  N   UNL     1      -0.073   5.321   0.029  0.00  0.00    +0.058 N 
ATOM     19  O   UNL     1      -1.136   5.915   0.042  0.00  0.00    -0.126 OA
ATOM     20  O   UNL     1       0.973   5.945   0.022  0.00  0.00    -0.126 OA
ENDBRANCH  15  18
ENDBRANCH  10  11
BRANCH   5  21
ATOM     21  C   UNL     1      -2.453  -3.099   2.798  0.00  0.00    +0.069 A 
ATOM     22  C   UNL     1      -2.960  -4.087   1.965  0.00  0.00    +0.028 A 
ATOM     23  C   UNL     1      -2.869  -5.415   2.335  0.00  0.00    +0.002 A 
ATOM     24  C   UNL     1      -2.283  -5.759   3.540  0.00  0.00    +0.000 A 
ATOM     25  C   UNL     1      -1.782  -4.776   4.374  0.00  0.00    +0.002 A 
ATOM     26  C   UNL     1      -1.865  -3.448   4.006  0.00  0.00    +0.028 A 
ENDBRANCH   5  21
BRANCH   8  27
ATOM     27  N   UNL     1      -2.526  -1.950  -2.320  0.00  0.00    -0.328 N 
ATOM     28  H   UNL     1      -2.430  -2.915  -2.310  0.00  0.00    +0.145 HD
ATOM     29  H   UNL     1      -2.677  -1.486  -3.159  0.00  0.00    +0.145 HD
ENDBRANCH   8  27
BRANCH   9  30
ATOM     30  C   UNL     1      -2.813   0.719  -2.480  0.00  0.00    +0.101 C 
ATOM     31  N   UNL     1      -2.992   1.207  -3.490  0.00  0.00    -0.191 NA
ENDBRANCH   9  30
TORSDOF 5
