REMARK  Name = ZINC12402268
REMARK  9 active torsions:
REMARK  status: ('A' for Active; 'I' for Inactive)
REMARK    1  A    between atoms: C_1  and  C_2
REMARK    2  A    between atoms: C_2  and  C_36
REMARK    3  A    between atoms: N_16  and  C_19
REMARK    4  A    between atoms: C_19  and  C_20
REMARK    5  A    between atoms: C_27  and  C_34
REMARK    6  A    between atoms: C_28  and  N_33
REMARK    7  A    between atoms: N_29  and  N_30
REMARK    8  A    between atoms: N_30  and  C_31
REMARK    9  A    between atoms: N_30  and  C_32
REMARK                            x       y       z     vdW  Elec       q    Type
REMARK                         _______ _______ _______ _____ _____    ______ ____
ROOT
ATOM      1  C   UNL     1       2.749   1.044   2.652  0.00  0.00    +0.011 C 
ATOM      2  C   UNL     1       1.435   1.367   3.365  0.00  0.00    -0.023 C 
ATOM      3  C   UNL     1       1.138   2.863   3.244  0.00  0.00    +0.059 C 
ATOM      4  C   UNL     1      -0.183   3.173   3.904  0.00  0.00    +0.038 C 
ATOM      5  C   UNL     1      -1.173   2.256   3.941  0.00  0.00    +0.038 C 
ATOM      6  C   UNL     1      -1.007   0.984   3.366  0.00  0.00    +0.163 C 
ATOM      7  O   UNL     1      -1.925   0.189   3.398  0.00  0.00    -0.292 OA
ATOM      8  C   UNL     1       0.289   0.586   2.713  0.00  0.00    +0.086 C 
ATOM      9  C   UNL     1      -2.488   2.569   4.607  0.00  0.00    +0.141 C 
ATOM     10  C   UNL     1      -2.596   1.852   5.918  0.00  0.00    -0.001 A 
ATOM     11  C   UNL     1      -1.844   1.940   7.069  0.00  0.00    +0.007 A 
ATOM     12  C   UNL     1      -2.215   1.121   8.130  0.00  0.00    +0.000 A 
ATOM     13  C   UNL     1      -3.289   0.259   8.029  0.00  0.00    +0.002 A 
ATOM     14  C   UNL     1      -4.050   0.165   6.875  0.00  0.00    +0.024 A 
ATOM     15  C   UNL     1      -3.687   0.983   5.803  0.00  0.00    +0.041 A 
ATOM     16  N   UNL     1      -4.261   1.095   4.549  0.00  0.00    -0.265 N 
ATOM     17  C   UNL     1      -3.624   2.001   3.780  0.00  0.00    +0.240 C 
ATOM     18  O   UNL     1      -3.907   2.304   2.640  0.00  0.00    -0.274 OA
ATOM     19  C   UNL     1      -2.675   4.046   4.787  0.00  0.00    +0.090 C 
ATOM     20  C   UNL     1      -1.618   4.897   4.713  0.00  0.00    +0.117 C 
ATOM     21  N   UNL     1      -0.357   4.410   4.463  0.00  0.00    -0.223 N 
ATOM     22  C   UNL     1       1.544   0.982   4.842  0.00  0.00    +0.011 C 
ENDROOT
BRANCH  21  23
ATOM     23  N   UNL     1       0.734   5.168   4.777  0.00  0.00    -0.227 NA
ATOM     24  C   UNL     1       1.622   4.456   5.706  0.00  0.00    +0.128 C 
ATOM     25  C   UNL     1       1.458   5.576   3.566  0.00  0.00    +0.128 C 
ENDBRANCH  21  23
BRANCH  20  26
ATOM     26  N   UNL     1      -1.810   6.246   4.886  0.00  0.00    -0.344 N 
ATOM     27  H   UNL     1      -2.682   6.583   5.143  0.00  0.00    +0.144 HD
ATOM     28  H   UNL     1      -1.072   6.862   4.752  0.00  0.00    +0.144 HD
ENDBRANCH  20  26
BRANCH  19  29
ATOM     29  C   UNL     1      -3.985   4.566   5.041  0.00  0.00    +0.100 C 
ATOM     30  N   UNL     1      -5.024   4.979   5.242  0.00  0.00    -0.191 NA
ENDBRANCH  19  29
BRANCH  16  31
ATOM     31  C   UNL     1      -5.424   0.320   4.109  0.00  0.00    +0.150 C 
BRANCH  31  32
ATOM     32  C   UNL     1      -4.959  -0.955   3.453  0.00  0.00    -0.011 A 
ATOM     33  C   UNL     1      -4.851  -2.115   4.196  0.00  0.00    +0.006 A 
ATOM     34  C   UNL     1      -4.424  -3.284   3.594  0.00  0.00    +0.000 A 
ATOM     35  C   UNL     1      -4.105  -3.293   2.249  0.00  0.00    +0.001 A 
ATOM     36  C   UNL     1      -4.212  -2.133   1.505  0.00  0.00    +0.020 A 
ATOM     37  C   UNL     1      -4.644  -0.964   2.106  0.00  0.00    +0.046 A 
ATOM     38 CL   UNL     1      -4.787   0.491   1.171  0.00  0.00    -0.083 Cl
ENDBRANCH  31  32
ENDBRANCH  16  31
TORSDOF 5
