REMARK  Name = ZINC39500474
REMARK  7 active torsions:
REMARK  status: ('A' for Active; 'I' for Inactive)
REMARK    1  A    between atoms: C_1  and  C_2
REMARK    2  A    between atoms: C_2  and  C_4
REMARK    3  A    between atoms: C_2  and  N_9
REMARK    4  A    between atoms: N_9  and  C_10
REMARK    5  A    between atoms: N_9  and  C_11
REMARK    6  A    between atoms: N_17  and  C_20
REMARK    7  A    between atoms: C_20  and  C_21
REMARK                            x       y       z     vdW  Elec       q    Type
REMARK                         _______ _______ _______ _____ _____    ______ ____
ROOT
ATOM      1  C   UNL     1       1.493   1.080  -1.068  0.00  0.00    -0.066 C 
ATOM      2  C   UNL     1       1.545   2.582  -1.286  0.00  0.00    -0.006 C 
ATOM      3  C   UNL     1       2.994   3.067  -1.377  0.00  0.00    +0.094 C 
ATOM      4  C   UNL     1       3.469   2.895  -2.804  0.00  0.00    +0.216 C 
ATOM      5  O   UNL     1       3.640   3.870  -3.505  0.00  0.00    -0.276 OA
ATOM      6  N   UNL     1       3.699   1.676  -3.293  0.00  0.00    -0.297 N 
ATOM      7  C   UNL     1       3.501   0.485  -2.451  0.00  0.00    +0.106 C 
ATOM      8  C   UNL     1       1.999   0.275  -2.251  0.00  0.00    +0.004 C 
ENDROOT
BRANCH   1   9
ATOM      9  N   UNL     1       0.102   0.693  -0.798  0.00  0.00    +0.384 N 
ATOM     10  C   UNL     1      -0.694   0.840  -2.024  0.00  0.00    -0.095 C 
ATOM     11  H   UNL     1      -0.278   1.287  -0.076  0.00  0.00    -0.081 HD
BRANCH   9  13
ATOM     12  C   UNL     1       0.877  -0.856   0.933  0.00  0.00    -0.008 C 
ATOM     13  C   UNL     1       0.061  -0.706  -0.352  0.00  0.00    -0.034 C 
BRANCH  13  14
ATOM     14  C   UNL     1      -1.368  -1.108  -0.090  0.00  0.00    -0.024 A 
ATOM     15  C   UNL     1      -1.990  -2.280  -0.370  0.00  0.00    +0.009 A 
ATOM     16  C   UNL     1      -3.323  -2.427  -0.035  0.00  0.00    +0.008 A 
ATOM     17  C   UNL     1      -3.968  -1.396   0.563  0.00  0.00    +0.045 A 
ATOM     18  S   UNL     1      -2.678  -0.168   0.676  0.00  0.00    -0.103 S 
ENDBRANCH  13  14
ENDBRANCH   9  13
ENDBRANCH   1   9
BRANCH   6  19
ATOM     19  C   UNL     1       4.151   1.521  -4.678  0.00  0.00    +0.144 C 
BRANCH  19  20
ATOM     20  C   UNL     1       2.958   1.512  -5.598  0.00  0.00    -0.008 A 
ATOM     21  C   UNL     1       2.578   2.672  -6.247  0.00  0.00    +0.056 A 
ATOM     22  C   UNL     1       1.482   2.666  -7.094  0.00  0.00    +0.167 A 
ATOM     23  C   UNL     1       0.763   1.489  -7.289  0.00  0.00    +0.168 A 
ATOM     24  C   UNL     1       1.149   0.330  -6.637  0.00  0.00    +0.070 A 
ATOM     25  C   UNL     1       2.248   0.341  -5.796  0.00  0.00    +0.049 A 
ATOM     26 CL   UNL     1       2.733  -1.114  -4.984  0.00  0.00    -0.083 Cl
ATOM     27  O   UNL     1      -0.259   1.742  -8.158  0.00  0.00    -0.453 OA
ATOM     28  C   UNL     1      -0.406   3.174  -8.173  0.00  0.00    +0.466 C 
ATOM     29  O   UNL     1       0.909   3.656  -7.839  0.00  0.00    -0.453 OA
ENDBRANCH  19  20
ENDBRANCH   6  19
TORSDOF 5
