REMARK  Name = ZINC39450181
REMARK  4 active torsions:
REMARK  status: ('A' for Active; 'I' for Inactive)
REMARK    1  A    between atoms: C_1  and  S_2
REMARK    2  A    between atoms: S_2  and  C_3
REMARK    3  A    between atoms: N_9  and  C_12
REMARK    4  A    between atoms: C_22  and  O_25
REMARK                            x       y       z     vdW  Elec       q    Type
REMARK                         _______ _______ _______ _____ _____    ______ ____
ROOT
ATOM      1  C   UNL     1      -1.702  -0.454   0.016  0.00  0.00    +0.026 A 
ATOM      2  C   UNL     1      -2.074  -1.795   0.018  0.00  0.00    +0.031 A 
ATOM      3  C   UNL     1      -3.434  -2.095   0.029  0.00  0.00    +0.068 A 
ATOM      4  C   UNL     1      -4.375  -1.041   0.038  0.00  0.00    +0.099 A 
ATOM      5  C   UNL     1      -5.802  -1.385   0.051  0.00  0.00    +0.083 A 
ATOM      6  C   UNL     1      -6.188  -2.714   0.051  0.00  0.00    +0.116 A 
ATOM      7  N   UNL     1      -5.242  -3.733   0.045  0.00  0.00    -0.268 N 
ATOM      8  C   UNL     1      -3.920  -3.482   0.034  0.00  0.00    +0.266 A 
ATOM      9  O   UNL     1      -3.126  -4.405   0.027  0.00  0.00    -0.267 OA
ATOM     10  C   UNL     1      -7.560  -3.045   0.052  0.00  0.00    +0.186 C 
ATOM     11  O   UNL     1      -7.897  -4.211   0.102  0.00  0.00    -0.290 OA
ATOM     12  C   UNL     1      -8.611  -1.967  -0.008  0.00  0.00    +0.132 C 
ATOM     13  C   UNL     1      -8.073  -0.695   0.656  0.00  0.00    +0.207 C 
ATOM     14  N   UNL     1      -6.760  -0.389   0.068  0.00  0.00    -0.316 N 
ATOM     15  N   UNL     1      -3.967   0.223   0.035  0.00  0.00    -0.252 NA
ATOM     16  C   UNL     1      -2.690   0.533   0.031  0.00  0.00    +0.126 A 
ATOM     17  H   UNL     1      -6.571   0.489  -0.298  0.00  0.00    +0.149 HD
ENDROOT
BRANCH   7  18
ATOM     18  C   UNL     1      -5.679  -5.063   0.050  0.00  0.00    +0.097 A 
ATOM     19  C   UNL     1      -5.901  -5.728  -1.148  0.00  0.00    +0.030 A 
ATOM     20  C   UNL     1      -6.332  -7.040  -1.140  0.00  0.00    +0.002 A 
ATOM     21  C   UNL     1      -6.545  -7.695   0.060  0.00  0.00    +0.004 A 
ATOM     22  C   UNL     1      -6.326  -7.040   1.257  0.00  0.00    +0.053 A 
ATOM     23  C   UNL     1      -5.888  -5.726   1.258  0.00  0.00    +0.203 A 
ATOM     24  O   UNL     1      -5.667  -5.082   2.435  0.00  0.00    -0.286 OA
ENDBRANCH   7  18
BRANCH   1  26
ATOM     25  C   UNL     1      -0.022   1.810   0.012  0.00  0.00    +0.090 C 
ATOM     26  S   UNL     1       0.002  -0.004   0.002  0.00  0.00    -0.127 S 
ENDBRANCH   1  26
BRANCH  13  27
ATOM     27  O   UNL     1      -7.934  -0.907   2.063  0.00  0.00    -0.374 OA
ATOM     28  H   UNL     1      -7.596  -0.140   2.545  0.00  0.00    +0.212 HD
ENDBRANCH  13  27
TORSDOF 3
