REMARK  Name = ZINC62496560
REMARK  8 active torsions:
REMARK  status: ('A' for Active; 'I' for Inactive)
REMARK    1  A    between atoms: C_1  and  C_2
REMARK    2  A    between atoms: C_6  and  C_9
REMARK    3  A    between atoms: C_7  and  C_8
REMARK    4  A    between atoms: C_9  and  C_10
REMARK    5  A    between atoms: N_14  and  C_23
REMARK    6  A    between atoms: C_17  and  N_22
REMARK    7  A    between atoms: C_23  and  C_24
REMARK    8  A    between atoms: C_23  and  C_25
REMARK                            x       y       z     vdW  Elec       q    Type
REMARK                         _______ _______ _______ _____ _____    ______ ____
ROOT
ATOM      1  C   UNL     1      -1.253  -3.032   2.974  0.00  0.00    +0.263 C 
ATOM      2  C   UNL     1      -1.224  -3.668   4.341  0.00  0.00    +0.261 C 
ATOM      3  O   UNL     1      -1.099  -2.979   5.331  0.00  0.00    -0.271 OA
ATOM      4  N   UNL     1      -1.339  -5.008   4.458  0.00  0.00    -0.263 N 
ATOM      5  C   UNL     1      -1.609  -5.774   3.317  0.00  0.00    +0.080 A 
ATOM      6  C   UNL     1      -1.508  -7.155   3.357  0.00  0.00    +0.050 A 
ATOM      7  C   UNL     1      -1.766  -7.899   2.213  0.00  0.00    +0.027 A 
ATOM      8  C   UNL     1      -2.123  -7.260   1.033  0.00  0.00    +0.026 A 
ATOM      9  C   UNL     1      -2.229  -5.882   0.995  0.00  0.00    +0.049 A 
ATOM     10  C   UNL     1      -1.979  -5.136   2.134  0.00  0.00    +0.143 A 
ATOM     11  O   UNL     1      -2.112  -3.782   2.114  0.00  0.00    -0.477 OA
ENDROOT
BRANCH   7  12
ATOM     12  N   UNL     1      -1.665  -9.294   2.250  0.00  0.00    -0.358 N 
ATOM     13  H   UNL     1      -1.415  -9.741   3.073  0.00  0.00    +0.142 HD
ATOM     14  H   UNL     1      -1.846  -9.815   1.451  0.00  0.00    +0.142 HD
ENDBRANCH   7  12
BRANCH   4  15
ATOM     15  C   UNL     1      -1.182  -5.653   5.764  0.00  0.00    +0.076 C 
ATOM     16  C   UNL     1       0.201  -5.328   6.331  0.00  0.00    +0.028 C 
ATOM     17  C   UNL     1      -2.259  -5.138   6.721  0.00  0.00    +0.028 C 
ENDBRANCH   4  15
BRANCH   1  18
ATOM     18  C   UNL     1       0.162  -3.013   2.392  0.00  0.00    +0.089 C 
BRANCH  18  24
ATOM     19  C   UNL     1       0.399   1.296  -0.142  0.00  0.00    +0.044 C 
ATOM     20  C   UNL     1       0.269  -0.206  -0.130  0.00  0.00    -0.047 A 
ATOM     21  C   UNL     1       0.144  -0.899  -1.320  0.00  0.00    +0.003 A 
ATOM     22  C   UNL     1       0.025  -2.276  -1.308  0.00  0.00    +0.001 A 
ATOM     23  C   UNL     1       0.031  -2.960  -0.107  0.00  0.00    +0.004 A 
ATOM     24  C   UNL     1       0.156  -2.268   1.083  0.00  0.00    -0.040 A 
ATOM     25  C   UNL     1       0.280  -0.890   1.071  0.00  0.00    -0.044 A 
ATOM     26  C   UNL     1       0.421  -0.136   2.367  0.00  0.00    +0.044 C 
ENDBRANCH  18  24
ENDBRANCH   1  18
TORSDOF 4
