REMARK  Name = ZINC17326419
REMARK  14 active torsions:
REMARK  status: ('A' for Active; 'I' for Inactive)
REMARK    1  A    between atoms: C_1  and  C_2
REMARK    2  A    between atoms: C_2  and  S_4
REMARK    3  A    between atoms: C_2  and  C_22
REMARK    4  A    between atoms: S_4  and  C_5
REMARK    5  A    between atoms: C_5  and  C_7
REMARK    6  A    between atoms: C_5  and  C_21
REMARK    7  A    between atoms: N_9  and  N_10
REMARK    8  A    between atoms: C_11  and  C_12
REMARK    9  A    between atoms: C_11  and  C_20
REMARK   10  A    between atoms: C_15  and  C_18
REMARK   11  A    between atoms: N_24  and  N_25
REMARK   12  A    between atoms: C_26  and  C_27
REMARK   13  A    between atoms: C_26  and  C_35
REMARK   14  A    between atoms: C_30  and  C_33
REMARK                            x       y       z     vdW  Elec       q    Type
REMARK                         _______ _______ _______ _____ _____    ______ ____
ROOT
ATOM      1  S   UNL     1       0.921  -0.454  -1.508  0.00  0.00    -0.136 S 
ENDROOT
BRANCH   1   3
ATOM      2  C   UNL     1       0.927  -0.278   1.221  0.00  0.00    +0.029 C 
ATOM      3  C   UNL     1       0.070   0.075   0.004  0.00  0.00    +0.131 C 
BRANCH   3   4
ATOM      4  C   UNL     1      -1.259  -0.628   0.104  0.00  0.00    +0.245 C 
ATOM      5  O   UNL     1      -1.425  -1.694  -0.451  0.00  0.00    -0.273 OA
ATOM      6  N   UNL     1      -2.263  -0.073   0.811  0.00  0.00    -0.206 N 
ATOM      7  H   UNL     1      -2.131   0.780   1.255  0.00  0.00    +0.177 HD
BRANCH   6   8
ATOM      8  N   UNL     1      -3.499  -0.726   0.904  0.00  0.00    -0.185 NA
ATOM      9  C   UNL     1      -4.466  -0.191   1.585  0.00  0.00    +0.063 C 
ATOM     10  C   UNL     1      -4.260   1.133   2.274  0.00  0.00    +0.068 C 
BRANCH   9  11
ATOM     11  C   UNL     1      -5.766  -0.878   1.683  0.00  0.00    -0.002 A 
ATOM     12  C   UNL     1      -6.810  -0.299   2.411  0.00  0.00    +0.011 A 
ATOM     13  C   UNL     1      -8.015  -0.937   2.502  0.00  0.00    +0.019 A 
ATOM     14  C   UNL     1      -8.204  -2.168   1.867  0.00  0.00    +0.052 A 
ATOM     15  C   UNL     1      -7.160  -2.747   1.139  0.00  0.00    +0.019 A 
ATOM     16  C   UNL     1      -5.957  -2.107   1.043  0.00  0.00    +0.011 A 
BRANCH  14  17
ATOM     17  C   UNL     1      -9.467  -2.836   1.962  0.00  0.00    +0.099 C 
ATOM     18  N   UNL     1     -10.469  -3.366   2.038  0.00  0.00    -0.191 NA
ENDBRANCH  14  17
ENDBRANCH   9  11
ENDBRANCH   6   8
ENDBRANCH   3   4
ENDBRANCH   1   3
BRANCH   1  19
ATOM     19  C   UNL     1      -0.102   0.221  -2.846  0.00  0.00    +0.131 C 
ATOM     20  C   UNL     1      -0.023   1.749  -2.827  0.00  0.00    +0.029 C 
BRANCH  19  21
ATOM     21  C   UNL     1       0.402  -0.291  -4.171  0.00  0.00    +0.245 C 
ATOM     22  O   UNL     1       1.532  -0.722  -4.264  0.00  0.00    -0.273 OA
ATOM     23  N   UNL     1      -0.402  -0.270  -5.252  0.00  0.00    -0.206 N 
ATOM     24  H   UNL     1      -1.306   0.075  -5.177  0.00  0.00    +0.177 HD
BRANCH  23  25
ATOM     25  N   UNL     1       0.066  -0.746  -6.483  0.00  0.00    -0.185 NA
ATOM     26  C   UNL     1      -0.709  -0.725  -7.525  0.00  0.00    +0.063 C 
ATOM     27  C   UNL     1      -2.113  -0.189  -7.409  0.00  0.00    +0.068 C 
BRANCH  26  28
ATOM     28  C   UNL     1      -0.217  -1.226  -8.820  0.00  0.00    -0.002 A 
ATOM     29  C   UNL     1      -1.050  -1.198  -9.943  0.00  0.00    +0.011 A 
ATOM     30  C   UNL     1      -0.593  -1.662 -11.144  0.00  0.00    +0.019 A 
ATOM     31  C   UNL     1       0.708  -2.164 -11.250  0.00  0.00    +0.052 A 
ATOM     32  C   UNL     1       1.541  -2.191 -10.127  0.00  0.00    +0.019 A 
ATOM     33  C   UNL     1       1.086  -1.723  -8.928  0.00  0.00    +0.011 A 
BRANCH  31  34
ATOM     34  C   UNL     1       1.187  -2.650 -12.509  0.00  0.00    +0.099 C 
ATOM     35  N   UNL     1       1.567  -3.036 -13.508  0.00  0.00    -0.191 NA
ENDBRANCH  31  34
ENDBRANCH  26  28
ENDBRANCH  23  25
ENDBRANCH  19  21
ENDBRANCH   1  19
TORSDOF 10
