REMARK  Name = ZINC28288974
REMARK  7 active torsions:
REMARK  status: ('A' for Active; 'I' for Inactive)
REMARK    1  A    between atoms: C_1  and  C_2
REMARK    2  A    between atoms: C_2  and  C_3
REMARK    3  A    between atoms: C_12  and  C_14
REMARK    4  A    between atoms: N_16  and  C_17
REMARK    5  A    between atoms: C_17  and  C_18
REMARK    6  A    between atoms: C_18  and  C_20
REMARK    7  A    between atoms: C_18  and  N_25
REMARK                            x       y       z     vdW  Elec       q    Type
REMARK                         _______ _______ _______ _____ _____    ______ ____
ROOT
ATOM      1  C   UNL     1       3.977  -2.223   2.917  0.00  0.00    +0.279 C 
ATOM      2  O   UNL     1       3.817  -3.045   3.797  0.00  0.00    -0.267 OA
ATOM      3  N   UNL     1       2.937  -1.854   2.143  0.00  0.00    -0.310 N 
ATOM      4  H   UNL     1       3.081  -1.110   1.346  0.00  0.00    +0.149 HD
ENDROOT
BRANCH   1  14
ATOM      5  C   UNL     1       9.067   1.104   0.877  0.00  0.00    -0.047 A 
ATOM      6  C   UNL     1       7.936   1.416   0.136  0.00  0.00    +0.007 A 
ATOM      7  C   UNL     1       6.727   0.813   0.408  0.00  0.00    +0.047 A 
ATOM      8  C   UNL     1       6.635  -0.120   1.437  0.00  0.00    +0.139 A 
ATOM      9  C   UNL     1       7.785  -0.430   2.182  0.00  0.00    +0.064 A 
ATOM     10  C   UNL     1       8.999   0.190   1.892  0.00  0.00    +0.019 A 
ATOM     11  C   UNL     1       7.669  -1.421   3.269  0.00  0.00    +0.193 A 
ATOM     12  O   UNL     1       8.628  -1.733   3.953  0.00  0.00    -0.287 OA
ATOM     13  C   UNL     1       6.341  -2.013   3.489  0.00  0.00    +0.103 A 
ATOM     14  C   UNL     1       5.314  -1.625   2.695  0.00  0.00    +0.193 A 
ATOM     15  O   UNL     1       5.463  -0.724   1.713  0.00  0.00    -0.450 OA
BRANCH   5  17
ATOM     16  C   UNL     1      10.504   3.061   1.383  0.00  0.00    +0.009 C 
ATOM     17  C   UNL     1      10.378   1.777   0.561  0.00  0.00    +0.032 C 
ENDBRANCH   5  17
ENDBRANCH   1  14
BRANCH   3  18
ATOM     18  C   UNL     1       1.615  -2.445   2.362  0.00  0.00    +0.094 C 
BRANCH  18  19
ATOM     19  C   UNL     1       0.594  -1.767   1.446  0.00  0.00    -0.013 C 
BRANCH  19  20
ATOM     20  N   UNL     1       0.611  -0.317   1.684  0.00  0.00    +0.386 N 
ATOM     21  C   UNL     1       0.539  -0.019   3.120  0.00  0.00    -0.078 C 
ATOM     22  C   UNL     1       0.705   1.487   3.338  0.00  0.00    -0.019 C 
ATOM     23  C   UNL     1      -0.403   2.231   2.588  0.00  0.00    -0.004 C 
ATOM     24  C   UNL     1      -0.337   1.866   1.103  0.00  0.00    -0.019 C 
ATOM     25  C   UNL     1      -0.472   0.349   0.949  0.00  0.00    -0.078 C 
ATOM     26  H   UNL     1       1.565   0.078   1.306  0.00  0.00    -0.081 HD
ENDBRANCH  19  20
BRANCH  19  27
ATOM     27  C   UNL     1      -0.781  -2.308   1.739  0.00  0.00    -0.022 A 
ATOM     28  C   UNL     1      -1.489  -3.249   1.067  0.00  0.00    +0.009 A 
ATOM     29  C   UNL     1      -2.748  -3.594   1.522  0.00  0.00    +0.008 A 
ATOM     30  C   UNL     1      -3.237  -2.981   2.628  0.00  0.00    +0.045 A 
ATOM     31  S   UNL     1      -1.899  -1.883   3.064  0.00  0.00    -0.103 S 
ENDBRANCH  19  27
ENDBRANCH  18  19
ENDBRANCH   3  18
TORSDOF 6
