REMARK  Name = ZINC66119743
REMARK  6 active torsions:
REMARK  status: ('A' for Active; 'I' for Inactive)
REMARK    1  A    between atoms: C_1  and  C_2
REMARK    2  A    between atoms: C_2  and  C_4
REMARK    3  A    between atoms: C_2  and  N_21
REMARK    4  A    between atoms: C_4  and  N_5
REMARK    5  A    between atoms: C_11  and  N_14
REMARK    6  A    between atoms: C_15  and  C_17
REMARK                            x       y       z     vdW  Elec       q    Type
REMARK                         _______ _______ _______ _____ _____    ______ ____
ROOT
ATOM      1  N   UNL     1       0.749  -2.144   0.635  0.00  0.00    -0.301 N 
ATOM      2  C   UNL     1       1.450  -3.030   1.371  0.00  0.00    +0.302 C 
ATOM      3  O   UNL     1       1.993  -2.672   2.398  0.00  0.00    -0.253 OA
ATOM      4  N   UNL     1       1.549  -4.312   0.968  0.00  0.00    -0.286 N 
ATOM      5  C   UNL     1       0.989  -4.736  -0.323  0.00  0.00    +0.111 C 
ATOM      6  C   UNL     1       0.052  -5.925  -0.087  0.00  0.00    +0.041 C 
ATOM      7  C   UNL     1       0.809  -7.025   0.662  0.00  0.00    +0.076 C 
ATOM      8  C   UNL     1       1.269  -6.495   2.022  0.00  0.00    +0.041 C 
ATOM      9  C   UNL     1       2.224  -5.311   1.807  0.00  0.00    +0.111 C 
ATOM     10  H   UNL     1       0.260  -2.443  -0.147  0.00  0.00    +0.150 HD
ENDROOT
BRANCH   7  11
ATOM     11  N   UNL     1      -0.073  -8.177   0.860  0.00  0.00    -0.312 N 
ATOM     12  C   UNL     1       0.451  -9.408   1.019  0.00  0.00    +0.216 C 
ATOM     13  O   UNL     1       1.654  -9.562   0.999  0.00  0.00    -0.276 OA
ATOM     14  H   UNL     1      -1.035  -8.054   0.877  0.00  0.00    +0.149 HD
BRANCH  12  15
ATOM     15  C   UNL     1      -0.457 -10.594   1.223  0.00  0.00    +0.075 C 
ATOM     16  C   UNL     1      -1.024 -11.167  -0.086  0.00  0.00    +0.013 C 
ATOM     17  C   UNL     1       0.223 -12.065  -0.141  0.00  0.00    +0.001 C 
ATOM     18  C   UNL     1       0.295 -11.925   1.389  0.00  0.00    +0.013 C 
ENDBRANCH  12  15
ENDBRANCH   7  11
BRANCH   1  19
ATOM     19  C   UNL     1       0.727  -0.730   1.018  0.00  0.00    +0.090 C 
BRANCH  19  21
ATOM     20  C   UNL     1       0.019   1.560   0.313  0.00  0.00    -0.012 C 
ATOM     21  C   UNL     1      -0.024   0.074  -0.046  0.00  0.00    -0.054 C 
BRANCH  21  22
ATOM     22  N   UNL     1       0.612  -0.133  -1.355  0.00  0.00    +0.385 N 
ATOM     23  C   UNL     1       1.953   0.470  -1.351  0.00  0.00    -0.073 C 
ATOM     24  C   UNL     1       2.709  -0.013  -2.589  0.00  0.00    +0.017 C 
ATOM     25  C   UNL     1       1.864   0.204  -3.819  0.00  0.00    -0.048 A 
ATOM     26  C   UNL     1       2.476   0.161  -5.062  0.00  0.00    +0.004 A 
ATOM     27  C   UNL     1       1.734   0.352  -6.210  0.00  0.00    +0.000 A 
ATOM     28  C   UNL     1       0.375   0.587  -6.120  0.00  0.00    +0.000 A 
ATOM     29  C   UNL     1      -0.235   0.632  -4.882  0.00  0.00    +0.002 A 
ATOM     30  C   UNL     1       0.509   0.442  -3.727  0.00  0.00    -0.061 A 
ATOM     31  C   UNL     1      -0.196   0.507  -2.398  0.00  0.00    -0.042 C 
ATOM     32  H   UNL     1       0.684  -1.121  -1.542  0.00  0.00    -0.081 HD
ENDBRANCH  21  22
ENDBRANCH  19  21
ENDBRANCH   1  19
TORSDOF 5
