REMARK  Name = ZINC21353622
REMARK  5 active torsions:
REMARK  status: ('A' for Active; 'I' for Inactive)
REMARK    1  A    between atoms: N_9  and  C_23
REMARK    2  A    between atoms: C_15  and  C_16
REMARK    3  A    between atoms: C_23  and  C_24
REMARK    4  A    between atoms: N_26  and  C_27
REMARK    5  A    between atoms: C_27  and  C_28
REMARK                            x       y       z     vdW  Elec       q    Type
REMARK                         _______ _______ _______ _____ _____    ______ ____
ROOT
ATOM      1  C   UNL     1      -4.656   5.522  11.034  0.00  0.00    +0.001 A 
ATOM      2  C   UNL     1      -5.926   5.819  10.564  0.00  0.00    +0.002 A 
ATOM      3  C   UNL     1      -6.460   5.127   9.494  0.00  0.00    +0.027 A 
ATOM      4  C   UNL     1      -5.718   4.125   8.886  0.00  0.00    +0.062 A 
ATOM      5  C   UNL     1      -4.438   3.825   9.358  0.00  0.00    +0.063 A 
ATOM      6  C   UNL     1      -3.907   4.528  10.438  0.00  0.00    +0.015 A 
ATOM      7  C   UNL     1      -3.675   2.751   8.694  0.00  0.00    +0.262 A 
ATOM      8  O   UNL     1      -2.560   2.453   9.075  0.00  0.00    -0.267 OA
ATOM      9  N   UNL     1      -4.239   2.114   7.657  0.00  0.00    -0.284 N 
ATOM     10  C   UNL     1      -5.529   2.429   7.194  0.00  0.00    +0.137 A 
ATOM     11  N   UNL     1      -6.264   3.419   7.794  0.00  0.00    -0.282 N 
ATOM     12  C   UNL     1      -7.515   3.689   7.306  0.00  0.00    +0.132 A 
ATOM     13  S   UNL     1      -8.637   4.858   7.859  0.00  0.00    -0.024 S 
ATOM     14  S   UNL     1      -7.693   2.570   6.002  0.00  0.00    -0.059 S 
ATOM     15  C   UNL     1      -6.109   1.772   6.132  0.00  0.00    +0.064 A 
ENDROOT
BRANCH  15  16
ATOM     16  C   UNL     1      -5.555   0.679   5.309  0.00  0.00    +0.011 A 
ATOM     17  C   UNL     1      -4.877   0.968   4.123  0.00  0.00    +0.010 A 
ATOM     18  C   UNL     1      -4.359  -0.058   3.360  0.00  0.00    +0.001 A 
ATOM     19  C   UNL     1      -4.517  -1.372   3.763  0.00  0.00    +0.001 A 
ATOM     20  C   UNL     1      -5.192  -1.668   4.934  0.00  0.00    +0.020 A 
ATOM     21  C   UNL     1      -5.712  -0.651   5.710  0.00  0.00    +0.049 A 
ATOM     22 CL   UNL     1      -6.559  -1.024   7.178  0.00  0.00    -0.083 Cl
ENDBRANCH  15  16
BRANCH   9  23
ATOM     23  C   UNL     1      -3.488   1.049   6.988  0.00  0.00    +0.222 C 
BRANCH  23  24
ATOM     24  C   UNL     1      -3.625  -0.231   7.771  0.00  0.00    +0.233 C 
ATOM     25  O   UNL     1      -4.503  -0.344   8.600  0.00  0.00    -0.274 OA
ATOM     26  N   UNL     1      -2.772  -1.251   7.550  0.00  0.00    -0.311 N 
ATOM     27  H   UNL     1      -2.031  -1.182   6.740  0.00  0.00    +0.149 HD
BRANCH  26  28
ATOM     28  C   UNL     1      -2.832  -2.451   8.388  0.00  0.00    +0.135 C 
BRANCH  28  29
ATOM     29  C   UNL     1      -1.765  -3.447   7.930  0.00  0.00    +0.135 C 
ATOM     30  C   UNL     1      -1.810  -4.722   8.801  0.00  0.00    +0.035 C 
ATOM     31  C   UNL     1      -1.513  -5.867   7.807  0.00  0.00    +0.031 C 
ATOM     32  C   UNL     1      -1.324  -5.148   6.452  0.00  0.00    +0.160 C 
ATOM     33  O   UNL     1      -2.048  -3.905   6.587  0.00  0.00    -0.375 OA
ENDBRANCH  28  29
ENDBRANCH  26  28
ENDBRANCH  23  24
ENDBRANCH   9  23
TORSDOF 5
