REMARK  Name = ZINC36257310
REMARK  10 active torsions:
REMARK  status: ('A' for Active; 'I' for Inactive)
REMARK    1  A    between atoms: C_1  and  O_2
REMARK    2  A    between atoms: O_2  and  C_3
REMARK    3  A    between atoms: C_6  and  C_10
REMARK    4  A    between atoms: C_8  and  O_9
REMARK    5  A    between atoms: C_14  and  C_27
REMARK    6  A    between atoms: C_15  and  N_17
REMARK    7  A    between atoms: N_17  and  C_18
REMARK    8  A    between atoms: C_21  and  N_24
REMARK    9  A    between atoms: C_27  and  O_29
REMARK   10  A    between atoms: O_29  and  C_30
REMARK                            x       y       z     vdW  Elec       q    Type
REMARK                         _______ _______ _______ _____ _____    ______ ____
ROOT
ATOM      1  C   UNL     1       3.280  -2.496  -4.085  0.00  0.00    +0.027 C 
ATOM      2  C   UNL     1       3.532  -1.745  -5.187  0.00  0.00    +0.062 C 
ATOM      3  C   UNL     1       3.396  -0.288  -5.358  0.00  0.00    +0.209 C 
ATOM      4  O   UNL     1       3.015   0.441  -4.458  0.00  0.00    -0.286 OA
ATOM      5  C   UNL     1       3.744   0.215  -6.662  0.00  0.00    +0.134 C 
ATOM      6  C   UNL     1       4.170  -0.706  -7.624  0.00  0.00    +0.088 C 
ATOM      7  S   UNL     1       4.116  -2.276  -6.785  0.00  0.00    -0.069 S 
ENDROOT
BRANCH   1  11
ATOM      8  C   UNL     1       1.400  -0.740  -0.711  0.00  0.00    +0.161 A 
ATOM      9  C   UNL     1       1.014  -0.367  -1.992  0.00  0.00    +0.050 A 
ATOM     10  C   UNL     1       1.622  -0.934  -3.090  0.00  0.00    +0.012 A 
ATOM     11  C   UNL     1       2.631  -1.889  -2.916  0.00  0.00    -0.020 A 
ATOM     12  C   UNL     1       3.018  -2.264  -1.624  0.00  0.00    +0.057 A 
ATOM     13  C   UNL     1       2.408  -1.687  -0.529  0.00  0.00    +0.159 A 
BRANCH   8  15
ATOM     14  C   UNL     1      -0.227   0.786   0.111  0.00  0.00    +0.277 C 
ATOM     15  O   UNL     1       0.797  -0.177   0.369  0.00  0.00    -0.491 OA
ENDBRANCH   8  15
BRANCH  13  16
ATOM     16  O   UNL     1       2.785  -2.044   0.728  0.00  0.00    -0.503 OA
ATOM     17  H   UNL     1       2.290  -2.792   1.090  0.00  0.00    +0.292 HD
ENDBRANCH  13  16
ENDBRANCH   1  11
BRANCH   6  18
ATOM     18  N   UNL     1       4.548  -0.457  -8.916  0.00  0.00    -0.308 N 
ATOM     19  H   UNL     1       4.620   0.457  -9.233  0.00  0.00    +0.153 HD
BRANCH  18  20
ATOM     20  C   UNL     1       4.832  -1.520  -9.778  0.00  0.00    +0.032 A 
ATOM     21  C   UNL     1       4.122  -2.709  -9.674  0.00  0.00    +0.025 A 
ATOM     22  C   UNL     1       4.404  -3.757 -10.528  0.00  0.00    +0.034 A 
ATOM     23  C   UNL     1       5.393  -3.624 -11.486  0.00  0.00    +0.126 A 
ATOM     24  C   UNL     1       6.102  -2.441 -11.592  0.00  0.00    +0.034 A 
ATOM     25  C   UNL     1       5.821  -1.388 -10.745  0.00  0.00    +0.025 A 
BRANCH  23  26
ATOM     26  N   UNL     1       5.693  -4.750 -12.399  0.00  0.00    +0.056 N 
ATOM     27  O   UNL     1       5.074  -5.784 -12.307  0.00  0.00    -0.126 OA
ATOM     28  O   UNL     1       6.557  -4.634 -13.237  0.00  0.00    -0.126 OA
ENDBRANCH  23  26
ENDBRANCH  18  20
ENDBRANCH   6  18
BRANCH   5  29
ATOM     29  C   UNL     1       3.655   1.641  -6.970  0.00  0.00    +0.345 C 
ATOM     30  O   UNL     1       3.954   2.044  -8.078  0.00  0.00    -0.245 OA
BRANCH  29  31
ATOM     31  O   UNL     1       3.241   2.510  -6.024  0.00  0.00    -0.464 OA
ATOM     32  C   UNL     1       3.178   3.889  -6.394  0.00  0.00    +0.280 C 
ENDBRANCH  29  31
ENDBRANCH   5  29
TORSDOF 8
