REMARK  Name = ZINC50394248
REMARK  6 active torsions:
REMARK  status: ('A' for Active; 'I' for Inactive)
REMARK    1  A    between atoms: C_1  and  C_2
REMARK    2  A    between atoms: C_2  and  C_4
REMARK    3  A    between atoms: C_2  and  N_12
REMARK    4  A    between atoms: C_6  and  O_11
REMARK    5  A    between atoms: C_9  and  O_10
REMARK    6  A    between atoms: N_12  and  C_13
REMARK                            x       y       z     vdW  Elec       q    Type
REMARK                         _______ _______ _______ _____ _____    ______ ____
ROOT
ATOM      1  C   UNL     1      -0.019   1.526   0.010  0.00  0.00    +0.029 C 
ATOM      2  C   UNL     1       0.002  -0.004   0.002  0.00  0.00    +0.085 C 
ENDROOT
BRANCH   2   3
ATOM      3  C   UNL     1      -1.412  -0.526   0.013  0.00  0.00    +0.014 A 
ATOM      4  C   UNL     1      -2.014  -0.864   1.209  0.00  0.00    +0.054 A 
ATOM      5  C   UNL     1      -3.316  -1.343   1.219  0.00  0.00    +0.117 A 
ATOM      6  C   UNL     1      -4.012  -1.484   0.028  0.00  0.00    +0.049 A 
ATOM      7  C   UNL     1      -3.410  -1.146  -1.168  0.00  0.00    +0.049 A 
ATOM      8  C   UNL     1      -2.110  -0.661  -1.178  0.00  0.00    +0.122 A 
BRANCH   8   9
ATOM      9  O   UNL     1      -1.519  -0.323  -2.355  0.00  0.00    -0.506 OA
ATOM     10  H   UNL     1      -1.044  -1.051  -2.780  0.00  0.00    +0.292 HD
ENDBRANCH   8   9
BRANCH   5  11
ATOM     11  O   UNL     1      -3.908  -1.676   2.397  0.00  0.00    -0.507 OA
ATOM     12  H   UNL     1      -4.384  -0.947   2.818  0.00  0.00    +0.292 HD
ENDBRANCH   5  11
ENDBRANCH   2   3
BRANCH   2  13
ATOM     13  N   UNL     1       0.713  -0.491   1.192  0.00  0.00    -0.299 NA
ATOM     14  H   UNL     1       0.492   0.072   2.000  0.00  0.00    +0.123 HD
BRANCH  13  15
ATOM     15  C   UNL     1       2.162  -0.532   0.959  0.00  0.00    +0.141 C 
ATOM     16  C   UNL     1       2.896  -0.420   2.298  0.00  0.00    +0.029 C 
ATOM     17  C   UNL     1       4.378  -0.740   2.067  0.00  0.00    +0.021 C 
ATOM     18  C   UNL     1       4.507  -2.218   1.697  0.00  0.00    +0.104 C 
ATOM     19  N   UNL     1       3.588  -2.556   0.617  0.00  0.00    -0.314 N 
ATOM     20  C   UNL     1       2.523  -1.827   0.288  0.00  0.00    +0.230 C 
ATOM     21  O   UNL     1       1.806  -2.231  -0.602  0.00  0.00    -0.274 OA
ATOM     22  H   UNL     1       3.763  -3.362   0.107  0.00  0.00    +0.149 HD
ENDBRANCH  13  15
ENDBRANCH   2  13
TORSDOF 5
