REMARK  Name = ZINC08385597
REMARK  8 active torsions:
REMARK  status: ('A' for Active; 'I' for Inactive)
REMARK    1  A    between atoms: C_1  and  C_2
REMARK    2  A    between atoms: N_4  and  C_5
REMARK    3  A    between atoms: C_7  and  N_17
REMARK    4  A    between atoms: C_8  and  N_14
REMARK    5  A    between atoms: C_10  and  N_11
REMARK    6  A    between atoms: N_17  and  C_18
REMARK    7  A    between atoms: C_23  and  N_24
REMARK    8  A    between atoms: C_25  and  C_26
REMARK                            x       y       z     vdW  Elec       q    Type
REMARK                         _______ _______ _______ _____ _____    ______ ____
ROOT
ATOM      1  N   UNL     1       1.330  -5.081  -0.212  0.00  0.00    -0.311 N 
ATOM      2  H   UNL     1       1.472  -6.034  -0.328  0.00  0.00    +0.152 HD
ENDROOT
BRANCH   1   5
ATOM      3  C   UNL     1      -2.186  -4.154   0.350  0.00  0.00    +0.066 A 
ATOM      4  C   UNL     1      -0.926  -4.699   0.552  0.00  0.00    +0.051 A 
ATOM      5  C   UNL     1       0.060  -4.535  -0.411  0.00  0.00    +0.064 A 
ATOM      6  C   UNL     1      -0.218  -3.825  -1.574  0.00  0.00    +0.149 A 
ATOM      7  C   UNL     1      -1.474  -3.284  -1.771  0.00  0.00    +0.069 A 
ATOM      8  C   UNL     1      -2.459  -3.451  -0.816  0.00  0.00    +0.150 A 
BRANCH   3  12
ATOM      9  C   UNL     1      -4.144  -5.484   3.277  0.00  0.00    +0.109 C 
ATOM     10  C   UNL     1      -3.140  -5.371   2.158  0.00  0.00    +0.214 C 
ATOM     11  O   UNL     1      -2.295  -6.229   2.013  0.00  0.00    -0.276 OA
ATOM     12  N   UNL     1      -3.182  -4.317   1.319  0.00  0.00    -0.284 N 
ATOM     13  H   UNL     1      -3.904  -3.672   1.387  0.00  0.00    +0.155 HD
ENDBRANCH   3  12
BRANCH   8  14
ATOM     14  N   UNL     1      -3.805  -2.876  -1.035  0.00  0.00    +0.058 N 
ATOM     15  O   UNL     1      -4.070  -2.341  -2.086  0.00  0.00    -0.126 OA
ATOM     16  O   UNL     1      -4.639  -2.941  -0.162  0.00  0.00    -0.126 OA
ENDBRANCH   8  14
BRANCH   6  17
ATOM     17  N   UNL     1       0.832  -3.650  -2.602  0.00  0.00    +0.058 N 
ATOM     18  O   UNL     1       0.568  -3.106  -3.649  0.00  0.00    -0.126 OA
ATOM     19  O   UNL     1       1.954  -4.050  -2.395  0.00  0.00    -0.126 OA
ENDBRANCH   6  17
ENDBRANCH   1   5
BRANCH   1  20
ATOM     20  C   UNL     1       2.394  -4.256   0.152  0.00  0.00    +0.057 A 
ATOM     21  C   UNL     1       2.174  -2.915   0.428  0.00  0.00    +0.025 A 
ATOM     22  C   UNL     1       3.230  -2.100   0.788  0.00  0.00    +0.002 A 
ATOM     23  C   UNL     1       4.513  -2.613   0.877  0.00  0.00    +0.002 A 
ATOM     24  C   UNL     1       4.751  -3.944   0.607  0.00  0.00    +0.029 A 
ATOM     25  C   UNL     1       3.693  -4.782   0.246  0.00  0.00    +0.085 A 
BRANCH  25  26
ATOM     26  N   UNL     1       3.921  -6.102  -0.017  0.00  0.00    -0.252 NA
ATOM     27  C   UNL     1       3.869  -6.980   0.949  0.00  0.00    +0.137 C 
BRANCH  27  28
ATOM     28  C   UNL     1       3.577  -6.546   2.316  0.00  0.00    +0.059 A 
ATOM     29  C   UNL     1       3.542  -7.356   3.411  0.00  0.00    +0.037 A 
ATOM     30  C   UNL     1       3.225  -6.551   4.532  0.00  0.00    +0.000 A 
ATOM     31  C   UNL     1       3.054  -6.826   5.895  0.00  0.00    +0.010 A 
ATOM     32  C   UNL     1       2.742  -5.815   6.757  0.00  0.00    +0.001 A 
ATOM     33  C   UNL     1       2.591  -4.514   6.296  0.00  0.00    +0.002 A 
ATOM     34  C   UNL     1       2.754  -4.219   4.960  0.00  0.00    +0.026 A 
ATOM     35  C   UNL     1       3.072  -5.232   4.062  0.00  0.00    +0.047 A 
ATOM     36  N   UNL     1       3.298  -5.250   2.704  0.00  0.00    -0.353 N 
ATOM     37  H   UNL     1       3.265  -4.480   2.115  0.00  0.00    +0.166 HD
ENDBRANCH  27  28
ENDBRANCH  25  26
ENDBRANCH   1  20
TORSDOF 7
