REMARK  Name = ZINC06443482
REMARK  9 active torsions:
REMARK  status: ('A' for Active; 'I' for Inactive)
REMARK    1  A    between atoms: C_1  and  C_2
REMARK    2  A    between atoms: C_12  and  C_14
REMARK    3  A    between atoms: C_14  and  N_61
REMARK    4  A    between atoms: C_15  and  C_16
REMARK    5  A    between atoms: C_15  and  N_61
REMARK    6  A    between atoms: C_23  and  C_24
REMARK    7  A    between atoms: C_23  and  N_61
REMARK    8  A    between atoms: N_28  and  C_29
REMARK    9  A    between atoms: C_29  and  C_30
REMARK                            x       y       z     vdW  Elec       q    Type
REMARK                         _______ _______ _______ _____ _____    ______ ____
ROOT
ATOM      1  N   UNL     1       1.379   1.764   0.079  0.00  0.00    +0.390 N 
ATOM      2  H   UNL     1       1.984   1.239   0.722  0.00  0.00    -0.080 HD
ENDROOT
BRANCH   1   3
ATOM      3  C   UNL     1       1.240   3.149   0.575  0.00  0.00    -0.036 C 
BRANCH   3  15
ATOM      4  C   UNL     1      -0.970   2.827   6.757  0.00  0.00    +0.046 C 
ATOM      5  C   UNL     1       0.423   2.991   6.205  0.00  0.00    -0.026 A 
ATOM      6  C   UNL     1       1.497   3.103   7.061  0.00  0.00    +0.005 A 
ATOM      7  C   UNL     1       2.785   3.255   6.566  0.00  0.00    +0.001 A 
ATOM      8  C   UNL     1       3.011   3.296   5.219  0.00  0.00    +0.010 A 
ATOM      9  C   UNL     1       1.936   3.184   4.332  0.00  0.00    -0.001 A 
ATOM     10  C   UNL     1       0.629   3.030   4.830  0.00  0.00    +0.052 A 
ATOM     11  N   UNL     1      -0.428   2.920   3.951  0.00  0.00    -0.322 N 
ATOM     12  H   UNL     1      -1.328   2.814   4.296  0.00  0.00    +0.169 HD
ATOM     13  C   UNL     1      -0.228   2.959   2.622  0.00  0.00    +0.251 A 
ATOM     14  O   UNL     1      -1.185   2.859   1.874  0.00  0.00    -0.268 OA
ATOM     15  C   UNL     1       1.062   3.111   2.071  0.00  0.00    +0.001 A 
ATOM     16  C   UNL     1       2.143   3.218   2.883  0.00  0.00    +0.017 A 
ENDBRANCH   3  15
ENDBRANCH   1   3
BRANCH   1  17
ATOM     17  C   UNL     1       1.994   1.767  -1.264  0.00  0.00    -0.042 C 
BRANCH  17  18
ATOM     18  C   UNL     1       3.459   2.093  -1.125  0.00  0.00    -0.064 A 
ATOM     19  C   UNL     1       3.898   3.391  -1.308  0.00  0.00    +0.004 A 
ATOM     20  C   UNL     1       5.240   3.692  -1.176  0.00  0.00    +0.038 A 
ATOM     21  C   UNL     1       6.147   2.692  -0.871  0.00  0.00    +0.123 A 
ATOM     22  C   UNL     1       5.707   1.391  -0.693  0.00  0.00    +0.038 A 
ATOM     23  C   UNL     1       4.363   1.093  -0.821  0.00  0.00    +0.004 A 
ATOM     24  F   UNL     1       7.460   2.984  -0.746  0.00  0.00    -0.205 F 
ENDBRANCH  17  18
ENDBRANCH   1  17
BRANCH   1  25
ATOM     25  C   UNL     1       0.054   1.111   0.026  0.00  0.00    +0.001 C 
BRANCH  25  26
ATOM     26  C   UNL     1       0.245  -0.355  -0.267  0.00  0.00    +0.135 A 
ATOM     27  N   UNL     1       0.266  -0.920  -1.450  0.00  0.00    -0.115 NA
ATOM     28  N   UNL     1       0.454  -2.183  -1.283  0.00  0.00    -0.023 NA
ATOM     29  N   UNL     1       0.545  -2.440  -0.025  0.00  0.00    -0.044 NA
ATOM     30  N   UNL     1       0.422  -1.338   0.634  0.00  0.00    -0.229 N 
BRANCH  30  31
ATOM     31  C   UNL     1       0.465  -1.187   2.091  0.00  0.00    +0.178 C 
BRANCH  31  32
ATOM     32  C   UNL     1      -0.947  -1.332   2.661  0.00  0.00    +0.140 C 
ATOM     33  C   UNL     1      -0.929  -1.060   4.181  0.00  0.00    +0.035 C 
ATOM     34  C   UNL     1      -1.923  -2.125   4.718  0.00  0.00    +0.031 C 
ATOM     35  C   UNL     1      -1.658  -3.296   3.738  0.00  0.00    +0.160 C 
ATOM     36  O   UNL     1      -1.414  -2.672   2.467  0.00  0.00    -0.375 OA
ENDBRANCH  31  32
ENDBRANCH  30  31
ENDBRANCH  25  26
ENDBRANCH   1  25
TORSDOF 8
