REMARK  Name = ZINC12329182
REMARK  8 active torsions:
REMARK  status: ('A' for Active; 'I' for Inactive)
REMARK    1  A    between atoms: C_1  and  C_2
REMARK    2  A    between atoms: C_8  and  O_33
REMARK    3  A    between atoms: C_17  and  C_18
REMARK    4  A    between atoms: C_17  and  N_63
REMARK    5  A    between atoms: C_18  and  C_20
REMARK    6  A    between atoms: C_18  and  O_32
REMARK    7  A    between atoms: C_21  and  C_31
REMARK    8  A    between atoms: C_28  and  C_30
REMARK                            x       y       z     vdW  Elec       q    Type
REMARK                         _______ _______ _______ _____ _____    ______ ____
ROOT
ATOM      1  C   UNL     1     -12.030  -4.002   1.400  0.00  0.00    +0.044 C 
ATOM      2  C   UNL     1     -10.824  -3.717   0.542  0.00  0.00    -0.050 A 
ATOM      3  C   UNL     1     -10.700  -2.495  -0.094  0.00  0.00    +0.007 A 
ATOM      4  C   UNL     1      -9.596  -2.236  -0.880  0.00  0.00    +0.046 A 
ATOM      5  C   UNL     1      -8.605  -3.200  -1.034  0.00  0.00    +0.127 A 
ATOM      6  C   UNL     1      -8.730  -4.421  -0.394  0.00  0.00    +0.023 A 
ATOM      7  C   UNL     1      -9.841  -4.676   0.392  0.00  0.00    +0.013 A 
ATOM      8  C   UNL     1      -7.675  -5.490  -0.527  0.00  0.00    +0.152 C 
ATOM      9  C   UNL     1      -6.796  -5.197  -1.746  0.00  0.00    +0.084 C 
ATOM     10  C   UNL     1      -6.371  -3.726  -1.692  0.00  0.00    +0.110 C 
ATOM     11  O   UNL     1      -7.534  -2.910  -1.819  0.00  0.00    -0.485 OA
ATOM     12  C   UNL     1      -5.403  -3.432  -2.839  0.00  0.00    +0.029 C 
ATOM     13  C   UNL     1      -4.929  -1.980  -2.742  0.00  0.00    -0.075 C 
ATOM     14  C   UNL     1      -5.199  -1.990  -0.334  0.00  0.00    -0.075 C 
ATOM     15  C   UNL     1      -5.681  -3.442  -0.357  0.00  0.00    +0.029 C 
ATOM     16  N   UNL     1      -4.246  -1.783  -1.445  0.00  0.00    +0.382 N 
ATOM     17  H   UNL     1      -3.485  -2.467  -1.363  0.00  0.00    -0.082 HD
ENDROOT
BRANCH   8  18
ATOM     18  O   UNL     1      -8.305  -6.762  -0.690  0.00  0.00    -0.387 OA
ATOM     19  H   UNL     1      -8.877  -7.015   0.048  0.00  0.00    +0.210 HD
ENDBRANCH   8  18
BRANCH  16  20
ATOM     20  C   UNL     1      -3.677  -0.422  -1.376  0.00  0.00    -0.042 C 
BRANCH  20  21
ATOM     21  C   UNL     1      -2.534  -0.313  -2.388  0.00  0.00    +0.130 C 
BRANCH  21  22
ATOM     22  C   UNL     1      -1.919   1.060  -2.305  0.00  0.00    +0.007 A 
ATOM     23  C   UNL     1      -1.104   1.513  -1.339  0.00  0.00    +0.019 A 
ATOM     24  N   UNL     1      -0.736   2.803  -1.606  0.00  0.00    -0.358 N 
ATOM     25  H   UNL     1      -0.150   3.342  -1.051  0.00  0.00    +0.166 HD
ATOM     26  C   UNL     1      -1.332   3.228  -2.772  0.00  0.00    +0.047 A 
ATOM     27  C   UNL     1      -2.098   2.154  -3.262  0.00  0.00    +0.005 A 
ATOM     28  C   UNL     1      -2.816   2.296  -4.451  0.00  0.00    +0.010 A 
ATOM     29  C   UNL     1      -2.780   3.482  -5.128  0.00  0.00    +0.004 A 
ATOM     30  C   UNL     1      -2.030   4.546  -4.646  0.00  0.00    -0.048 A 
ATOM     31  C   UNL     1      -1.310   4.427  -3.478  0.00  0.00    +0.029 A 
ATOM     32  C   UNL     1      -2.004   5.846  -5.409  0.00  0.00    +0.044 C 
ATOM     33  C   UNL     1      -0.650   0.713  -0.145  0.00  0.00    +0.063 C 
ENDBRANCH  21  22
BRANCH  21  34
ATOM     34  O   UNL     1      -1.542  -1.298  -2.093  0.00  0.00    -0.389 OA
ATOM     35  H   UNL     1      -1.152  -1.213  -1.212  0.00  0.00    +0.210 HD
ENDBRANCH  21  34
ENDBRANCH  20  21
ENDBRANCH  16  20
TORSDOF 5
