REMARK  Name = ZINC18249957
REMARK  8 active torsions:
REMARK  status: ('A' for Active; 'I' for Inactive)
REMARK    1  A    between atoms: C_5  and  C_7
REMARK    2  A    between atoms: N_11  and  C_15
REMARK    3  A    between atoms: C_15  and  C_16
REMARK    4  A    between atoms: C_16  and  N_17
REMARK    5  A    between atoms: C_18  and  C_20
REMARK    6  A    between atoms: C_20  and  O_21
REMARK    7  A    between atoms: O_21  and  C_22
REMARK    8  A    between atoms: C_27  and  N_28
REMARK                            x       y       z     vdW  Elec       q    Type
REMARK                         _______ _______ _______ _____ _____    ______ ____
ROOT
ATOM      1  C   UNL     1       0.116   4.105  -0.303  0.00  0.00    +0.123 C 
ENDROOT
BRANCH   1   2
ATOM      2  N   UNL     1       0.455   2.680  -0.343  0.00  0.00    -0.311 N 
ATOM      3  C   UNL     1       1.734   2.297  -0.529  0.00  0.00    +0.251 C 
ATOM      4  O   UNL     1       2.603   3.131  -0.667  0.00  0.00    -0.272 OA
ATOM      5  H   UNL     1      -0.241   2.013  -0.236  0.00  0.00    +0.149 HD
BRANCH   3   6
ATOM      6  C   UNL     1       2.082   0.831  -0.570  0.00  0.00    +0.324 C 
BRANCH   6   7
ATOM      7  O   UNL     1       3.487   0.682  -0.782  0.00  0.00    -0.480 OA
BRANCH   7   8
ATOM      8  C   UNL     1       3.970  -0.587  -0.845  0.00  0.00    +0.154 A 
ATOM      9  C   UNL     1       3.110  -1.665  -0.700  0.00  0.00    +0.086 A 
ATOM     10  C   UNL     1       3.604  -2.956  -0.769  0.00  0.00    +0.127 A 
ATOM     11  C   UNL     1       4.957  -3.170  -0.973  0.00  0.00    +0.041 A 
ATOM     12  C   UNL     1       5.815  -2.096  -1.112  0.00  0.00    +0.039 A 
ATOM     13  C   UNL     1       5.325  -0.805  -1.049  0.00  0.00    +0.168 A 
ATOM     14  F   UNL     1       2.767  -4.008  -0.633  0.00  0.00    -0.205 F 
BRANCH  13  15
ATOM     15  N   UNL     1       6.246   0.344  -1.198  0.00  0.00    +0.060 N 
ATOM     16  O   UNL     1       7.435   0.153  -1.377  0.00  0.00    -0.126 OA
ATOM     17  O   UNL     1       5.814   1.482  -1.141  0.00  0.00    -0.126 OA
ENDBRANCH  13  15
ENDBRANCH   7   8
ENDBRANCH   6   7
ENDBRANCH   3   6
ENDBRANCH   1   2
BRANCH   1  18
ATOM     18  C   UNL     1      -1.390   4.265  -0.083  0.00  0.00    +0.136 C 
BRANCH  18  23
ATOM     19  C   UNL     1      -2.735   8.626  -2.028  0.00  0.00    +0.031 C 
ATOM     20  C   UNL     1      -2.378   7.746  -1.059  0.00  0.00    +0.080 C 
ATOM     21  C   UNL     1      -2.046   6.310  -1.167  0.00  0.00    +0.260 C 
ATOM     22  O   UNL     1      -2.064   5.728  -2.236  0.00  0.00    -0.269 OA
ATOM     23  N   UNL     1      -1.729   5.690  -0.043  0.00  0.00    -0.227 N 
ATOM     24  C   UNL     1      -1.715   6.337   1.140  0.00  0.00    +0.286 C 
ATOM     25  O   UNL     1      -1.450   5.893   2.241  0.00  0.00    -0.262 OA
ATOM     26  S   UNL     1      -2.179   8.004   0.698  0.00  0.00    -0.026 S 
BRANCH  19  31
ATOM     27  C   UNL     1      -2.391  11.918  -0.268  0.00  0.00    +0.001 A 
ATOM     28  C   UNL     1      -3.107  12.750  -1.112  0.00  0.00    +0.003 A 
ATOM     29  C   UNL     1      -3.702  12.245  -2.254  0.00  0.00    +0.039 A 
ATOM     30  C   UNL     1      -3.587  10.903  -2.561  0.00  0.00    +0.131 A 
ATOM     31  C   UNL     1      -2.864  10.055  -1.711  0.00  0.00    +0.011 A 
ATOM     32  C   UNL     1      -2.270  10.576  -0.555  0.00  0.00    +0.011 A 
ATOM     33  F   UNL     1      -4.169  10.410  -3.676  0.00  0.00    -0.205 F 
ENDBRANCH  19  31
ENDBRANCH  18  23
ENDBRANCH   1  18
TORSDOF 8
