REMARK  Name = ZINC49640497
REMARK  7 active torsions:
REMARK  status: ('A' for Active; 'I' for Inactive)
REMARK    1  A    between atoms: C_3  and  C_8
REMARK    2  A    between atoms: C_8  and  C_9
REMARK    3  A    between atoms: N_14  and  C_15
REMARK    4  A    between atoms: C_15  and  C_17
REMARK    5  A    between atoms: C_17  and  N_18
REMARK    6  A    between atoms: N_18  and  C_19
REMARK    7  A    between atoms: C_19  and  C_20
REMARK                            x       y       z     vdW  Elec       q    Type
REMARK                         _______ _______ _______ _____ _____    ______ ____
ROOT
ATOM      1  C   UNL     1       4.117   2.434   1.397  0.00  0.00    +0.013 A 
ATOM      2  C   UNL     1       4.973   1.731   2.147  0.00  0.00    +0.095 A 
ATOM      3  N   UNL     1       5.205   2.176   3.411  0.00  0.00    -0.342 N 
ATOM      4  C   UNL     1       4.564   3.296   3.840  0.00  0.00    +0.163 A 
ATOM      5  S   UNL     1       3.644   3.747   2.507  0.00  0.00    -0.057 S 
ATOM      6  N   UNL     1       4.648   3.895   5.030  0.00  0.00    -0.158 NA
ATOM      7  H   UNL     1       5.817   1.703   3.996  0.00  0.00    +0.167 HD
ENDROOT
BRANCH   6   8
ATOM      8  C   UNL     1       5.439   3.394   5.971  0.00  0.00    +0.221 C 
ATOM      9  O   UNL     1       6.087   2.389   5.748  0.00  0.00    -0.276 OA
BRANCH   8  10
ATOM     10  C   UNL     1       5.534   4.070   7.314  0.00  0.00    +0.018 C 
BRANCH  10  11
ATOM     11  N   UNL     1       6.468   3.328   8.171  0.00  0.00    +0.389 N 
ATOM     12  H   UNL     1       6.134   2.383   8.293  0.00  0.00    -0.085 HD
ATOM     13  H   UNL     1       7.379   3.309   7.738  0.00  0.00    -0.085 HD
BRANCH  11  14
ATOM     14  C   UNL     1       6.561   3.987   9.480  0.00  0.00    -0.006 C 
BRANCH  14  15
ATOM     15  C   UNL     1       7.519   3.225  10.360  0.00  0.00    +0.088 A 
ATOM     16  C   UNL     1       8.842   3.444  10.455  0.00  0.00    +0.042 A 
ATOM     17  C   UNL     1       9.346   2.508  11.388  0.00  0.00    +0.041 A 
ATOM     18  C   UNL     1       8.300   1.774  11.807  0.00  0.00    +0.195 A 
ATOM     19  O   UNL     1       7.194   2.216  11.185  0.00  0.00    -0.470 OA
ENDBRANCH  14  15
ENDBRANCH  11  14
ENDBRANCH  10  11
ENDBRANCH   8  10
ENDBRANCH   6   8
BRANCH   1  20
ATOM     20  C   UNL     1       3.672   2.184  -0.021  0.00  0.00    +0.079 C 
BRANCH  20  23
ATOM     21  C   UNL     1      -0.017   1.378   0.010  0.00  0.00    +0.002 A 
ATOM     22  C   UNL     1       1.171   2.086   0.002  0.00  0.00    +0.004 A 
ATOM     23  C   UNL     1       2.378   1.412  -0.013  0.00  0.00    -0.041 A 
ATOM     24  C   UNL     1       2.398   0.029  -0.021  0.00  0.00    +0.024 A 
ATOM     25  C   UNL     1       1.210  -0.679  -0.013  0.00  0.00    +0.041 A 
ATOM     26  C   UNL     1       0.002  -0.004   0.002  0.00  0.00    +0.020 A 
ATOM     27 CL   UNL     1       1.234  -2.415  -0.024  0.00  0.00    -0.084 Cl
ENDBRANCH  20  23
ENDBRANCH   1  20
TORSDOF 7
