REMARK  Name = ZINC41113336
REMARK  8 active torsions:
REMARK  status: ('A' for Active; 'I' for Inactive)
REMARK    1  A    between atoms: C_1  and  C_2
REMARK    2  A    between atoms: C_2  and  C_3
REMARK    3  A    between atoms: C_3  and  N_4
REMARK    4  A    between atoms: N_4  and  C_5
REMARK    5  A    between atoms: C_5  and  C_7
REMARK    6  A    between atoms: C_5  and  C_14
REMARK    7  A    between atoms: N_18  and  C_19
REMARK    8  A    between atoms: C_19  and  C_20
REMARK                            x       y       z     vdW  Elec       q    Type
REMARK                         _______ _______ _______ _____ _____    ______ ____
ROOT
ATOM      1  C   UNL     1      -2.684  -2.499  -0.164  0.00  0.00    +0.025 C 
ENDROOT
BRANCH   1   2
ATOM      2  C   UNL     1      -3.433  -2.003   1.047  0.00  0.00    -0.053 A 
ATOM      3  C   UNL     1      -2.861  -2.102   2.302  0.00  0.00    +0.002 A 
ATOM      4  C   UNL     1      -3.547  -1.648   3.412  0.00  0.00    +0.001 A 
ATOM      5  C   UNL     1      -4.805  -1.094   3.268  0.00  0.00    +0.014 A 
ATOM      6  C   UNL     1      -5.378  -0.994   2.013  0.00  0.00    +0.014 A 
ATOM      7  C   UNL     1      -4.688  -1.444   0.902  0.00  0.00    +0.016 A 
ATOM      8  I   UNL     1      -7.285  -0.156   1.795  0.00  0.00    -0.044 I 
ENDBRANCH   1   2
BRANCH   1   9
ATOM      9  C   UNL     1      -2.690  -4.006  -0.175  0.00  0.00    +0.077 A 
ATOM     10  N   UNL     1      -1.837  -4.774   0.444  0.00  0.00    -0.351 N 
ATOM     11  C   UNL     1      -2.147  -6.058   0.211  0.00  0.00    +0.101 A 
ATOM     12  C   UNL     1      -3.234  -6.086  -0.583  0.00  0.00    +0.104 A 
ATOM     13  N   UNL     1      -3.582  -4.785  -0.824  0.00  0.00    -0.337 N 
ATOM     14  H   UNL     1      -1.095  -4.466   0.988  0.00  0.00    +0.166 HD
BRANCH  13  15
ATOM     15  C   UNL     1      -4.710  -4.322  -1.637  0.00  0.00    +0.119 C 
ATOM     16  C   UNL     1      -4.231  -4.042  -3.062  0.00  0.00    +0.027 C 
ENDBRANCH  13  15
ENDBRANCH   1   9
BRANCH   1  17
ATOM     17  N   UNL     1      -1.298  -2.014  -0.115  0.00  0.00    +0.388 N 
ATOM     18  H   UNL     1      -0.776  -2.413  -0.880  0.00  0.00    -0.084 HD
ATOM     19  H   UNL     1      -0.877  -2.290   0.760  0.00  0.00    -0.084 HD
BRANCH  17  20
ATOM     20  C   UNL     1      -1.287  -0.550  -0.224  0.00  0.00    -0.081 C 
BRANCH  20  22
ATOM     21  C   UNL     1       0.168   1.480  -0.287  0.00  0.00    +0.002 C 
ATOM     22  C   UNL     1       0.156  -0.045  -0.173  0.00  0.00    -0.022 C 
ENDBRANCH  20  22
ENDBRANCH  17  20
ENDBRANCH   1  17
TORSDOF 6
