REMARK  Name = ZINC39355511
REMARK  5 active torsions:
REMARK  status: ('A' for Active; 'I' for Inactive)
REMARK    1  A    between atoms: C_7  and  C_10
REMARK    2  A    between atoms: C_10  and  N_11
REMARK    3  A    between atoms: C_15  and  C_18
REMARK    4  A    between atoms: C_18  and  N_19
REMARK    5  A    between atoms: C_20  and  C_22
REMARK                            x       y       z     vdW  Elec       q    Type
REMARK                         _______ _______ _______ _____ _____    ______ ____
ROOT
ATOM      1  N   UNL     1      -4.322   3.702  -1.302  0.00  0.00    +0.383 N 
ATOM      2  C   UNL     1      -5.231   2.935  -2.162  0.00  0.00    -0.078 C 
ATOM      3  C   UNL     1      -5.136   3.453  -3.599  0.00  0.00    -0.018 C 
ATOM      4  C   UNL     1      -5.528   4.933  -3.630  0.00  0.00    +0.001 C 
ATOM      5  C   UNL     1      -4.622   5.711  -2.672  0.00  0.00    -0.011 C 
ATOM      6  C   UNL     1      -4.735   5.110  -1.270  0.00  0.00    -0.073 C 
ATOM      7  H   UNL     1      -3.383   3.636  -1.665  0.00  0.00    -0.081 HD
ENDROOT
BRANCH   1   8
ATOM      8  C   UNL     1      -4.358   3.151   0.060  0.00  0.00    -0.041 C 
BRANCH   8  15
ATOM      9  C   UNL     1      -0.017   1.384   0.010  0.00  0.00    +0.001 A 
ATOM     10  C   UNL     1       0.002  -0.004   0.002  0.00  0.00    +0.002 A 
ATOM     11  C   UNL     1      -1.173  -0.723   0.009  0.00  0.00    +0.026 A 
ATOM     12  C   UNL     1      -2.392  -0.053   0.024  0.00  0.00    +0.047 A 
ATOM     13  N   UNL     1      -3.704  -0.472   0.034  0.00  0.00    -0.360 N 
ATOM     14  C   UNL     1      -4.539   0.612   0.047  0.00  0.00    +0.085 A 
ATOM     15  C   UNL     1      -3.818   1.744   0.047  0.00  0.00    -0.039 A 
ATOM     16  C   UNL     1      -2.406   1.353   0.032  0.00  0.00    +0.001 A 
ATOM     17  C   UNL     1      -1.203   2.062   0.030  0.00  0.00    +0.010 A 
ATOM     18  H   UNL     1      -3.993  -1.398   0.030  0.00  0.00    +0.165 HD
ENDBRANCH   8  15
ENDBRANCH   1   8
BRANCH   5  19
ATOM     19  C   UNL     1      -5.055   7.178  -2.637  0.00  0.00    +0.106 C 
BRANCH  19  20
ATOM     20  N   UNL     1      -4.838   7.783  -3.954  0.00  0.00    -0.314 N 
ATOM     21  C   UNL     1      -5.149   9.078  -4.160  0.00  0.00    +0.236 C 
ATOM     22  O   UNL     1      -5.610   9.742  -3.256  0.00  0.00    -0.274 OA
ATOM     23  H   UNL     1      -4.469   7.251  -4.677  0.00  0.00    +0.149 HD
BRANCH  21  24
ATOM     24  C   UNL     1      -4.926   9.700  -5.514  0.00  0.00    +0.187 C 
ATOM     25  C   UNL     1      -3.472  10.163  -5.675  0.00  0.00    +0.092 C 
ATOM     26  C   UNL     1      -2.538   9.249  -4.929  0.00  0.00    -0.015 C 
ATOM     27  C   UNL     1      -1.541   9.831  -4.247  0.00  0.00    -0.003 C 
ATOM     28  C   UNL     1      -1.375  11.281  -4.227  0.00  0.00    +0.002 C 
ATOM     29  C   UNL     1      -2.322  12.137  -4.673  0.00  0.00    +0.025 C 
ATOM     30  C   UNL     1      -3.531  11.615  -5.220  0.00  0.00    +0.068 C 
ATOM     31  N   UNL     1      -4.753  12.014  -5.320  0.00  0.00    -0.190 NA
ATOM     32  N   UNL     1      -5.653  10.987  -5.636  0.00  0.00    -0.256 N 
ATOM     33  H   UNL     1      -6.583  11.097  -5.890  0.00  0.00    +0.169 HD
ENDBRANCH  21  24
ENDBRANCH  19  20
ENDBRANCH   5  19
TORSDOF 5
