REMARK  Name = ZINC08889193
REMARK  12 active torsions:
REMARK  status: ('A' for Active; 'I' for Inactive)
REMARK    1  A    between atoms: C_1  and  C_2
REMARK    2  A    between atoms: C_2  and  O_3
REMARK    3  A    between atoms: O_3  and  C_4
REMARK    4  A    between atoms: C_4  and  C_6
REMARK    5  A    between atoms: C_10  and  N_11
REMARK    6  A    between atoms: C_12  and  C_14
REMARK    7  A    between atoms: C_14  and  N_15
REMARK    8  A    between atoms: C_18  and  C_22
REMARK    9  A    between atoms: C_18  and  C_23
REMARK   10  A    between atoms: C_26  and  O_29
REMARK   11  A    between atoms: O_29  and  C_30
REMARK   12  A    between atoms: C_32  and  C_36
REMARK                            x       y       z     vdW  Elec       q    Type
REMARK                         _______ _______ _______ _____ _____    ______ ____
ROOT
ATOM      1  N   UNL     1       0.751   5.352   3.634  0.00  0.00    -0.278 N 
ATOM      2  C   UNL     1       1.621   6.220   4.188  0.00  0.00    +0.236 C 
ATOM      3  O   UNL     1       1.397   7.411   4.148  0.00  0.00    -0.274 OA
ATOM      4  H   UNL     1       0.930   4.399   3.666  0.00  0.00    +0.155 HD
ENDROOT
BRANCH   1   9
ATOM      5  C   UNL     1      -1.405   5.091   2.399  0.00  0.00    +0.091 A 
ATOM      6  C   UNL     1      -2.514   5.832   1.822  0.00  0.00    -0.021 A 
ATOM      7  C   UNL     1      -2.445   7.174   1.965  0.00  0.00    -0.004 A 
ATOM      8  S   UNL     1      -0.932   7.459   2.839  0.00  0.00    -0.077 S 
ATOM      9  C   UNL     1      -0.400   5.821   3.019  0.00  0.00    +0.086 A 
ATOM     10  C   UNL     1      -3.437   8.185   1.478  0.00  0.00    +0.046 C 
ATOM     11  C   UNL     1      -4.359   7.503   0.454  0.00  0.00    -0.009 C 
ATOM     12  C   UNL     1      -4.846   6.177   1.045  0.00  0.00    +0.008 C 
ATOM     13  C   UNL     1      -3.689   5.178   1.105  0.00  0.00    +0.037 C 
ATOM     14  C   UNL     1      -5.559   8.408   0.166  0.00  0.00    +0.008 C 
BRANCH   5  15
ATOM     15  C   UNL     1      -1.348   3.630   2.325  0.00  0.00    +0.342 C 
ATOM     16  O   UNL     1      -1.840   2.955   3.209  0.00  0.00    -0.245 OA
BRANCH  15  17
ATOM     17  O   UNL     1      -0.749   3.031   1.275  0.00  0.00    -0.461 OA
BRANCH  17  19
ATOM     18  C   UNL     1      -0.013   1.086   0.008  0.00  0.00    +0.048 C 
ATOM     19  C   UNL     1      -0.729   1.579   1.267  0.00  0.00    +0.229 C 
ENDBRANCH  17  19
ENDBRANCH  15  17
ENDBRANCH   5  15
ENDBRANCH   1   9
BRANCH   2  20
ATOM     20  C   UNL     1       2.871   5.710   4.856  0.00  0.00    +0.214 C 
BRANCH  20  21
ATOM     21  N   UNL     1       3.644   6.842   5.374  0.00  0.00    -0.215 N 
ATOM     22  C   UNL     1       4.594   7.494   4.675  0.00  0.00    +0.251 C 
ATOM     23  O   UNL     1       4.956   7.263   3.541  0.00  0.00    -0.272 OA
ATOM     24  C   UNL     1       5.113   8.577   5.599  0.00  0.00    +0.135 C 
ATOM     25  N   UNL     1       4.327   8.387   6.831  0.00  0.00    -0.281 N 
ATOM     26  C   UNL     1       3.498   7.353   6.602  0.00  0.00    +0.310 C 
ATOM     27  O   UNL     1       2.705   6.929   7.420  0.00  0.00    -0.252 OA
ATOM     28  C   UNL     1       6.604   8.373   5.876  0.00  0.00    +0.047 C 
ATOM     29  H   UNL     1       4.394   8.907   7.647  0.00  0.00    +0.152 HD
BRANCH  24  30
ATOM     30  C   UNL     1       4.865   9.945   5.018  0.00  0.00    -0.015 A 
ATOM     31  C   UNL     1       4.929  10.135   3.650  0.00  0.00    +0.010 A 
ATOM     32  C   UNL     1       4.697  11.387   3.114  0.00  0.00    +0.046 A 
ATOM     33  C   UNL     1       4.410  12.456   3.950  0.00  0.00    +0.120 A 
ATOM     34  C   UNL     1       4.352  12.264   5.323  0.00  0.00    +0.046 A 
ATOM     35  C   UNL     1       4.580  11.009   5.854  0.00  0.00    +0.010 A 
BRANCH  33  36
ATOM     36  O   UNL     1       4.186  13.690   3.426  0.00  0.00    -0.495 OA
ATOM     37  C   UNL     1       4.263  13.814   2.004  0.00  0.00    +0.277 C 
ENDBRANCH  33  36
ENDBRANCH  24  30
ENDBRANCH  20  21
ENDBRANCH   2  20
TORSDOF 8
