REMARK  Name = ZINC09610869
REMARK  11 active torsions:
REMARK  status: ('A' for Active; 'I' for Inactive)
REMARK    1  A    between atoms: C_1  and  C_2
REMARK    2  A    between atoms: C_5  and  N_9
REMARK    3  A    between atoms: C_10  and  C_12
REMARK    4  A    between atoms: C_12  and  C_14
REMARK    5  A    between atoms: C_12  and  N_18
REMARK    6  A    between atoms: C_14  and  C_15
REMARK    7  A    between atoms: C_15  and  C_16
REMARK    8  A    between atoms: C_15  and  C_17
REMARK    9  A    between atoms: N_18  and  S_19
REMARK   10  A    between atoms: S_19  and  C_22
REMARK   11  A    between atoms: C_29  and  C_31
REMARK                            x       y       z     vdW  Elec       q    Type
REMARK                         _______ _______ _______ _____ _____    ______ ____
ROOT
ATOM      1  C   UNL     1       6.012   3.017   2.541  0.00  0.00    +0.163 C 
ENDROOT
BRANCH   1   3
ATOM      2  N   UNL     1       6.671   2.478   4.863  0.00  0.00    -0.283 N 
ATOM      3  C   UNL     1       6.615   3.388   3.871  0.00  0.00    +0.236 C 
ATOM      4  O   UNL     1       7.049   4.506   4.049  0.00  0.00    -0.274 OA
ATOM      5  H   UNL     1       6.393   1.563   4.698  0.00  0.00    +0.155 HD
BRANCH   2  10
ATOM      6  C   UNL     1       8.537   3.994  10.002  0.00  0.00    +0.044 C 
ATOM      7  C   UNL     1       8.042   3.591   8.637  0.00  0.00    -0.049 A 
ATOM      8  C   UNL     1       7.367   4.506   7.850  0.00  0.00    +0.005 A 
ATOM      9  C   UNL     1       6.912   4.140   6.599  0.00  0.00    +0.024 A 
ATOM     10  C   UNL     1       7.132   2.852   6.131  0.00  0.00    +0.048 A 
ATOM     11  C   UNL     1       7.805   1.933   6.926  0.00  0.00    +0.039 A 
ATOM     12  C   UNL     1       8.262   2.307   8.175  0.00  0.00    +0.020 A 
ATOM     13 BR   UNL     1       8.100   0.173   6.298  0.00  0.00    -0.048 Br
ENDBRANCH   2  10
ENDBRANCH   1   3
BRANCH   1  14
ATOM     14  N   UNL     1       6.068   4.170   1.640  0.00  0.00    -0.178 NA
ATOM     15  H   UNL     1       5.358   4.831   1.652  0.00  0.00    +0.149 HD
BRANCH  14  16
ATOM     16  S   UNL     1       7.345   4.348   0.601  0.00  0.00    +0.059 S 
ATOM     17  O   UNL     1       8.525   4.170   1.373  0.00  0.00    -0.153 OA
ATOM     18  O   UNL     1       7.097   5.528  -0.150  0.00  0.00    -0.153 OA
BRANCH  16  19
ATOM     19  C   UNL     1       7.281   3.004  -0.538  0.00  0.00    +0.106 A 
ATOM     20  C   UNL     1       6.508   3.097  -1.687  0.00  0.00    +0.030 A 
ATOM     21  C   UNL     1       6.439   2.076  -2.584  0.00  0.00    +0.031 A 
ATOM     22  C   UNL     1       7.158   0.879  -2.372  0.00  0.00    +0.079 A 
ATOM     23  C   UNL     1       7.936   0.813  -1.194  0.00  0.00    +0.041 A 
ATOM     24  C   UNL     1       7.999   1.849  -0.293  0.00  0.00    +0.045 A 
ATOM     25  S   UNL     1       8.654  -0.806  -1.313  0.00  0.00    -0.072 S 
ATOM     26  C   UNL     1       7.927  -1.269  -2.820  0.00  0.00    +0.076 A 
ATOM     27  N   UNL     1       7.213  -0.228  -3.142  0.00  0.00    -0.244 NA
ATOM     28  C   UNL     1       8.084  -2.564  -3.574  0.00  0.00    +0.073 C 
ENDBRANCH  16  19
ENDBRANCH  14  16
ENDBRANCH   1  14
BRANCH   1  29
ATOM     29  C   UNL     1       4.554   2.597   2.741  0.00  0.00    +0.032 C 
BRANCH  29  30
ATOM     30  C   UNL     1       3.995   2.051   1.426  0.00  0.00    -0.015 C 
ATOM     31  C   UNL     1       2.595   1.483   1.664  0.00  0.00    +0.007 C 
ATOM     32  C   UNL     1       3.920   3.179   0.396  0.00  0.00    +0.007 C 
ENDBRANCH  29  30
ENDBRANCH   1  29
TORSDOF 7
