REMARK  Name = ZINC40824462
REMARK  6 active torsions:
REMARK  status: ('A' for Active; 'I' for Inactive)
REMARK    1  A    between atoms: C_1  and  C_2
REMARK    2  A    between atoms: C_6  and  C_7
REMARK    3  A    between atoms: N_12  and  C_15
REMARK    4  A    between atoms: N_26  and  N_27
REMARK    5  A    between atoms: N_27  and  C_28
REMARK    6  A    between atoms: C_28  and  N_30
REMARK                            x       y       z     vdW  Elec       q    Type
REMARK                         _______ _______ _______ _____ _____    ______ ____
ROOT
ATOM      1  C   UNL     1       0.543   1.437   0.013  0.00  0.00    +0.048 C 
ATOM      2  C   UNL     1       0.189  -0.028   0.003  0.00  0.00    +0.009 A 
ATOM      3  C   UNL     1       0.028  -0.845  -1.122  0.00  0.00    +0.042 A 
ATOM      4  C   UNL     1      -0.292  -2.105  -0.674  0.00  0.00    +0.115 A 
ATOM      5  O   UNL     1      -0.325  -2.073   0.657  0.00  0.00    -0.454 OA
ATOM      6  C   UNL     1      -0.033  -0.825   1.091  0.00  0.00    +0.193 A 
ATOM      7  C   UNL     1      -0.548  -3.265  -1.602  0.00  0.00    +0.075 C 
ATOM      8  C   UNL     1      -0.903  -2.735  -2.994  0.00  0.00    +0.014 C 
ATOM      9  C   UNL     1       0.163  -1.750  -3.484  0.00  0.00    +0.058 C 
ATOM     10  C   UNL     1       0.151  -0.538  -2.564  0.00  0.00    +0.070 C 
ATOM     11  N   UNL     1       0.243   0.676  -3.011  0.00  0.00    -0.185 NA
ENDROOT
BRANCH   6  12
ATOM     12  C   UNL     1       0.031  -0.400   2.494  0.00  0.00    +0.282 C 
ATOM     13  O   UNL     1       0.156   0.780   2.766  0.00  0.00    -0.267 OA
ATOM     14  N   UNL     1      -0.049  -1.315   3.480  0.00  0.00    -0.292 N 
ATOM     15  C   UNL     1      -0.026  -2.751   3.171  0.00  0.00    +0.127 C 
ATOM     16  C   UNL     1       1.108  -3.406   3.970  0.00  0.00    +0.124 C 
ATOM     17  N   UNL     1       0.998  -2.985   5.373  0.00  0.00    -0.325 N 
ATOM     18  C   UNL     1       0.975  -1.549   5.682  0.00  0.00    +0.124 C 
ATOM     19  C   UNL     1      -0.153  -0.893   4.884  0.00  0.00    +0.127 C 
BRANCH  17  20
ATOM     20  C   UNL     1       0.915  -3.935   6.397  0.00  0.00    +0.065 A 
ATOM     21  C   UNL     1       2.072  -4.405   7.004  0.00  0.00    +0.026 A 
ATOM     22  C   UNL     1       1.987  -5.343   8.016  0.00  0.00    +0.002 A 
ATOM     23  C   UNL     1       0.753  -5.814   8.423  0.00  0.00    +0.003 A 
ATOM     24  C   UNL     1      -0.402  -5.349   7.821  0.00  0.00    +0.040 A 
ATOM     25  C   UNL     1      -0.326  -4.406   6.812  0.00  0.00    +0.144 A 
ATOM     26  F   UNL     1      -1.454  -3.947   6.228  0.00  0.00    -0.204 F 
ENDBRANCH  17  20
ENDBRANCH   6  12
BRANCH  11  27
ATOM     27  N   UNL     1       0.358   0.909  -4.388  0.00  0.00    -0.218 N 
ATOM     28  H   UNL     1       0.370   0.162  -5.007  0.00  0.00    +0.176 HD
BRANCH  27  29
ATOM     29  C   UNL     1       0.453   2.171  -4.853  0.00  0.00    +0.147 C 
ATOM     30  S   UNL     1       0.594   2.455  -6.535  0.00  0.00    -0.017 S 
BRANCH  29  31
ATOM     31  N   UNL     1       0.438   3.208  -3.993  0.00  0.00    -0.339 N 
ATOM     32  H   UNL     1       0.358   3.047  -3.040  0.00  0.00    +0.144 HD
ATOM     33  H   UNL     1       0.506   4.116  -4.328  0.00  0.00    +0.144 HD
ENDBRANCH  29  31
ENDBRANCH  27  29
ENDBRANCH  11  27
TORSDOF 5
