REMARK  Name = ZINC25420401
REMARK  7 active torsions:
REMARK  status: ('A' for Active; 'I' for Inactive)
REMARK    1  A    between atoms: C_1  and  C_2
REMARK    2  A    between atoms: C_3  and  O_29
REMARK    3  A    between atoms: C_12  and  C_13
REMARK    4  A    between atoms: C_13  and  N_14
REMARK    5  A    between atoms: N_14  and  C_15
REMARK    6  A    between atoms: C_15  and  C_17
REMARK    7  A    between atoms: C_15  and  C_23
REMARK                            x       y       z     vdW  Elec       q    Type
REMARK                         _______ _______ _______ _____ _____    ______ ____
ROOT
ATOM      1  C   UNL     1       0.071  -4.351   2.466  0.00  0.00    +0.118 C 
ENDROOT
BRANCH   1  13
ATOM      2  C   UNL     1      -0.018   1.503   0.010  0.00  0.00    +0.051 C 
ATOM      3  C   UNL     1       0.002  -0.004   0.002  0.00  0.00    +0.034 A 
ATOM      4  C   UNL     1       0.006  -0.693  -1.200  0.00  0.00    +0.123 A 
ATOM      5  C   UNL     1       0.024  -2.086  -1.219  0.00  0.00    +0.046 A 
ATOM      6  C   UNL     1       0.039  -2.792  -0.051  0.00  0.00    +0.015 A 
ATOM      7  C   UNL     1       0.036  -2.113   1.173  0.00  0.00    +0.022 A 
ATOM      8  C   UNL     1       0.023  -0.706   1.198  0.00  0.00    +0.146 A 
ATOM      9  O   UNL     1       0.025  -0.054   2.380  0.00  0.00    -0.422 OA
ATOM     10  C   UNL     1       0.045  -0.719   3.546  0.00  0.00    +0.338 A 
ATOM     11  O   UNL     1       0.046  -0.089   4.588  0.00  0.00    -0.245 OA
ATOM     12  C   UNL     1       0.065  -2.128   3.595  0.00  0.00    +0.097 A 
ATOM     13  C   UNL     1       0.051  -2.845   2.441  0.00  0.00    -0.016 A 
BRANCH   4  14
ATOM     14  O   UNL     1      -0.009  -0.004  -2.370  0.00  0.00    -0.506 OA
ATOM     15  H   UNL     1       0.870   0.207  -2.713  0.00  0.00    +0.292 HD
ENDBRANCH   4  14
ENDBRANCH   1  13
BRANCH   1  16
ATOM     16  N   UNL     1      -1.303  -4.861   2.359  0.00  0.00    -0.300 NA
ATOM     17  H   UNL     1      -1.887  -4.481   3.089  0.00  0.00    +0.123 HD
BRANCH  16  18
ATOM     18  C   UNL     1      -1.323  -6.330   2.380  0.00  0.00    +0.134 C 
BRANCH  18  19
ATOM     19  C   UNL     1      -1.089  -6.855   0.987  0.00  0.00    -0.025 A 
ATOM     20  C   UNL     1      -1.672  -6.224  -0.097  0.00  0.00    +0.005 A 
ATOM     21  C   UNL     1      -1.458  -6.705  -1.375  0.00  0.00    +0.000 A 
ATOM     22  C   UNL     1      -0.660  -7.817  -1.569  0.00  0.00    +0.000 A 
ATOM     23  C   UNL     1      -0.076  -8.448  -0.486  0.00  0.00    +0.000 A 
ATOM     24  C   UNL     1      -0.287  -7.963   0.791  0.00  0.00    +0.005 A 
ENDBRANCH  18  19
BRANCH  18  25
ATOM     25  C   UNL     1      -2.662  -6.807   2.878  0.00  0.00    +0.063 A 
ATOM     26  C   UNL     1      -2.741  -7.491   4.077  0.00  0.00    +0.025 A 
ATOM     27  C   UNL     1      -3.978  -7.926   4.526  0.00  0.00    +0.003 A 
ATOM     28  C   UNL     1      -5.095  -7.655   3.750  0.00  0.00    +0.020 A 
ATOM     29  C   UNL     1      -4.939  -6.965   2.563  0.00  0.00    +0.111 A 
ATOM     30  N   UNL     1      -3.747  -6.562   2.169  0.00  0.00    -0.258 NA
ENDBRANCH  18  25
ENDBRANCH  16  18
ENDBRANCH   1  16
TORSDOF 6
