REMARK  Name = ZINC63092431
REMARK  9 active torsions:
REMARK  status: ('A' for Active; 'I' for Inactive)
REMARK    1  A    between atoms: C_1  and  C_2
REMARK    2  A    between atoms: C_2  and  C_4
REMARK    3  A    between atoms: C_2  and  N_8
REMARK    4  A    between atoms: C_4  and  C_5
REMARK    5  A    between atoms: N_8  and  C_9
REMARK    6  A    between atoms: N_13  and  C_17
REMARK    7  A    between atoms: C_17  and  C_18
REMARK    8  A    between atoms: C_17  and  C_19
REMARK    9  A    between atoms: C_17  and  C_20
REMARK                            x       y       z     vdW  Elec       q    Type
REMARK                         _______ _______ _______ _____ _____    ______ ____
ROOT
ATOM      1  N   UNL     1       0.711  -0.489   1.189  0.00  0.00    -0.311 N 
ATOM      2  C   UNL     1       2.111  -0.241   1.538  0.00  0.00    +0.131 C 
ATOM      3  C   UNL     1      -0.138  -1.093   2.108  0.00  0.00    +0.187 A 
ATOM      4  C   UNL     1       0.320  -1.364   3.476  0.00  0.00    +0.292 A 
ATOM      5  O   UNL     1       1.448  -1.065   3.827  0.00  0.00    -0.264 OA
ATOM      6  N   UNL     1      -0.540  -1.953   4.336  0.00  0.00    -0.306 N 
ATOM      7  C   UNL     1      -1.794  -2.273   3.907  0.00  0.00    +0.109 A 
ATOM      8  C   UNL     1      -2.181  -2.009   2.641  0.00  0.00    +0.131 A 
ATOM      9  N   UNL     1      -1.364  -1.425   1.766  0.00  0.00    -0.234 NA
ENDROOT
BRANCH   6  10
ATOM     10  C   UNL     1      -0.130  -2.245   5.712  0.00  0.00    +0.040 C 
ATOM     11  C   UNL     1       0.254  -0.942   6.417  0.00  0.00    +0.034 C 
ATOM     12  C   UNL     1      -1.288  -2.907   6.461  0.00  0.00    +0.034 C 
ATOM     13  C   UNL     1       1.073  -3.190   5.696  0.00  0.00    +0.034 C 
ENDBRANCH   6  10
BRANCH   1  15
ATOM     14  C   UNL     1       0.370   1.409  -0.316  0.00  0.00    +0.028 C 
ATOM     15  C   UNL     1       0.205  -0.101  -0.130  0.00  0.00    +0.078 C 
BRANCH  15  16
ATOM     16  C   UNL     1       0.993  -0.837  -1.215  0.00  0.00    +0.090 C 
BRANCH  16  17
ATOM     17  C   UNL     1       0.732  -2.318  -1.108  0.00  0.00    +0.064 C 
ATOM     18  N   UNL     1       1.506  -3.072  -0.346  0.00  0.00    -0.391 N 
ATOM     19  N   UNL     1      -0.270  -2.863  -1.777  0.00  0.00    -0.348 N 
ATOM     20  H   UNL     1       2.241  -2.672   0.144  0.00  0.00    +0.157 HD
ATOM     21  H   UNL     1      -0.837  -2.310  -2.336  0.00  0.00    +0.143 HD
ATOM     22  H   UNL     1      -0.437  -3.816  -1.708  0.00  0.00    +0.143 HD
ATOM     23  H   UNL     1       1.338  -4.024  -0.277  0.00  0.00    +0.157 HD
ENDBRANCH  16  17
ENDBRANCH  15  16
ENDBRANCH   1  15
TORSDOF 4
