REMARK  Name = ZINC40385695
REMARK  8 active torsions:
REMARK  status: ('A' for Active; 'I' for Inactive)
REMARK    1  A    between atoms: C_1  and  C_2
REMARK    2  A    between atoms: C_2  and  C_3
REMARK    3  A    between atoms: C_4  and  C_36
REMARK    4  A    between atoms: C_6  and  C_26
REMARK    5  A    between atoms: C_8  and  N_9
REMARK    6  A    between atoms: C_15  and  C_17
REMARK    7  A    between atoms: C_20  and  N_23
REMARK    8  A    between atoms: C_29  and  C_32
REMARK                            x       y       z     vdW  Elec       q    Type
REMARK                         _______ _______ _______ _____ _____    ______ ____
ROOT
ATOM      1  C   UNL     1       0.332  -0.349   0.497  0.00  0.00    +0.011 A 
ATOM      2  C   UNL     1       1.665  -0.630   0.259  0.00  0.00    +0.021 A 
ATOM      3  N   UNL     1       2.445  -0.973   1.272  0.00  0.00    -0.343 N 
ATOM      4  C   UNL     1       1.966  -1.050   2.506  0.00  0.00    +0.140 A 
ATOM      5  N   UNL     1       0.695  -0.789   2.776  0.00  0.00    -0.214 NA
ATOM      6  C   UNL     1      -0.143  -0.433   1.808  0.00  0.00    +0.128 A 
ATOM      7  C   UNL     1       2.223  -0.547  -1.138  0.00  0.00    +0.064 C 
ATOM      8  H   UNL     1       3.381  -1.171   1.109  0.00  0.00    +0.167 HD
ENDROOT
BRANCH   6   9
ATOM      9  N   UNL     1      -1.470  -0.156   2.094  0.00  0.00    -0.312 N 
ATOM     10  C   UNL     1      -2.500  -1.194   1.946  0.00  0.00    +0.125 C 
ATOM     11  C   UNL     1      -3.248  -1.335   3.277  0.00  0.00    +0.127 C 
ATOM     12  N   UNL     1      -3.651   0.003   3.734  0.00  0.00    -0.295 N 
ATOM     13  C   UNL     1      -2.621   1.041   3.881  0.00  0.00    +0.127 C 
ATOM     14  C   UNL     1      -1.872   1.180   2.555  0.00  0.00    +0.125 C 
ATOM     15  C   UNL     1      -4.941   0.273   4.012  0.00  0.00    +0.247 C 
ATOM     16  O   UNL     1      -5.279   1.407   4.290  0.00  0.00    -0.270 OA
BRANCH  15  17
ATOM     17  C   UNL     1      -5.947  -0.810   3.978  0.00  0.00    +0.037 A 
ATOM     18  C   UNL     1      -5.596  -2.105   4.363  0.00  0.00    +0.015 A 
ATOM     19  C   UNL     1      -6.540  -3.111   4.330  0.00  0.00    +0.033 A 
ATOM     20  C   UNL     1      -7.831  -2.839   3.914  0.00  0.00    +0.126 A 
ATOM     21  C   UNL     1      -8.185  -1.558   3.530  0.00  0.00    +0.033 A 
ATOM     22  C   UNL     1      -7.253  -0.541   3.565  0.00  0.00    +0.015 A 
BRANCH  20  23
ATOM     23  N   UNL     1      -8.838  -3.923   3.880  0.00  0.00    +0.056 N 
ATOM     24  O   UNL     1      -8.531  -5.044   4.214  0.00  0.00    -0.126 OA
ATOM     25  O   UNL     1      -9.967  -3.688   3.517  0.00  0.00    -0.126 OA
ENDBRANCH  20  23
ENDBRANCH  15  17
ENDBRANCH   6   9
BRANCH   4  26
ATOM     26  C   UNL     1       2.875  -1.439   3.612  0.00  0.00    +0.017 A 
ATOM     27  C   UNL     1       4.216  -1.713   3.351  0.00  0.00    +0.012 A 
ATOM     28  C   UNL     1       5.057  -2.074   4.384  0.00  0.00    +0.013 A 
ATOM     29  C   UNL     1       4.571  -2.164   5.676  0.00  0.00    +0.055 A 
ATOM     30  C   UNL     1       3.241  -1.894   5.941  0.00  0.00    +0.013 A 
ATOM     31  C   UNL     1       2.392  -1.526   4.916  0.00  0.00    +0.012 A 
BRANCH  29  32
ATOM     32  C   UNL     1       5.494  -2.560   6.800  0.00  0.00    +0.417 C 
ATOM     33  F   UNL     1       6.079  -1.413   7.349  0.00  0.00    -0.166 F 
ATOM     34  F   UNL     1       4.766  -3.231   7.788  0.00  0.00    -0.166 F 
ATOM     35  F   UNL     1       6.496  -3.403   6.306  0.00  0.00    -0.166 F 
ENDBRANCH  29  32
ENDBRANCH   4  26
BRANCH   1  37
ATOM     36  C   UNL     1      -0.505   1.557  -0.850  0.00  0.00    +0.009 C 
ATOM     37  C   UNL     1      -0.585   0.044  -0.632  0.00  0.00    +0.037 C 
ENDBRANCH   1  37
TORSDOF 6
