REMARK  Name = ZINC40139104
REMARK  9 active torsions:
REMARK  status: ('A' for Active; 'I' for Inactive)
REMARK    1  A    between atoms: C_1  and  C_2
REMARK    2  A    between atoms: C_2  and  C_3
REMARK    3  A    between atoms: C_2  and  C_4
REMARK    4  A    between atoms: C_7  and  S_10
REMARK    5  A    between atoms: S_10  and  N_13
REMARK    6  A    between atoms: N_13  and  C_14
REMARK    7  A    between atoms: C_18  and  S_20
REMARK    8  A    between atoms: S_20  and  N_23
REMARK    9  A    between atoms: N_28  and  C_29
REMARK                            x       y       z     vdW  Elec       q    Type
REMARK                         _______ _______ _______ _____ _____    ______ ____
ROOT
ATOM      1  C   UNL     1      -6.257  -0.816  -2.194  0.00  0.00    +0.050 A 
ATOM      2  C   UNL     1      -4.962  -0.900  -2.688  0.00  0.00    +0.024 A 
ATOM      3  C   UNL     1      -4.730  -0.757  -4.042  0.00  0.00    +0.004 A 
ATOM      4  C   UNL     1      -5.786  -0.529  -4.906  0.00  0.00    +0.029 A 
ATOM      5  C   UNL     1      -7.077  -0.445  -4.417  0.00  0.00    +0.114 A 
ATOM      6  C   UNL     1      -7.316  -0.593  -3.065  0.00  0.00    +0.053 A 
ENDROOT
BRANCH   5   7
ATOM      7  S   UNL     1      -8.418  -0.154  -5.522  0.00  0.00    +0.100 S 
ATOM      8  O   UNL     1      -9.461   0.426  -4.751  0.00  0.00    -0.146 OA
ATOM      9  O   UNL     1      -7.870   0.486  -6.666  0.00  0.00    -0.146 OA
BRANCH   7  10
ATOM     10  N   UNL     1      -8.967  -1.633  -6.025  0.00  0.00    -0.118 NA
ATOM     11  C   UNL     1      -9.959  -1.708  -6.851  0.00  0.00    +0.119 C 
ATOM     12  C   UNL     1     -10.711  -0.532  -7.446  0.00  0.00    +0.075 C 
ATOM     13  C   UNL     1     -12.126  -1.102  -7.696  0.00  0.00    +0.026 C 
ATOM     14  C   UNL     1     -11.861  -2.612  -7.860  0.00  0.00    +0.106 C 
ATOM     15  N   UNL     1     -10.508  -2.861  -7.344  0.00  0.00    -0.320 N 
ATOM     16  C   UNL     1      -9.838  -4.164  -7.353  0.00  0.00    +0.130 C 
ENDBRANCH   7  10
ENDBRANCH   5   7
BRANCH   1  17
ATOM     17  N   UNL     1      -6.495  -0.960  -0.826  0.00  0.00    -0.216 N 
ATOM     18  H   UNL     1      -6.702  -0.182  -0.284  0.00  0.00    +0.174 HD
BRANCH  17  19
ATOM     19  S   UNL     1      -6.426  -2.460  -0.127  0.00  0.00    +0.072 S 
ATOM     20  O   UNL     1      -6.724  -2.281   1.251  0.00  0.00    -0.150 OA
ATOM     21  O   UNL     1      -5.217  -3.060  -0.573  0.00  0.00    -0.150 OA
BRANCH  19  25
ATOM     22  C   UNL     1      -9.808  -4.911  -1.873  0.00  0.00    -0.045 A 
ATOM     23  C   UNL     1      -8.540  -4.995  -2.418  0.00  0.00    +0.006 A 
ATOM     24  C   UNL     1      -7.507  -4.246  -1.885  0.00  0.00    +0.029 A 
ATOM     25  C   UNL     1      -7.742  -3.413  -0.807  0.00  0.00    +0.109 A 
ATOM     26  C   UNL     1      -9.010  -3.329  -0.263  0.00  0.00    +0.029 A 
ATOM     27  C   UNL     1     -10.044  -4.074  -0.798  0.00  0.00    +0.006 A 
BRANCH  22  29
ATOM     28  C   UNL     1     -11.132  -5.349  -3.923  0.00  0.00    +0.012 C 
ATOM     29  C   UNL     1     -10.934  -5.727  -2.454  0.00  0.00    +0.013 C 
ATOM     30  C   UNL     1     -10.591  -7.214  -2.352  0.00  0.00    +0.012 C 
ENDBRANCH  22  29
ENDBRANCH  19  25
ENDBRANCH  17  19
ENDBRANCH   1  17
TORSDOF 6
