REMARK  Name = ZINC12070800
REMARK  15 active torsions:
REMARK  status: ('A' for Active; 'I' for Inactive)
REMARK    1  A    between atoms: C_1  and  C_2
REMARK    2  A    between atoms: C_2  and  N_69
REMARK    3  A    between atoms: C_3  and  C_4
REMARK    4  A    between atoms: C_3  and  N_69
REMARK    5  A    between atoms: C_5  and  C_6
REMARK    6  A    between atoms: C_5  and  N_69
REMARK    7  A    between atoms: C_6  and  N_7
REMARK    8  A    between atoms: C_11  and  C_18
REMARK    9  A    between atoms: C_12  and  C_17
REMARK   10  A    between atoms: C_19  and  C_21
REMARK   11  A    between atoms: C_21  and  C_22
REMARK   12  A    between atoms: C_25  and  S_28
REMARK   13  A    between atoms: S_28  and  C_31
REMARK   14  A    between atoms: C_31  and  C_32
REMARK   15  A    between atoms: C_31  and  C_33
REMARK                            x       y       z     vdW  Elec       q    Type
REMARK                         _______ _______ _______ _____ _____    ______ ____
ROOT
ATOM      1  N   UNL     1      -2.014   2.890   8.309  0.00  0.00    -0.252 N 
ATOM      2  C   UNL     1      -1.352   2.533   9.473  0.00  0.00    +0.168 A 
ATOM      3  N   UNL     1      -0.168   1.983   9.611  0.00  0.00    -0.224 NA
ATOM      4  C   UNL     1       0.358   1.687  10.819  0.00  0.00    +0.083 A 
ATOM      5  C   UNL     1       1.612   1.098  11.105  0.00  0.00    -0.021 A 
ATOM      6  C   UNL     1       1.996   0.863  12.399  0.00  0.00    -0.045 A 
ATOM      7  C   UNL     1       1.177   1.190  13.470  0.00  0.00    +0.005 A 
ATOM      8  C   UNL     1      -0.056   1.767  13.227  0.00  0.00    +0.017 A 
ATOM      9  C   UNL     1      -0.450   2.006  11.934  0.00  0.00    +0.041 A 
ATOM     10  S   UNL     1      -1.890   2.710  11.168  0.00  0.00    -0.052 S 
ATOM     11  C   UNL     1       3.340   0.234  12.665  0.00  0.00    +0.044 C 
ATOM     12  C   UNL     1       2.535   0.725   9.974  0.00  0.00    +0.046 C 
ATOM     13  C   UNL     1      -1.433   2.678   7.112  0.00  0.00    +0.225 C 
ATOM     14  O   UNL     1      -0.331   2.176   7.053  0.00  0.00    -0.275 OA
ENDROOT
BRANCH   1  15
ATOM     15  C   UNL     1      -3.345   3.497   8.381  0.00  0.00    +0.097 C 
BRANCH  15  16
ATOM     16  C   UNL     1      -4.409   2.398   8.345  0.00  0.00    -0.059 C 
BRANCH  16  17
ATOM     17  N   UNL     1      -5.745   3.025   8.439  0.00  0.00    +0.380 N 
ATOM     18  H   UNL     1      -5.760   3.658   9.248  0.00  0.00    -0.082 HD
BRANCH  17  20
ATOM     19  C   UNL     1      -6.066   2.886   5.992  0.00  0.00    -0.017 C 
ATOM     20  C   UNL     1      -6.024   3.804   7.215  0.00  0.00    -0.082 C 
ENDBRANCH  17  20
BRANCH  17  21
ATOM     21  C   UNL     1      -6.779   1.985   8.623  0.00  0.00    -0.082 C 
ATOM     22  C   UNL     1      -8.084   2.660   9.051  0.00  0.00    -0.017 C 
ENDBRANCH  17  21
ENDBRANCH  16  17
ENDBRANCH  15  16
ENDBRANCH   1  15
BRANCH  13  23
ATOM     23  C   UNL     1      -2.152   3.067   5.846  0.00  0.00    +0.131 C 
BRANCH  23  24
ATOM     24  C   UNL     1      -1.293   2.728   4.655  0.00  0.00    -0.038 A 
ATOM     25  C   UNL     1      -1.398   1.485   4.059  0.00  0.00    +0.006 A 
ATOM     26  C   UNL     1      -0.610   1.174   2.967  0.00  0.00    +0.027 A 
ATOM     27  C   UNL     1       0.282   2.106   2.470  0.00  0.00    +0.088 A 
ATOM     28  C   UNL     1       0.390   3.347   3.069  0.00  0.00    +0.027 A 
ATOM     29  C   UNL     1      -0.401   3.659   4.159  0.00  0.00    +0.006 A 
BRANCH  27  30
ATOM     30  S   UNL     1       1.286   1.709   1.078  0.00  0.00    -0.001 S 
ATOM     31  O   UNL     1       1.407   0.294   1.109  0.00  0.00    -0.169 OA
ATOM     32  O   UNL     1       2.434   2.537   1.211  0.00  0.00    -0.169 OA
BRANCH  30  33
ATOM     33  C   UNL     1       0.310   2.222  -0.362  0.00  0.00    +0.130 C 
ATOM     34  C   UNL     1       0.027   3.723  -0.278  0.00  0.00    +0.032 C 
ATOM     35  C   UNL     1       1.093   1.922  -1.642  0.00  0.00    +0.032 C 
ENDBRANCH  30  33
ENDBRANCH  27  30
ENDBRANCH  23  24
ENDBRANCH  13  23
TORSDOF 9
