REMARK  Name = ZINC20854171
REMARK  6 active torsions:
REMARK  status: ('A' for Active; 'I' for Inactive)
REMARK    1  A    between atoms: C_4  and  C_7
REMARK    2  A    between atoms: C_10  and  C_12
REMARK    3  A    between atoms: C_12  and  C_14
REMARK    4  A    between atoms: C_12  and  N_21
REMARK    5  A    between atoms: N_21  and  S_22
REMARK    6  A    between atoms: S_22  and  C_25
REMARK                            x       y       z     vdW  Elec       q    Type
REMARK                         _______ _______ _______ _____ _____    ______ ____
ROOT
ATOM      1  C   UNL     1       2.490   1.047  -0.016  0.00  0.00    +0.194 C 
ENDROOT
BRANCH   1   2
ATOM      2  C   UNL     1       1.175   1.783   0.000  0.00  0.00    -0.020 A 
ATOM      3  C   UNL     1      -0.013   1.076   0.008  0.00  0.00    +0.007 A 
ATOM      4  C   UNL     1      -1.219   1.750   0.017  0.00  0.00    +0.020 A 
ATOM      5  C   UNL     1      -1.237   3.134   0.030  0.00  0.00    +0.041 A 
ATOM      6  C   UNL     1      -0.048   3.841   0.022  0.00  0.00    +0.020 A 
ATOM      7  C   UNL     1       1.157   3.165   0.008  0.00  0.00    +0.007 A 
ATOM      8 CL   UNL     1      -2.752   3.982   0.048  0.00  0.00    -0.084 Cl
ENDBRANCH   1   2
BRANCH   1  12
ATOM      9  C   UNL     1       3.619   0.390  -3.396  0.00  0.00    +0.248 A 
ATOM     10  N   UNL     1       3.938   1.652  -3.229  0.00  0.00    -0.107 NA
ATOM     11  N   UNL     1       3.583   2.027  -2.050  0.00  0.00    -0.110 NA
ATOM     12  C   UNL     1       3.035   1.024  -1.421  0.00  0.00    +0.240 A 
ATOM     13  O   UNL     1       3.041  -0.031  -2.253  0.00  0.00    -0.418 OA
BRANCH   9  17
ATOM     14  C   UNL     1       4.280  -1.935  -6.889  0.00  0.00    +0.000 A 
ATOM     15  C   UNL     1       4.674  -0.609  -6.859  0.00  0.00    +0.001 A 
ATOM     16  C   UNL     1       4.462   0.152  -5.728  0.00  0.00    +0.013 A 
ATOM     17  C   UNL     1       3.849  -0.419  -4.612  0.00  0.00    +0.038 A 
ATOM     18  C   UNL     1       3.459  -1.759  -4.646  0.00  0.00    +0.013 A 
ATOM     19  C   UNL     1       3.672  -2.507  -5.786  0.00  0.00    +0.001 A 
ENDBRANCH   9  17
ENDBRANCH   1  12
BRANCH   1  20
ATOM     20  N   UNL     1       3.442   1.727   0.866  0.00  0.00    -0.173 NA
ATOM     21  H   UNL     1       4.148   2.462   0.452  0.00  0.00    +0.149 HD
BRANCH  20  22
ATOM     22  S   UNL     1       3.628   1.219   2.431  0.00  0.00    +0.059 S 
ATOM     23  O   UNL     1       4.626   2.048   3.011  0.00  0.00    -0.153 OA
ATOM     24  O   UNL     1       2.322   1.102   2.979  0.00  0.00    -0.153 OA
BRANCH  22  25
ATOM     25  C   UNL     1       4.298  -0.410   2.374  0.00  0.00    +0.105 A 
ATOM     26  C   UNL     1       3.453  -1.504   2.341  0.00  0.00    +0.031 A 
ATOM     27  C   UNL     1       3.977  -2.781   2.292  0.00  0.00    +0.040 A 
ATOM     28  C   UNL     1       5.349  -2.966   2.285  0.00  0.00    +0.124 A 
ATOM     29  C   UNL     1       6.194  -1.871   2.322  0.00  0.00    +0.040 A 
ATOM     30  C   UNL     1       5.668  -0.594   2.367  0.00  0.00    +0.031 A 
ATOM     31  F   UNL     1       5.862  -4.215   2.241  0.00  0.00    -0.205 F 
ENDBRANCH  22  25
ENDBRANCH  20  22
ENDBRANCH   1  20
TORSDOF 6
