REMARK  Name = ZINC66106447
REMARK  6 active torsions:
REMARK  status: ('A' for Active; 'I' for Inactive)
REMARK    1  A    between atoms: C_1  and  C_2
REMARK    2  A    between atoms: C_7  and  C_9
REMARK    3  A    between atoms: N_11  and  C_12
REMARK    4  A    between atoms: N_13  and  C_14
REMARK    5  A    between atoms: C_14  and  C_16
REMARK    6  A    between atoms: C_14  and  C_17
REMARK                            x       y       z     vdW  Elec       q    Type
REMARK                         _______ _______ _______ _____ _____    ______ ____
ROOT
ATOM      1  C   UNL     1      -0.557   1.333  -0.168  0.00  0.00    +0.064 C 
ATOM      2  C   UNL     1      -0.299  -0.149  -0.082  0.00  0.00    +0.060 C 
ATOM      3  N   UNL     1      -0.339  -0.836  -1.157  0.00  0.00    -0.155 NA
ATOM      4  N   UNL     1      -0.128  -2.199  -1.287  0.00  0.00    -0.127 NA
ATOM      5  C   UNL     1      -0.246  -3.052  -0.292  0.00  0.00    +0.177 C 
ATOM      6  S   UNL     1      -0.689  -2.436   1.304  0.00  0.00    -0.070 S 
ATOM      7  C   UNL     1      -0.001  -0.748   1.268  0.00  0.00    +0.185 C 
ATOM      8  N   UNL     1      -0.031  -4.394  -0.491  0.00  0.00    -0.316 N 
ATOM      9  H   UNL     1      -0.121  -5.014   0.250  0.00  0.00    +0.149 HD
ENDROOT
BRANCH   7  10
ATOM     10  C   UNL     1      -0.644   0.085   2.347  0.00  0.00    +0.232 C 
ATOM     11  O   UNL     1      -0.024   0.990   2.865  0.00  0.00    -0.274 OA
ATOM     12  N   UNL     1      -1.907  -0.175   2.736  0.00  0.00    -0.317 N 
ATOM     13  C   UNL     1      -2.532   0.635   3.785  0.00  0.00    +0.128 C 
ATOM     14  H   UNL     1      -2.403  -0.898   2.322  0.00  0.00    +0.148 HD
ENDBRANCH   7  10
BRANCH   8  15
ATOM     15  C   UNL     1       0.335  -4.888  -1.820  0.00  0.00    +0.101 C 
ATOM     16  C   UNL     1       1.857  -4.864  -1.972  0.00  0.00    +0.033 C 
BRANCH  15  17
ATOM     17  C   UNL     1      -0.165  -6.300  -1.986  0.00  0.00    -0.009 A 
ATOM     18  C   UNL     1      -0.321  -7.112  -0.878  0.00  0.00    +0.008 A 
ATOM     19  C   UNL     1      -0.779  -8.408  -1.029  0.00  0.00    +0.020 A 
ATOM     20  C   UNL     1      -1.082  -8.892  -2.289  0.00  0.00    +0.042 A 
ATOM     21  C   UNL     1      -0.927  -8.080  -3.398  0.00  0.00    +0.040 A 
ATOM     22  C   UNL     1      -0.473  -6.782  -3.246  0.00  0.00    +0.047 A 
ATOM     23 CL   UNL     1      -0.284  -5.760  -4.636  0.00  0.00    -0.083 Cl
ATOM     24 CL   UNL     1      -1.657 -10.519  -2.479  0.00  0.00    -0.083 Cl
ENDBRANCH  15  17
ENDBRANCH   8  15
TORSDOF 3
