REMARK  Name = ZINC53704214
REMARK  4 active torsions:
REMARK  status: ('A' for Active; 'I' for Inactive)
REMARK    1  A    between atoms: C_1  and  C_2
REMARK    2  A    between atoms: C_6  and  C_21
REMARK    3  A    between atoms: N_14  and  C_15
REMARK    4  A    between atoms: C_21  and  N_22
REMARK                            x       y       z     vdW  Elec       q    Type
REMARK                         _______ _______ _______ _____ _____    ______ ____
ROOT
ATOM      1  C   UNL     1       0.585   0.856  -0.242  0.00  0.00    +0.028 C 
ATOM      2  C   UNL     1       0.437  -0.624   0.116  0.00  0.00    +0.073 C 
ATOM      3  C   UNL     1       1.310  -1.468  -0.818  0.00  0.00    +0.022 C 
ATOM      4  C   UNL     1       1.266  -2.930  -0.367  0.00  0.00    +0.005 C 
ATOM      5  C   UNL     1       1.825  -3.046   1.053  0.00  0.00    -0.011 C 
ATOM      6  C   UNL     1       0.958  -2.220   2.007  0.00  0.00    +0.110 C 
ATOM      7  N   UNL     1       0.873  -0.842   1.502  0.00  0.00    -0.295 N 
ATOM      8  C   UNL     1       1.202   0.228   2.314  0.00  0.00    +0.242 A 
ATOM      9  N   UNL     1       2.358   0.853   2.354  0.00  0.00    -0.092 NA
ATOM     10  N   UNL     1       2.327   1.802   3.219  0.00  0.00    -0.021 NA
ATOM     11  N   UNL     1       1.171   1.855   3.786  0.00  0.00    -0.038 NA
ATOM     12  N   UNL     1       0.390   0.835   3.215  0.00  0.00    -0.181 N 
ENDROOT
BRANCH  12  13
ATOM     13  C   UNL     1      -0.942   0.513   3.515  0.00  0.00    +0.071 A 
ATOM     14  C   UNL     1      -1.826   0.194   2.494  0.00  0.00    +0.028 A 
ATOM     15  C   UNL     1      -3.137  -0.124   2.792  0.00  0.00    +0.002 A 
ATOM     16  C   UNL     1      -3.569  -0.122   4.105  0.00  0.00    +0.000 A 
ATOM     17  C   UNL     1      -2.690   0.197   5.124  0.00  0.00    +0.002 A 
ATOM     18  C   UNL     1      -1.377   0.509   4.833  0.00  0.00    +0.028 A 
ENDBRANCH  12  13
BRANCH   5  19
ATOM     19  C   UNL     1       1.812  -4.512   1.489  0.00  0.00    -0.081 C 
BRANCH  19  20
ATOM     20  N   UNL     1       2.735  -5.283   0.645  0.00  0.00    +0.378 N 
ATOM     21  H   UNL     1       2.444  -5.216  -0.319  0.00  0.00    -0.090 HD
ATOM     22  H   UNL     1       3.668  -4.912   0.741  0.00  0.00    -0.090 HD
ATOM     23  H   UNL     1       2.726  -6.250   0.933  0.00  0.00    -0.090 HD
ENDBRANCH  19  20
ENDBRANCH   5  19
TORSDOF 3
