REMARK  Name = ZINC39427704
REMARK  6 active torsions:
REMARK  status: ('A' for Active; 'I' for Inactive)
REMARK    1  A    between atoms: C_6  and  S_10
REMARK    2  A    between atoms: S_10  and  C_11
REMARK    3  A    between atoms: C_11  and  C_12
REMARK    4  A    between atoms: C_12  and  C_13
REMARK    5  A    between atoms: N_15  and  C_16
REMARK    6  A    between atoms: C_19  and  C_22
REMARK                            x       y       z     vdW  Elec       q    Type
REMARK                         _______ _______ _______ _____ _____    ______ ____
ROOT
ATOM      1  C   UNL     1      -7.867  -3.915   0.023  0.00  0.00    +0.216 C 
ATOM      2  O   UNL     1      -8.138  -2.733   0.030  0.00  0.00    -0.276 OA
ATOM      3  N   UNL     1      -8.855  -4.833   0.024  0.00  0.00    -0.285 N 
ATOM      4  H   UNL     1      -8.638  -5.778   0.018  0.00  0.00    +0.152 HD
ENDROOT
BRANCH   3   5
ATOM      5  C   UNL     1     -10.255  -4.402   0.033  0.00  0.00    +0.251 C 
ATOM      6  N   UNL     1     -11.160  -5.537   0.306  0.00  0.00    -0.254 NA
ATOM      7  C   UNL     1     -11.822  -6.069  -0.639  0.00  0.00    +0.056 C 
ATOM      8  C   UNL     1     -11.661  -5.507  -2.044  0.00  0.00    +0.128 C 
ATOM      9  S   UNL     1     -10.812  -3.911  -1.657  0.00  0.00    -0.109 S 
BRANCH   7  10
ATOM     10  C   UNL     1     -12.728  -7.205  -0.380  0.00  0.00    -0.003 A 
ATOM     11  C   UNL     1     -13.446  -7.783  -1.429  0.00  0.00    +0.011 A 
ATOM     12  C   UNL     1     -14.290  -8.844  -1.180  0.00  0.00    +0.020 A 
ATOM     13  C   UNL     1     -14.428  -9.336   0.108  0.00  0.00    +0.041 A 
ATOM     14  C   UNL     1     -13.720  -8.767   1.152  0.00  0.00    +0.020 A 
ATOM     15  C   UNL     1     -12.867  -7.709   0.915  0.00  0.00    +0.011 A 
ATOM     16 CL   UNL     1     -15.494 -10.672   0.413  0.00  0.00    -0.084 Cl
ENDBRANCH   7  10
ENDBRANCH   3   5
BRANCH   1  17
ATOM     17  C   UNL     1      -6.427  -4.358   0.013  0.00  0.00    +0.107 C 
BRANCH  17  18
ATOM     18  C   UNL     1      -5.516  -3.129   0.015  0.00  0.00    +0.086 C 
BRANCH  18  19
ATOM     19  S   UNL     1      -3.782  -3.663   0.003  0.00  0.00    -0.087 S 
BRANCH  19  25
ATOM     20  C   UNL     1      -0.017   1.375   0.010  0.00  0.00    +0.002 A 
ATOM     21  C   UNL     1      -1.222   2.062   0.019  0.00  0.00    +0.002 A 
ATOM     22  C   UNL     1      -2.416   1.377   0.021  0.00  0.00    +0.030 A 
ATOM     23  C   UNL     1      -2.414  -0.021   0.014  0.00  0.00    +0.090 A 
ATOM     24  N   UNL     1      -3.401  -0.955   0.014  0.00  0.00    -0.222 NA
ATOM     25  C   UNL     1      -2.872  -2.154   0.005  0.00  0.00    +0.167 A 
ATOM     26  N   UNL     1      -1.509  -2.059  -0.001  0.00  0.00    -0.333 N 
ATOM     27  C   UNL     1      -1.191  -0.711   0.004  0.00  0.00    +0.067 A 
ATOM     28  C   UNL     1       0.002  -0.004   0.002  0.00  0.00    +0.028 A 
ATOM     29  H   UNL     1      -0.880  -2.798  -0.009  0.00  0.00    +0.168 HD
ENDBRANCH  19  25
ENDBRANCH  18  19
ENDBRANCH  17  18
ENDBRANCH   1  17
TORSDOF 6
