REMARK  Name = ZINC67268590
REMARK  4 active torsions:
REMARK  status: ('A' for Active; 'I' for Inactive)
REMARK    1  A    between atoms: N_3  and  C_23
REMARK    2  A    between atoms: C_5  and  C_7
REMARK    3  A    between atoms: C_7  and  N_8
REMARK    4  A    between atoms: C_9  and  C_11
REMARK                            x       y       z     vdW  Elec       q    Type
REMARK                         _______ _______ _______ _____ _____    ______ ____
ROOT
ATOM      1  N   UNL     1      -2.123  -0.210  -1.192  0.00  0.00    -0.315 N 
ATOM      2  C   UNL     1      -2.942  -0.584  -2.195  0.00  0.00    +0.216 C 
ATOM      3  O   UNL     1      -2.498  -1.191  -3.146  0.00  0.00    -0.276 OA
ATOM      4  H   UNL     1      -2.478   0.276  -0.431  0.00  0.00    +0.149 HD
ENDROOT
BRANCH   2   5
ATOM      5  C   UNL     1      -4.409  -0.246  -2.135  0.00  0.00    +0.075 C 
ATOM      6  C   UNL     1      -5.029  -0.887  -0.891  0.00  0.00    +0.015 C 
ATOM      7  C   UNL     1      -6.517  -0.534  -0.825  0.00  0.00    +0.036 C 
ATOM      8  C   UNL     1      -7.219  -1.037  -2.081  0.00  0.00    +0.112 C 
ATOM      9  C   UNL     1      -6.595  -0.426  -3.331  0.00  0.00    +0.036 C 
ATOM     10  C   UNL     1      -5.107  -0.780  -3.387  0.00  0.00    +0.015 C 
ATOM     11  C   UNL     1      -7.164  -2.546  -2.148  0.00  0.00    +0.244 C 
ATOM     12  O   UNL     1      -6.174  -3.242  -2.208  0.00  0.00    -0.273 OA
ATOM     13  N   UNL     1      -8.450  -2.955  -2.125  0.00  0.00    -0.238 N 
ATOM     14  C   UNL     1      -9.295  -1.919  -2.054  0.00  0.00    +0.307 C 
ATOM     15  O   UNL     1     -10.505  -2.035  -2.022  0.00  0.00    -0.252 OA
ATOM     16  N   UNL     1      -8.655  -0.735  -2.023  0.00  0.00    -0.285 N 
ATOM     17  H   UNL     1      -8.727  -3.884  -2.157  0.00  0.00    +0.159 HD
ATOM     18  H   UNL     1      -9.062   0.144  -1.973  0.00  0.00    +0.151 HD
ENDBRANCH   2   5
BRANCH   1  19
ATOM     19  C   UNL     1      -0.696  -0.538  -1.250  0.00  0.00    +0.105 C 
BRANCH  19  24
ATOM     20  C   UNL     1      -0.019   1.538   0.011  0.00  0.00    -0.015 C 
ATOM     21  C   UNL     1       1.466   1.960  -0.001  0.00  0.00    -0.078 C 
ATOM     22  N   UNL     1       2.191   0.794   0.567  0.00  0.00    +0.382 N 
ATOM     23  C   UNL     1       1.498  -0.385  -0.014  0.00  0.00    -0.074 C 
ATOM     24  C   UNL     1       0.002  -0.004   0.002  0.00  0.00    -0.012 C 
ATOM     25  H   UNL     1       2.115   0.787   1.573  0.00  0.00    -0.081 HD
BRANCH  22  26
ATOM     26  C   UNL     1       3.601   0.815   0.156  0.00  0.00    -0.069 C 
ATOM     27  C   UNL     1       4.658   0.648   1.249  0.00  0.00    -0.017 C 
ATOM     28  C   UNL     1       4.446   2.014   0.593  0.00  0.00    -0.017 C 
ENDBRANCH  22  26
ENDBRANCH  19  24
ENDBRANCH   1  19
TORSDOF 4
