REMARK  Name = ZINC07365116
REMARK  7 active torsions:
REMARK  status: ('A' for Active; 'I' for Inactive)
REMARK    1  A    between atoms: C_1  and  C_2
REMARK    2  A    between atoms: C_2  and  C_4
REMARK    3  A    between atoms: C_2  and  S_12
REMARK    4  A    between atoms: S_12  and  C_13
REMARK    5  A    between atoms: C_16  and  C_24
REMARK    6  A    between atoms: N_17  and  C_18
REMARK    7  A    between atoms: C_18  and  C_19
REMARK                            x       y       z     vdW  Elec       q    Type
REMARK                         _______ _______ _______ _____ _____    ______ ____
ROOT
ATOM      1  C   UNL     1       1.891   5.615   0.211  0.00  0.00    +0.193 A 
ATOM      2  N   UNL     1       0.650   5.567  -0.220  0.00  0.00    -0.122 NA
ATOM      3  N   UNL     1       0.270   4.345  -0.336  0.00  0.00    -0.128 NA
ATOM      4  C   UNL     1       1.240   3.538   0.023  0.00  0.00    +0.167 A 
ATOM      5  N   UNL     1       2.310   4.326   0.381  0.00  0.00    -0.295 N 
ENDROOT
BRANCH   4   6
ATOM      6  C   UNL     1       1.195   2.060   0.035  0.00  0.00    +0.037 A 
ATOM      7  C   UNL     1       2.379   1.312   0.040  0.00  0.00    +0.014 A 
ATOM      8  C   UNL     1       2.282  -0.068   0.051  0.00  0.00    +0.020 A 
ATOM      9  C   UNL     1       1.031  -0.659   0.057  0.00  0.00    +0.111 A 
ATOM     10  N   UNL     1      -0.067   0.071   0.051  0.00  0.00    -0.263 NA
ATOM     11  C   UNL     1      -0.027   1.387   0.040  0.00  0.00    +0.122 A 
ENDBRANCH   4   6
BRANCH   1  12
ATOM     12  S   UNL     1       2.836   7.070   0.515  0.00  0.00    -0.073 S 
BRANCH  12  14
ATOM     13  C   UNL     1       0.443   8.277   1.043  0.00  0.00    +0.029 C 
ATOM     14  C   UNL     1       1.621   8.334   0.068  0.00  0.00    +0.137 C 
BRANCH  14  15
ATOM     15  C   UNL     1       2.263   9.695   0.136  0.00  0.00    +0.236 C 
ATOM     16  O   UNL     1       3.276   9.856   0.782  0.00  0.00    -0.274 OA
ATOM     17  N   UNL     1       1.712  10.735  -0.522  0.00  0.00    -0.224 N 
ATOM     18  C   UNL     1       2.236  12.108  -0.537  0.00  0.00    +0.136 C 
ATOM     19  C   UNL     1       1.237  12.875  -1.425  0.00  0.00    +0.125 C 
ATOM     20  N   UNL     1       0.256  11.852  -1.816  0.00  0.00    -0.297 N 
ATOM     21  C   UNL     1       0.602  10.679  -1.270  0.00  0.00    +0.309 C 
ATOM     22  O   UNL     1      -0.036   9.658  -1.434  0.00  0.00    -0.252 OA
ATOM     23  H   UNL     1      -0.517  12.002  -2.383  0.00  0.00    +0.150 HD
ENDBRANCH  14  15
ENDBRANCH  12  14
ENDBRANCH   1  12
BRANCH   5  24
ATOM     24  C   UNL     1       3.624   3.877   0.847  0.00  0.00    +0.200 C 
BRANCH  24  25
ATOM     25  C   UNL     1       4.582   3.835  -0.316  0.00  0.00    +0.125 A 
ATOM     26  C   UNL     1       5.362   4.850  -0.729  0.00  0.00    +0.046 A 
ATOM     27  C   UNL     1       6.096   4.376  -1.841  0.00  0.00    +0.041 A 
ATOM     28  C   UNL     1       5.714   3.102  -2.045  0.00  0.00    +0.195 A 
ATOM     29  O   UNL     1       4.797   2.780  -1.119  0.00  0.00    -0.466 OA
ENDBRANCH  24  25
ENDBRANCH   5  24
TORSDOF 6
