REMARK  Name = ZINC05385689
REMARK  12 active torsions:
REMARK  status: ('A' for Active; 'I' for Inactive)
REMARK    1  A    between atoms: C_1  and  C_2
REMARK    2  A    between atoms: N_4  and  C_5
REMARK    3  A    between atoms: C_7  and  O_32
REMARK    4  A    between atoms: C_9  and  C_27
REMARK    5  A    between atoms: C_12  and  N_14
REMARK    6  A    between atoms: N_21  and  C_26
REMARK    7  A    between atoms: N_24  and  C_25
REMARK    8  A    between atoms: C_27  and  O_28
REMARK    9  A    between atoms: O_28  and  C_29
REMARK   10  A    between atoms: C_29  and  C_31
REMARK   11  A    between atoms: O_32  and  C_33
REMARK   12  A    between atoms: C_33  and  C_35
REMARK                            x       y       z     vdW  Elec       q    Type
REMARK                         _______ _______ _______ _____ _____    ______ ____
ROOT
ATOM      1  C   UNL     1      -0.958   1.613   3.610  0.00  0.00    +0.060 C 
ATOM      2  C   UNL     1      -2.082   2.272   3.474  0.00  0.00    +0.043 C 
ATOM      3  C   UNL     1      -2.920   2.687   4.651  0.00  0.00    +0.233 C 
ATOM      4  C   UNL     1      -2.080   2.615   5.929  0.00  0.00    +0.203 C 
ATOM      5  O   UNL     1      -1.406   1.351   5.957  0.00  0.00    -0.340 OA
ATOM      6  C   UNL     1      -0.398   1.232   4.951  0.00  0.00    +0.267 C 
ENDROOT
BRANCH   6   7
ATOM      7  N   UNL     1       0.723   2.117   5.279  0.00  0.00    -0.293 N 
ATOM      8  C   UNL     1       0.878   3.395   4.881  0.00  0.00    +0.204 A 
ATOM      9  N   UNL     1       1.994   3.877   5.366  0.00  0.00    -0.218 NA
ATOM     10  C   UNL     1       2.615   2.940   6.087  0.00  0.00    +0.168 A 
ATOM     11  C   UNL     1       1.823   1.799   6.050  0.00  0.00    +0.154 A 
ATOM     12  C   UNL     1       2.249   0.643   6.739  0.00  0.00    +0.282 A 
ATOM     13  O   UNL     1       1.572  -0.370   6.720  0.00  0.00    -0.265 OA
ATOM     14  N   UNL     1       3.415   0.673   7.417  0.00  0.00    -0.262 N 
ATOM     15  C   UNL     1       4.171   1.783   7.445  0.00  0.00    +0.333 A 
ATOM     16  O   UNL     1       5.216   1.774   8.067  0.00  0.00    -0.246 OA
ATOM     17  N   UNL     1       3.801   2.907   6.801  0.00  0.00    -0.280 N 
ATOM     18  C   UNL     1       4.655   4.096   6.857  0.00  0.00    +0.155 C 
ATOM     19  C   UNL     1       3.863  -0.524   8.134  0.00  0.00    +0.157 C 
ENDBRANCH   6   7
BRANCH   1  23
ATOM     20  C   UNL     1       1.558   0.012   1.325  0.00  0.00    +0.109 C 
ATOM     21  C   UNL     1       0.865   0.507   2.569  0.00  0.00    +0.214 C 
ATOM     22  O   UNL     1       1.310   0.230   3.662  0.00  0.00    -0.276 OA
ATOM     23  N   UNL     1      -0.250   1.257   2.465  0.00  0.00    -0.286 N 
ATOM     24  H   UNL     1      -0.560   1.548   1.593  0.00  0.00    +0.155 HD
ENDBRANCH   1  23
BRANCH   4  25
ATOM     25  C   UNL     1      -2.990   2.740   7.153  0.00  0.00    +0.267 C 
BRANCH  25  26
ATOM     26  O   UNL     1      -2.180   2.766   8.357  0.00  0.00    -0.462 OA
BRANCH  26  27
ATOM     27  C   UNL     1      -2.830   2.873   9.527  0.00  0.00    +0.304 C 
ATOM     28  O   UNL     1      -4.036   2.944   9.543  0.00  0.00    -0.251 OA
ATOM     29  C   UNL     1      -2.056   2.906  10.819  0.00  0.00    +0.136 C 
ENDBRANCH  26  27
ENDBRANCH  25  26
ENDBRANCH   4  25
BRANCH   3  30
ATOM     30  O   UNL     1      -3.385   4.049   4.454  0.00  0.00    -0.455 OA
BRANCH  30  31
ATOM     31  C   UNL     1      -4.558   4.207   3.821  0.00  0.00    +0.305 C 
ATOM     32  O   UNL     1      -5.176   3.240   3.444  0.00  0.00    -0.251 OA
ATOM     33  C   UNL     1      -5.103   5.591   3.580  0.00  0.00    +0.136 C 
ENDBRANCH  30  31
ENDBRANCH   3  30
TORSDOF 7
