REMARK  Name = ZINC40859042
REMARK  10 active torsions:
REMARK  status: ('A' for Active; 'I' for Inactive)
REMARK    1  A    between atoms: C_1  and  C_2
REMARK    2  A    between atoms: C_2  and  C_4
REMARK    3  A    between atoms: C_8  and  C_10
REMARK    4  A    between atoms: C_10  and  C_11
REMARK    5  A    between atoms: C_10  and  C_12
REMARK    6  A    between atoms: C_10  and  N_13
REMARK    7  A    between atoms: N_16  and  N_17
REMARK    8  A    between atoms: C_18  and  C_19
REMARK    9  A    between atoms: C_22  and  O_26
REMARK   10  A    between atoms: O_26  and  C_27
REMARK                            x       y       z     vdW  Elec       q    Type
REMARK                         _______ _______ _______ _____ _____    ______ ____
ROOT
ATOM      1  N   UNL     1      -2.681  -2.586   3.578  0.00  0.00    -0.289 N 
ATOM      2  C   UNL     1      -3.249  -2.780   4.784  0.00  0.00    +0.320 C 
ATOM      3  O   UNL     1      -4.235  -3.486   4.885  0.00  0.00    -0.251 OA
ATOM      4  N   UNL     1      -2.725  -2.194   5.879  0.00  0.00    -0.191 N 
ATOM      5  H   UNL     1      -1.895  -2.023   3.497  0.00  0.00    +0.151 HD
ATOM      6  H   UNL     1      -3.135  -2.334   6.747  0.00  0.00    +0.179 HD
ENDROOT
BRANCH   1   7
ATOM      7  C   UNL     1      -3.250  -3.224   2.388  0.00  0.00    +0.056 C 
ATOM      8  C   UNL     1      -4.693  -2.752   2.197  0.00  0.00    +0.036 C 
ATOM      9  C   UNL     1      -3.230  -4.743   2.565  0.00  0.00    +0.036 C 
BRANCH   7  14
ATOM     10  C   UNL     1      -0.333  -2.236   0.190  0.00  0.00    -0.022 A 
ATOM     11  C   UNL     1      -0.949  -2.158  -1.060  0.00  0.00    +0.008 A 
ATOM     12  C   UNL     1      -2.297  -2.425  -1.180  0.00  0.00    +0.001 A 
ATOM     13  C   UNL     1      -3.038  -2.769  -0.064  0.00  0.00    +0.006 A 
ATOM     14  C   UNL     1      -2.434  -2.848   1.178  0.00  0.00    -0.024 A 
ATOM     15  C   UNL     1      -1.085  -2.589   1.310  0.00  0.00    +0.014 A 
BRANCH  10  17
ATOM     16  C   UNL     1       1.635  -0.566   0.048  0.00  0.00    +0.044 C 
ATOM     17  C   UNL     1       1.111  -1.951   0.325  0.00  0.00    -0.050 C 
ATOM     18  C   UNL     1       1.945  -2.915   0.689  0.00  0.00    +0.012 C 
ENDBRANCH  10  17
ENDBRANCH   7  14
ENDBRANCH   1   7
BRANCH   4  19
ATOM     19  N   UNL     1      -1.590  -1.381   5.762  0.00  0.00    -0.186 NA
ATOM     20  C   UNL     1      -1.016  -0.912   6.827  0.00  0.00    +0.138 C 
BRANCH  20  21
ATOM     21  C   UNL     1      -1.224  -1.573   8.129  0.00  0.00    -0.004 A 
ATOM     22  C   UNL     1      -1.794  -2.847   8.184  0.00  0.00    +0.013 A 
ATOM     23  C   UNL     1      -1.986  -3.462   9.403  0.00  0.00    +0.047 A 
ATOM     24  C   UNL     1      -1.615  -2.816  10.575  0.00  0.00    +0.134 A 
ATOM     25  C   UNL     1      -1.049  -1.548  10.525  0.00  0.00    +0.060 A 
ATOM     26  C   UNL     1      -0.847  -0.928   9.310  0.00  0.00    +0.028 A 
ATOM     27 BR   UNL     1      -0.547  -0.674  12.125  0.00  0.00    -0.046 Br
BRANCH  24  28
ATOM     28  O   UNL     1      -1.807  -3.425  11.774  0.00  0.00    -0.494 OA
ATOM     29  C   UNL     1      -2.394  -4.728  11.753  0.00  0.00    +0.277 C 
ENDBRANCH  24  28
ENDBRANCH  20  21
ENDBRANCH   4  19
TORSDOF 6
