REMARK  Name = ZINC22277102
REMARK  6 active torsions:
REMARK  status: ('A' for Active; 'I' for Inactive)
REMARK    1  A    between atoms: C_7  and  C_11
REMARK    2  A    between atoms: C_14  and  S_23
REMARK    3  A    between atoms: N_15  and  C_16
REMARK    4  A    between atoms: C_16  and  C_17
REMARK    5  A    between atoms: S_23  and  C_24
REMARK    6  A    between atoms: C_24  and  C_25
REMARK                            x       y       z     vdW  Elec       q    Type
REMARK                         _______ _______ _______ _____ _____    ______ ____
ROOT
ATOM      1  C   UNL     1       6.481   6.090  -0.234  0.00  0.00    +0.167 A 
ATOM      2  N   UNL     1       6.847   4.836  -0.102  0.00  0.00    -0.128 NA
ATOM      3  N   UNL     1       5.818   4.099   0.121  0.00  0.00    -0.122 NA
ATOM      4  C   UNL     1       4.732   4.836   0.146  0.00  0.00    +0.192 A 
ATOM      5  N   UNL     1       5.114   6.129  -0.085  0.00  0.00    -0.300 N 
ENDROOT
BRANCH   1  12
ATOM      6  C   UNL     1      10.526   7.499   1.643  0.00  0.00    +0.001 A 
ATOM      7  C   UNL     1      11.006   8.665   1.063  0.00  0.00    +0.002 A 
ATOM      8  C   UNL     1      10.314   9.278   0.042  0.00  0.00    +0.026 A 
ATOM      9  C   UNL     1       9.114   8.732  -0.405  0.00  0.00    +0.047 A 
ATOM     10  C   UNL     1       8.632   7.554   0.189  0.00  0.00    +0.010 A 
ATOM     11  C   UNL     1       9.352   6.944   1.214  0.00  0.00    +0.011 A 
ATOM     12  C   UNL     1       7.368   7.240  -0.499  0.00  0.00    +0.044 A 
ATOM     13  C   UNL     1       7.174   8.219  -1.421  0.00  0.00    +0.095 A 
ATOM     14  N   UNL     1       8.207   9.109  -1.372  0.00  0.00    -0.360 N 
ATOM     15  H   UNL     1       8.383  10.018  -1.967  0.00  0.00    +0.165 HD
ENDBRANCH   1  12
BRANCH   5  16
ATOM     16  C   UNL     1       4.248   7.309  -0.155  0.00  0.00    +0.157 C 
BRANCH  16  17
ATOM     17  C   UNL     1       4.005   7.848   1.256  0.00  0.00    +0.138 C 
ATOM     18  C   UNL     1       3.002   9.021   1.202  0.00  0.00    +0.035 C 
ATOM     19  C   UNL     1       3.591  10.006   2.249  0.00  0.00    +0.031 C 
ATOM     20  C   UNL     1       5.110   9.758   2.065  0.00  0.00    +0.160 C 
ATOM     21  O   UNL     1       5.231   8.351   1.801  0.00  0.00    -0.375 OA
ENDBRANCH  16  17
ENDBRANCH   5  16
BRANCH   4  22
ATOM     22  S   UNL     1       3.087   4.264   0.419  0.00  0.00    -0.078 S 
BRANCH  22  23
ATOM     23  C   UNL     1       3.401   2.494   0.629  0.00  0.00    +0.151 C 
BRANCH  23  24
ATOM     24  C   UNL     1       2.098   1.780   0.881  0.00  0.00    +0.121 A 
ATOM     25  N   UNL     1       2.126   0.434   1.066  0.00  0.00    -0.310 N 
ATOM     26  H   UNL     1       3.084  -0.106   1.030  0.00  0.00    +0.170 HD
ATOM     27  C   UNL     1       0.983  -0.254   1.295  0.00  0.00    +0.259 A 
ATOM     28  O   UNL     1       0.994  -1.460   1.461  0.00  0.00    -0.267 OA
ATOM     29  C   UNL     1      -0.272   0.512   1.334  0.00  0.00    +0.066 A 
ATOM     30  C   UNL     1      -1.502  -0.101   1.563  0.00  0.00    +0.035 A 
ATOM     31  C   UNL     1      -2.647   0.665   1.591  0.00  0.00    +0.042 A 
ATOM     32  C   UNL     1      -2.583   2.039   1.392  0.00  0.00    +0.022 A 
ATOM     33  C   UNL     1      -1.377   2.663   1.169  0.00  0.00    +0.030 A 
ATOM     34  C   UNL     1      -0.203   1.908   1.132  0.00  0.00    +0.078 A 
ATOM     35  N   UNL     1       1.006   2.482   0.911  0.00  0.00    -0.233 NA
ATOM     36 CL   UNL     1      -4.183  -0.092   1.875  0.00  0.00    -0.084 Cl
ENDBRANCH  23  24
ENDBRANCH  22  23
ENDBRANCH   4  22
TORSDOF 6
