REMARK  Name = ZINC04794172
REMARK  6 active torsions:
REMARK  status: ('A' for Active; 'I' for Inactive)
REMARK    1  A    between atoms: C_1  and  C_2
REMARK    2  A    between atoms: N_13  and  C_14
REMARK    3  A    between atoms: C_17  and  S_20
REMARK    4  A    between atoms: S_20  and  N_23
REMARK    5  A    between atoms: C_24  and  C_26
REMARK    6  A    between atoms: C_24  and  C_27
REMARK                            x       y       z     vdW  Elec       q    Type
REMARK                         _______ _______ _______ _____ _____    ______ ____
ROOT
ATOM      1  C   UNL     1      -2.503   0.957   0.069  0.00  0.00    +0.044 C 
ATOM      2  C   UNL     1      -1.216   1.742   0.050  0.00  0.00    -0.050 A 
ATOM      3  C   UNL     1      -0.003   1.078   0.046  0.00  0.00    +0.005 A 
ATOM      4  C   UNL     1       1.189   1.780   0.032  0.00  0.00    +0.024 A 
ATOM      5  C   UNL     1       1.167   3.167   0.026  0.00  0.00    +0.036 A 
ATOM      6  C   UNL     1      -0.059   3.832   0.019  0.00  0.00    +0.007 A 
ATOM      7  C   UNL     1      -1.252   3.126   0.042  0.00  0.00    +0.013 A 
ATOM      8  C   UNL     1      -0.073   5.345  -0.036  0.00  0.00    +0.029 A 
ATOM      9  C   UNL     1       1.122   5.952  -0.320  0.00  0.00    +0.030 A 
ATOM     10  S   UNL     1       0.980   7.681  -0.329  0.00  0.00    -0.052 S 
ATOM     11  S   UNL     1      -1.063   7.766   0.113  0.00  0.00    -0.032 S 
ATOM     12  C   UNL     1      -1.314   5.999   0.210  0.00  0.00    +0.117 A 
ATOM     13  N   UNL     1      -2.469   5.395   0.471  0.00  0.00    -0.240 NA
ATOM     14  C   UNL     1       2.407   5.210  -0.612  0.00  0.00    +0.059 C 
ATOM     15  N   UNL     1       2.358   3.899   0.049  0.00  0.00    -0.334 N 
ATOM     16  C   UNL     1       2.557   5.017  -2.122  0.00  0.00    +0.037 C 
ATOM     17  C   UNL     1       3.595   6.011  -0.074  0.00  0.00    +0.037 C 
ATOM     18  H   UNL     1       3.143   3.545   0.496  0.00  0.00    +0.147 HD
ENDROOT
BRANCH  13  19
ATOM     19  C   UNL     1      -3.567   6.135   0.797  0.00  0.00    +0.065 A 
ATOM     20  C   UNL     1      -3.784   6.525   2.123  0.00  0.00    +0.029 A 
ATOM     21  C   UNL     1      -4.894   7.277   2.443  0.00  0.00    +0.030 A 
ATOM     22  C   UNL     1      -5.799   7.637   1.460  0.00  0.00    +0.105 A 
ATOM     23  C   UNL     1      -5.594   7.251   0.146  0.00  0.00    +0.030 A 
ATOM     24  C   UNL     1      -4.486   6.503  -0.192  0.00  0.00    +0.029 A 
BRANCH  22  25
ATOM     25  S   UNL     1      -7.218   8.591   1.881  0.00  0.00    +0.056 S 
ATOM     26  O   UNL     1      -6.899   9.288   3.078  0.00  0.00    -0.153 OA
ATOM     27  O   UNL     1      -7.625   9.261   0.695  0.00  0.00    -0.153 OA
BRANCH  25  28
ATOM     28  N   UNL     1      -8.429   7.527   2.261  0.00  0.00    -0.204 NA
ATOM     29  H   UNL     1      -9.110   7.777   2.905  0.00  0.00    +0.144 HD
ATOM     30  H   UNL     1      -8.457   6.654   1.841  0.00  0.00    +0.144 HD
ENDBRANCH  25  28
ENDBRANCH  22  25
ENDBRANCH  13  19
TORSDOF 3
