REMARK  Name = ZINC04178907
REMARK  5 active torsions:
REMARK  status: ('A' for Active; 'I' for Inactive)
REMARK    1  A    between atoms: C_5  and  C_7
REMARK    2  A    between atoms: C_7  and  C_9
REMARK    3  A    between atoms: C_7  and  N_20
REMARK    4  A    between atoms: C_18  and  O_19
REMARK    5  A    between atoms: N_20  and  C_21
REMARK                            x       y       z     vdW  Elec       q    Type
REMARK                         _______ _______ _______ _____ _____    ______ ____
ROOT
ATOM      1  C   UNL     1      -2.558   3.860   0.045  0.00  0.00    +0.137 C 
ENDROOT
BRANCH   1   2
ATOM      2  C   UNL     1      -2.756   4.240  -1.399  0.00  0.00    +0.021 A 
ATOM      3  C   UNL     1      -2.025   3.585  -2.387  0.00  0.00    +0.010 A 
ATOM      4  C   UNL     1      -2.180   3.905  -3.701  0.00  0.00    +0.010 A 
ATOM      5  C   UNL     1      -3.090   4.909  -4.071  0.00  0.00    +0.004 A 
ATOM      6  C   UNL     1      -3.278   5.268  -5.419  0.00  0.00    +0.011 A 
ATOM      7  C   UNL     1      -4.179   6.253  -5.704  0.00  0.00    +0.020 A 
ATOM      8  C   UNL     1      -4.881   6.873  -4.672  0.00  0.00    +0.111 A 
ATOM      9  N   UNL     1      -4.703   6.537  -3.418  0.00  0.00    -0.251 NA
ATOM     10  C   UNL     1      -3.837   5.580  -3.072  0.00  0.00    +0.113 A 
ATOM     11  C   UNL     1      -3.653   5.219  -1.720  0.00  0.00    +0.148 A 
BRANCH  11  12
ATOM     12  O   UNL     1      -4.361   5.843  -0.744  0.00  0.00    -0.504 OA
ATOM     13  H   UNL     1      -3.897   6.588  -0.337  0.00  0.00    +0.292 HD
ENDBRANCH  11  12
ENDBRANCH   1   2
BRANCH   1  18
ATOM     14  C   UNL     1      -0.127   0.984   0.314  0.00  0.00    +0.000 A 
ATOM     15  C   UNL     1       1.076   1.651   0.453  0.00  0.00    +0.001 A 
ATOM     16  C   UNL     1       1.104   3.032   0.461  0.00  0.00    +0.020 A 
ATOM     17  C   UNL     1      -0.072   3.748   0.329  0.00  0.00    +0.046 A 
ATOM     18  C   UNL     1      -1.276   3.081   0.189  0.00  0.00    -0.004 A 
ATOM     19  C   UNL     1      -1.302   1.699   0.177  0.00  0.00    +0.007 A 
ATOM     20 CL   UNL     1      -0.038   5.484   0.338  0.00  0.00    -0.083 Cl
ENDBRANCH   1  18
BRANCH   1  21
ATOM     21  N   UNL     1      -3.683   3.035   0.492  0.00  0.00    -0.320 N 
ATOM     22  H   UNL     1      -4.208   2.540  -0.156  0.00  0.00    +0.148 HD
BRANCH  21  23
ATOM     23  C   UNL     1      -3.999   2.963   1.844  0.00  0.00    +0.097 A 
ATOM     24  C   UNL     1      -3.242   3.677   2.768  0.00  0.00    +0.041 A 
ATOM     25  C   UNL     1      -3.567   3.596   4.109  0.00  0.00    +0.005 A 
ATOM     26  C   UNL     1      -4.643   2.802   4.484  0.00  0.00    +0.018 A 
ATOM     27  C   UNL     1      -5.351   2.121   3.514  0.00  0.00    +0.084 A 
ATOM     28  N   UNL     1      -5.063   2.181   2.186  0.00  0.00    -0.350 N 
ATOM     29  H   UNL     1      -5.612   1.670   1.485  0.00  0.00    +0.166 HD
ENDBRANCH  21  23
ENDBRANCH   1  21
TORSDOF 5
