REMARK  Name = ZINC41286920
REMARK  5 active torsions:
REMARK  status: ('A' for Active; 'I' for Inactive)
REMARK    1  A    between atoms: C_1  and  O_2
REMARK    2  A    between atoms: O_2  and  C_3
REMARK    3  A    between atoms: C_6  and  C_9
REMARK    4  A    between atoms: C_11  and  O_12
REMARK    5  A    between atoms: C_21  and  C_23
REMARK                            x       y       z     vdW  Elec       q    Type
REMARK                         _______ _______ _______ _____ _____    ______ ____
ROOT
ATOM      1  C   UNL     1       2.699  -1.990  -4.154  0.00  0.00    +0.139 A 
ATOM      2  C   UNL     1       3.013  -3.318  -3.936  0.00  0.00    +0.093 A 
ATOM      3  C   UNL     1       3.762  -4.017  -4.881  0.00  0.00    +0.131 A 
ATOM      4  C   UNL     1       4.181  -3.331  -6.049  0.00  0.00    +0.059 A 
ATOM      5  C   UNL     1       4.937  -3.986  -7.034  0.00  0.00    +0.017 A 
ATOM      6  C   UNL     1       5.331  -3.313  -8.148  0.00  0.00    +0.024 A 
ATOM      7  C   UNL     1       4.984  -1.961  -8.320  0.00  0.00    +0.037 A 
ATOM      8  C   UNL     1       4.233  -1.297  -7.348  0.00  0.00    +0.070 A 
ATOM      9  C   UNL     1       3.828  -1.974  -6.212  0.00  0.00    +0.141 A 
ATOM     10  O   UNL     1       3.096  -1.350  -5.266  0.00  0.00    -0.455 OA
ATOM     11  N   UNL     1       5.383  -1.297  -9.437  0.00  0.00    -0.281 N 
ATOM     12  C   UNL     1       4.811  -0.146  -9.765  0.00  0.00    +0.248 C 
ATOM     13  O   UNL     1       3.843   0.255  -9.137  0.00  0.00    -0.270 OA
ATOM     14  H   UNL     1       6.086  -1.665  -9.995  0.00  0.00    +0.155 HD
ENDROOT
BRANCH  12  15
ATOM     15  C   UNL     1       5.346   0.653 -10.892  0.00  0.00    +0.037 A 
ATOM     16  C   UNL     1       6.447   0.194 -11.614  0.00  0.00    +0.014 A 
ATOM     17  C   UNL     1       6.941   0.942 -12.664  0.00  0.00    +0.016 A 
ATOM     18  C   UNL     1       6.345   2.145 -13.000  0.00  0.00    +0.018 A 
ATOM     19  C   UNL     1       5.251   2.606 -12.286  0.00  0.00    +0.016 A 
ATOM     20  C   UNL     1       4.746   1.863 -11.239  0.00  0.00    +0.014 A 
ATOM     21 BR   UNL     1       7.027   3.164 -14.439  0.00  0.00    -0.050 Br
ENDBRANCH  12  15
BRANCH   1  25
ATOM     22  C   UNL     1       0.416   0.107  -1.256  0.00  0.00    +0.120 A 
ATOM     23  C   UNL     1       0.834   0.757  -2.412  0.00  0.00    +0.046 A 
ATOM     24  C   UNL     1       1.575   0.081  -3.354  0.00  0.00    +0.015 A 
ATOM     25  C   UNL     1       1.907  -1.262  -3.148  0.00  0.00    +0.018 A 
ATOM     26  C   UNL     1       1.484  -1.912  -1.984  0.00  0.00    +0.015 A 
ATOM     27  C   UNL     1       0.748  -1.226  -1.044  0.00  0.00    +0.046 A 
BRANCH  22  29
ATOM     28  C   UNL     1      -0.621   2.145  -0.610  0.00  0.00    +0.277 C 
ATOM     29  O   UNL     1      -0.315   0.778  -0.329  0.00  0.00    -0.495 OA
ENDBRANCH  22  29
ENDBRANCH   1  25
BRANCH   3  30
ATOM     30  O   UNL     1       4.080  -5.316  -4.689  0.00  0.00    -0.506 OA
ATOM     31  H   UNL     1       3.744  -5.685  -3.861  0.00  0.00    +0.292 HD
ENDBRANCH   3  30
TORSDOF 4
