REMARK  Name = ZINC39980381
REMARK  11 active torsions:
REMARK  status: ('A' for Active; 'I' for Inactive)
REMARK    1  A    between atoms: C_1  and  C_2
REMARK    2  A    between atoms: C_2  and  C_3
REMARK    3  A    between atoms: C_3  and  C_4
REMARK    4  A    between atoms: C_4  and  O_5
REMARK    5  A    between atoms: O_5  and  C_6
REMARK    6  A    between atoms: C_9  and  N_12
REMARK    7  A    between atoms: N_12  and  C_13
REMARK    8  A    between atoms: N_16  and  S_17
REMARK    9  A    between atoms: S_17  and  C_20
REMARK   10  A    between atoms: C_23  and  N_26
REMARK   11  A    between atoms: C_27  and  C_29
REMARK                            x       y       z     vdW  Elec       q    Type
REMARK                         _______ _______ _______ _____ _____    ______ ____
ROOT
ATOM      1  C   UNL     1       2.766  -8.549   4.300  0.00  0.00    +0.237 C 
ATOM      2  C   UNL     1       1.933  -9.695   4.827  0.00  0.00    +0.192 C 
ATOM      3  N   UNL     1       0.730  -9.487   5.272  0.00  0.00    -0.110 NA
ATOM      4  N   UNL     1       2.455 -10.933   4.827  0.00  0.00    -0.226 NA
ATOM      5  C   UNL     1       3.671 -11.170   4.381  0.00  0.00    +0.089 A 
ATOM      6  C   UNL     1       4.189 -12.489   4.396  0.00  0.00    +0.030 A 
ATOM      7  C   UNL     1       5.436 -12.738   3.940  0.00  0.00    +0.002 A 
ATOM      8  C   UNL     1       6.276 -11.731   3.436  0.00  0.00    +0.002 A 
ATOM      9  C   UNL     1       5.881 -10.441   3.376  0.00  0.00    +0.027 A 
ATOM     10  C   UNL     1       4.536 -10.086   3.853  0.00  0.00    +0.063 A 
ATOM     11  N   UNL     1       4.120  -8.852   3.810  0.00  0.00    -0.359 N 
ATOM     12  H   UNL     1       4.691  -8.149   3.462  0.00  0.00    +0.162 HD
ENDROOT
BRANCH   3  13
ATOM     13  S   UNL     1      -0.172 -10.752   5.846  0.00  0.00    +0.100 S 
ATOM     14  O   UNL     1      -0.434 -11.600   4.736  0.00  0.00    -0.146 OA
ATOM     15  O   UNL     1       0.479 -11.214   7.021  0.00  0.00    -0.146 OA
BRANCH  13  16
ATOM     16  C   UNL     1      -1.726 -10.095   6.355  0.00  0.00    +0.113 A 
ATOM     17  C   UNL     1      -1.893  -9.647   7.653  0.00  0.00    +0.031 A 
ATOM     18  C   UNL     1      -3.110  -9.132   8.055  0.00  0.00    +0.025 A 
ATOM     19  C   UNL     1      -4.165  -9.064   7.155  0.00  0.00    +0.033 A 
ATOM     20  C   UNL     1      -3.994  -9.514   5.853  0.00  0.00    +0.025 A 
ATOM     21  C   UNL     1      -2.773 -10.024   5.455  0.00  0.00    +0.031 A 
BRANCH  19  22
ATOM     22  N   UNL     1      -5.399  -8.543   7.560  0.00  0.00    -0.286 N 
ATOM     23  C   UNL     1      -5.444  -7.486   8.396  0.00  0.00    +0.214 C 
ATOM     24  O   UNL     1      -4.417  -7.040   8.863  0.00  0.00    -0.276 OA
ATOM     25  C   UNL     1      -6.768  -6.860   8.749  0.00  0.00    +0.109 C 
ATOM     26  H   UNL     1      -6.223  -8.942   7.239  0.00  0.00    +0.155 HD
ENDBRANCH  19  22
ENDBRANCH  13  16
ENDBRANCH   3  13
BRANCH   1  27
ATOM     27  N   UNL     1       2.023  -7.923   3.204  0.00  0.00    -0.318 N 
ATOM     28  H   UNL     1       1.679  -8.467   2.478  0.00  0.00    +0.148 HD
BRANCH  27  32
ATOM     29  C   UNL     1       1.389  -3.803   3.200  0.00  0.00    +0.121 A 
ATOM     30  C   UNL     1       2.230  -4.374   4.143  0.00  0.00    +0.047 A 
ATOM     31  C   UNL     1       2.441  -5.739   4.145  0.00  0.00    +0.026 A 
ATOM     32  C   UNL     1       1.810  -6.540   3.203  0.00  0.00    +0.029 A 
ATOM     33  C   UNL     1       0.967  -5.967   2.259  0.00  0.00    +0.026 A 
ATOM     34  C   UNL     1       0.753  -4.603   2.262  0.00  0.00    +0.047 A 
BRANCH  29  35
ATOM     35  O   UNL     1       1.181  -2.459   3.199  0.00  0.00    -0.492 OA
BRANCH  35  36
ATOM     36  C   UNL     1       1.868  -1.696   4.193  0.00  0.00    +0.229 C 
BRANCH  36  37
ATOM     37  C   UNL     1       1.513  -0.216   4.035  0.00  0.00    +0.041 C 
BRANCH  37  39
ATOM     38  C   UNL     1       1.893   2.081   4.942  0.00  0.00    +0.004 C 
ATOM     39  C   UNL     1       2.248   0.601   5.100  0.00  0.00    -0.000 C 
ENDBRANCH  37  39
ENDBRANCH  36  37
ENDBRANCH  35  36
ENDBRANCH  29  35
ENDBRANCH  27  32
ENDBRANCH   1  27
TORSDOF 9
