REMARK  Name = ZINC54641138
REMARK  8 active torsions:
REMARK  status: ('A' for Active; 'I' for Inactive)
REMARK    1  A    between atoms: C_1  and  C_2
REMARK    2  A    between atoms: C_3  and  C_26
REMARK    3  A    between atoms: C_4  and  C_21
REMARK    4  A    between atoms: C_9  and  S_11
REMARK    5  A    between atoms: S_11  and  C_12
REMARK    6  A    between atoms: C_12  and  C_13
REMARK    7  A    between atoms: C_26  and  O_28
REMARK    8  A    between atoms: O_28  and  C_29
REMARK                            x       y       z     vdW  Elec       q    Type
REMARK                         _______ _______ _______ _____ _____    ______ ____
ROOT
ATOM      1  C   UNL     1      -0.018   1.503   0.010  0.00  0.00    +0.061 C 
ATOM      2  C   UNL     1       0.002  -0.004   0.002  0.00  0.00    +0.020 C 
ATOM      3  C   UNL     1      -1.164  -0.669   0.004  0.00  0.00    +0.085 C 
ATOM      4  C   UNL     1      -1.253  -2.171   0.007  0.00  0.00    +0.214 C 
ATOM      5  N   UNL     1       0.062  -2.737  -0.284  0.00  0.00    -0.217 N 
ATOM      6  C   UNL     1       1.208  -2.012  -0.281  0.00  0.00    +0.220 A 
ATOM      7  N   UNL     1       2.196  -2.814  -0.571  0.00  0.00    -0.187 NA
ATOM      8  C   UNL     1       1.724  -4.053  -0.770  0.00  0.00    +0.211 A 
ATOM      9  N   UNL     1       0.418  -4.046  -0.604  0.00  0.00    -0.141 NA
ATOM     10  N   UNL     1       1.212  -0.651  -0.013  0.00  0.00    -0.287 N 
ATOM     11  H   UNL     1       2.040  -0.175   0.160  0.00  0.00    +0.155 HD
ENDROOT
BRANCH   4  12
ATOM     12  C   UNL     1      -1.715  -2.644   1.361  0.00  0.00    +0.134 A 
ATOM     13  C   UNL     1      -2.827  -3.361   1.608  0.00  0.00    +0.047 A 
ATOM     14  C   UNL     1      -2.870  -3.583   3.003  0.00  0.00    +0.041 A 
ATOM     15  C   UNL     1      -1.782  -2.990   3.526  0.00  0.00    +0.195 A 
ATOM     16  O   UNL     1      -1.083  -2.428   2.527  0.00  0.00    -0.465 OA
ENDBRANCH   4  12
BRANCH   3  17
ATOM     17  C   UNL     1      -2.364   0.077   0.003  0.00  0.00    +0.339 C 
ATOM     18  O   UNL     1      -2.325   1.293  -0.001  0.00  0.00    -0.245 OA
BRANCH  17  19
ATOM     19  O   UNL     1      -3.554  -0.560   0.004  0.00  0.00    -0.458 OA
BRANCH  19  20
ATOM     20  C   UNL     1      -4.727   0.257   0.003  0.00  0.00    +0.177 C 
ATOM     21  C   UNL     1      -5.146   0.545  -1.440  0.00  0.00    +0.044 C 
ATOM     22  C   UNL     1      -6.401   1.419  -1.442  0.00  0.00    +0.004 C 
ATOM     23  C   UNL     1      -7.533   0.687  -0.719  0.00  0.00    +0.000 C 
ATOM     24  C   UNL     1      -7.114   0.399   0.725  0.00  0.00    +0.004 C 
ATOM     25  C   UNL     1      -5.859  -0.475   0.726  0.00  0.00    +0.044 C 
ENDBRANCH  19  20
ENDBRANCH  17  19
ENDBRANCH   3  17
BRANCH   8  26
ATOM     26  S   UNL     1       2.694  -5.463  -1.188  0.00  0.00    -0.080 S 
BRANCH  26  27
ATOM     27  C   UNL     1       4.389  -4.821  -1.267  0.00  0.00    +0.115 C 
BRANCH  27  28
ATOM     28  C   UNL     1       5.334  -5.941  -1.621  0.00  0.00    -0.002 A 
ATOM     29  C   UNL     1       5.910  -6.701  -0.620  0.00  0.00    +0.007 A 
ATOM     30  C   UNL     1       6.776  -7.728  -0.944  0.00  0.00    +0.000 A 
ATOM     31  C   UNL     1       7.069  -7.996  -2.269  0.00  0.00    +0.003 A 
ATOM     32  C   UNL     1       6.494  -7.237  -3.270  0.00  0.00    +0.038 A 
ATOM     33  C   UNL     1       5.621  -6.212  -2.947  0.00  0.00    +0.127 A 
ATOM     34  F   UNL     1       5.055  -5.473  -3.926  0.00  0.00    -0.205 F 
ENDBRANCH  27  28
ENDBRANCH  26  27
ENDBRANCH   8  26
TORSDOF 7
