REMARK  Name = ZINC60367997
REMARK  10 active torsions:
REMARK  status: ('A' for Active; 'I' for Inactive)
REMARK    1  A    between atoms: C_1  and  C_2
REMARK    2  A    between atoms: C_2  and  C_3
REMARK    3  A    between atoms: C_2  and  O_4
REMARK    4  A    between atoms: O_4  and  C_5
REMARK    5  A    between atoms: C_5  and  C_7
REMARK    6  A    between atoms: C_7  and  C_8
REMARK    7  A    between atoms: C_10  and  C_13
REMARK    8  A    between atoms: C_13  and  N_14
REMARK    9  A    between atoms: N_14  and  C_15
REMARK   10  A    between atoms: C_15  and  C_21
REMARK                            x       y       z     vdW  Elec       q    Type
REMARK                         _______ _______ _______ _____ _____    ______ ____
ROOT
ATOM      1  N   UNL     1      -4.015  -3.647   5.428  0.00  0.00    +0.389 N 
ATOM      2  H   UNL     1      -4.634  -2.857   5.529  0.00  0.00    -0.084 HD
ATOM      3  H   UNL     1      -3.591  -3.628   4.513  0.00  0.00    -0.084 HD
ENDROOT
BRANCH   1   4
ATOM      4  C   UNL     1      -4.778  -4.892   5.589  0.00  0.00    -0.042 C 
ATOM      5  C   UNL     1      -5.376  -4.946   6.996  0.00  0.00    -0.008 C 
ATOM      6  C   UNL     1      -6.305  -3.748   7.202  0.00  0.00    -0.001 C 
ATOM      7  C   UNL     1      -7.431  -3.792   6.168  0.00  0.00    -0.000 C 
ATOM      8  C   UNL     1      -6.833  -3.738   4.760  0.00  0.00    -0.001 C 
ATOM      9  C   UNL     1      -5.905  -4.936   4.554  0.00  0.00    -0.008 C 
BRANCH   4  10
ATOM     10  C   UNL     1      -3.864  -6.072   5.386  0.00  0.00    -0.058 A 
ATOM     11  C   UNL     1      -4.134  -7.272   6.017  0.00  0.00    +0.004 A 
ATOM     12  C   UNL     1      -3.295  -8.355   5.831  0.00  0.00    +0.020 A 
ATOM     13  C   UNL     1      -2.185  -8.238   5.014  0.00  0.00    +0.041 A 
ATOM     14  C   UNL     1      -1.915  -7.037   4.383  0.00  0.00    +0.020 A 
ATOM     15  C   UNL     1      -2.758  -5.956   4.565  0.00  0.00    +0.004 A 
ATOM     16 CL   UNL     1      -1.131  -9.597   4.781  0.00  0.00    -0.084 Cl
ENDBRANCH   4  10
ENDBRANCH   1   4
BRANCH   1  17
ATOM     17  C   UNL     1      -2.965  -3.581   6.454  0.00  0.00    -0.024 C 
BRANCH  17  20
ATOM     18  C   UNL     1      -0.338  -1.351   5.162  0.00  0.00    +0.089 A 
ATOM     19  N   UNL     1      -1.086  -2.406   5.371  0.00  0.00    -0.250 NA
ATOM     20  C   UNL     1      -2.101  -2.370   6.211  0.00  0.00    +0.032 A 
ATOM     21  C   UNL     1      -2.333  -1.194   6.847  0.00  0.00    +0.068 A 
ATOM     22  S   UNL     1      -1.021  -0.190   6.170  0.00  0.00    -0.080 S 
BRANCH  18  23
ATOM     23  C   UNL     1       0.851  -1.214   4.246  0.00  0.00    +0.183 C 
BRANCH  23  24
ATOM     24  C   UNL     1       0.388  -0.760   2.886  0.00  0.00    +0.314 C 
ATOM     25  O   UNL     1      -0.787  -0.567   2.682  0.00  0.00    -0.250 OA
BRANCH  24  26
ATOM     26  O   UNL     1       1.280  -0.569   1.902  0.00  0.00    -0.462 OA
BRANCH  26  28
ATOM     27  C   UNL     1       0.743   1.392   0.595  0.00  0.00    +0.052 C 
ATOM     28  C   UNL     1       0.771  -0.138   0.639  0.00  0.00    +0.170 C 
ATOM     29  C   UNL     1       1.671  -0.664  -0.481  0.00  0.00    +0.052 C 
ENDBRANCH  26  28
ENDBRANCH  24  26
ENDBRANCH  23  24
ENDBRANCH  18  23
ENDBRANCH  17  20
ENDBRANCH   1  17
TORSDOF 8
