REMARK  Name = ZINC40174244
REMARK  12 active torsions:
REMARK  status: ('A' for Active; 'I' for Inactive)
REMARK    1  A    between atoms: C_1  and  C_2
REMARK    2  A    between atoms: C_2  and  O_3
REMARK    3  A    between atoms: O_3  and  C_4
REMARK    4  A    between atoms: C_4  and  C_6
REMARK    5  A    between atoms: C_6  and  S_7
REMARK    6  A    between atoms: S_7  and  C_8
REMARK    7  A    between atoms: N_12  and  C_13
REMARK    8  A    between atoms: C_13  and  C_15
REMARK    9  A    between atoms: C_13  and  C_16
REMARK   10  A    between atoms: N_18  and  C_19
REMARK   11  A    between atoms: C_22  and  S_25
REMARK   12  A    between atoms: S_25  and  N_28
REMARK                            x       y       z     vdW  Elec       q    Type
REMARK                         _______ _______ _______ _____ _____    ______ ____
ROOT
ATOM      1  C   UNL     1      -4.400  -8.185   1.156  0.00  0.00    +0.240 C 
ATOM      2  O   UNL     1      -5.327  -7.916   1.891  0.00  0.00    -0.273 OA
ATOM      3  N   UNL     1      -3.606  -9.239   1.432  0.00  0.00    -0.284 N 
ATOM      4  H   UNL     1      -2.913  -9.500   0.806  0.00  0.00    +0.155 HD
ENDROOT
BRANCH   3   5
ATOM      5  C   UNL     1      -3.781  -9.955   2.621  0.00  0.00    +0.034 A 
ATOM      6  C   UNL     1      -3.533 -11.321   2.654  0.00  0.00    +0.025 A 
ATOM      7  C   UNL     1      -3.707 -12.025   3.830  0.00  0.00    +0.030 A 
ATOM      8  C   UNL     1      -4.128 -11.371   4.973  0.00  0.00    +0.106 A 
ATOM      9  C   UNL     1      -4.377 -10.011   4.944  0.00  0.00    +0.030 A 
ATOM     10  C   UNL     1      -4.199  -9.300   3.773  0.00  0.00    +0.025 A 
BRANCH   8  11
ATOM     11  S   UNL     1      -4.349 -12.272   6.471  0.00  0.00    +0.061 S 
ATOM     12  O   UNL     1      -5.272 -11.533   7.258  0.00  0.00    -0.153 OA
ATOM     13  O   UNL     1      -4.577 -13.625   6.100  0.00  0.00    -0.153 OA
BRANCH  11  14
ATOM     14  N   UNL     1      -2.905 -12.239   7.280  0.00  0.00    -0.177 NA
ATOM     15  C   UNL     1      -1.896 -13.284   7.053  0.00  0.00    +0.109 C 
ATOM     16  C   UNL     1      -0.568 -12.615   6.685  0.00  0.00    +0.017 C 
ATOM     17  C   UNL     1      -0.193 -11.603   7.770  0.00  0.00    +0.003 C 
ATOM     18  C   UNL     1      -1.271 -10.521   7.856  0.00  0.00    +0.017 C 
ATOM     19  C   UNL     1      -2.605 -11.162   8.233  0.00  0.00    +0.109 C 
ENDBRANCH  11  14
ENDBRANCH   8  11
ENDBRANCH   3   5
BRANCH   1  20
ATOM     20  C   UNL     1      -4.137  -7.342  -0.065  0.00  0.00    +0.175 C 
ATOM     21  C   UNL     1      -4.232  -8.215  -1.317  0.00  0.00    +0.041 C 
BRANCH  20  26
ATOM     22  C   UNL     1      -4.867  -4.928  -0.131  0.00  0.00    +0.194 A 
ATOM     23  N   UNL     1      -6.009  -4.290  -0.220  0.00  0.00    -0.121 NA
ATOM     24  N   UNL     1      -7.033  -5.244  -0.282  0.00  0.00    -0.113 NA
ATOM     25  C   UNL     1      -6.484  -6.433  -0.230  0.00  0.00    +0.216 A 
ATOM     26  N   UNL     1      -5.131  -6.269  -0.141  0.00  0.00    -0.279 N 
ATOM     27  N   UNL     1      -7.159  -7.646  -0.265  0.00  0.00    -0.328 N 
ATOM     28  H   UNL     1      -8.126  -7.661  -0.334  0.00  0.00    +0.145 HD
ATOM     29  H   UNL     1      -6.663  -8.478  -0.220  0.00  0.00    +0.145 HD
BRANCH  22  30
ATOM     30  S   UNL     1      -3.272  -4.186  -0.027  0.00  0.00    -0.075 S 
BRANCH  30  31
ATOM     31  C   UNL     1      -3.613  -2.405  -0.062  0.00  0.00    +0.197 C 
BRANCH  31  32
ATOM     32  C   UNL     1      -2.316  -1.643   0.022  0.00  0.00    +0.317 C 
ATOM     33  O   UNL     1      -1.268  -2.240   0.098  0.00  0.00    -0.250 OA
BRANCH  32  34
ATOM     34  O   UNL     1      -2.324  -0.301   0.013  0.00  0.00    -0.464 OA
BRANCH  34  36
ATOM     35  C   UNL     1      -1.266   1.871   0.071  0.00  0.00    +0.048 C 
ATOM     36  C   UNL     1      -1.057   0.356   0.095  0.00  0.00    +0.229 C 
ENDBRANCH  34  36
ENDBRANCH  32  34
ENDBRANCH  31  32
ENDBRANCH  30  31
ENDBRANCH  22  30
ENDBRANCH  20  26
ENDBRANCH   1  20
TORSDOF 10
