REMARK  Name = ZINC14548022
REMARK  6 active torsions:
REMARK  status: ('A' for Active; 'I' for Inactive)
REMARK    1  A    between atoms: C_4  and  C_7
REMARK    2  A    between atoms: C_7  and  N_8
REMARK    3  A    between atoms: N_8  and  S_9
REMARK    4  A    between atoms: S_9  and  C_12
REMARK    5  A    between atoms: C_25  and  C_28
REMARK    6  A    between atoms: C_37  and  O_38
REMARK                            x       y       z     vdW  Elec       q    Type
REMARK                         _______ _______ _______ _____ _____    ______ ____
ROOT
ATOM      1  C   UNL     1      -7.576  -0.583   0.604  0.00  0.00    +0.106 A 
ATOM      2  C   UNL     1      -6.995  -1.189   1.702  0.00  0.00    +0.030 A 
ATOM      3  C   UNL     1      -5.622  -1.214   1.834  0.00  0.00    +0.025 A 
ATOM      4  C   UNL     1      -4.813  -0.629   0.867  0.00  0.00    +0.031 A 
ATOM      5  C   UNL     1      -5.409  -0.003  -0.234  0.00  0.00    -0.018 A 
ATOM      6  C   UNL     1      -6.781   0.008  -0.361  0.00  0.00    +0.034 A 
ATOM      7  C   UNL     1      -4.514   0.650  -1.214  0.00  0.00    +0.049 C 
ATOM      8  C   UNL     1      -4.908   0.844  -2.632  0.00  0.00    -0.023 C 
ATOM      9  C   UNL     1      -3.815   0.800  -3.385  0.00  0.00    -0.030 C 
ATOM     10  C   UNL     1      -2.588   0.535  -2.511  0.00  0.00    +0.033 C 
ATOM     11  C   UNL     1      -3.213  -0.200  -1.317  0.00  0.00    +0.029 C 
ATOM     12  C   UNL     1      -2.522  -0.046   0.027  0.00  0.00    +0.109 C 
ATOM     13  N   UNL     1      -3.421  -0.682   1.014  0.00  0.00    -0.336 N 
ATOM     14  H   UNL     1      -3.040  -1.144   1.777  0.00  0.00    +0.147 HD
ENDROOT
BRANCH  12  15
ATOM     15  C   UNL     1      -1.189  -0.749   0.010  0.00  0.00    +0.022 A 
ATOM     16  C   UNL     1       0.002  -0.004   0.002  0.00  0.00    -0.009 A 
ATOM     17  C   UNL     1      -0.017   1.401   0.010  0.00  0.00    +0.009 A 
ATOM     18  C   UNL     1       1.156   2.091   0.002  0.00  0.00    +0.001 A 
ATOM     19  C   UNL     1       2.380   1.424  -0.013  0.00  0.00    +0.001 A 
ATOM     20  C   UNL     1       2.437   0.065  -0.021  0.00  0.00    +0.008 A 
ATOM     21  C   UNL     1       1.247  -0.682  -0.013  0.00  0.00    -0.017 A 
ATOM     22  C   UNL     1       1.268  -2.088  -0.021  0.00  0.00    +0.012 A 
ATOM     23  C   UNL     1       0.098  -2.780  -0.013  0.00  0.00    +0.046 A 
ATOM     24  C   UNL     1      -1.132  -2.113   0.003  0.00  0.00    +0.122 A 
BRANCH  24  25
ATOM     25  O   UNL     1      -2.284  -2.833   0.011  0.00  0.00    -0.506 OA
ATOM     26  H   UNL     1      -2.609  -3.046   0.897  0.00  0.00    +0.292 HD
ENDBRANCH  24  25
ENDBRANCH  12  15
BRANCH   1  27
ATOM     27  S   UNL     1      -9.330  -0.562   0.434  0.00  0.00    +0.059 S 
ATOM     28  O   UNL     1      -9.866  -0.703   1.742  0.00  0.00    -0.153 OA
ATOM     29  O   UNL     1      -9.644   0.543  -0.403  0.00  0.00    -0.153 OA
BRANCH  27  30
ATOM     30  N   UNL     1      -9.757  -1.926  -0.403  0.00  0.00    -0.186 NA
ATOM     31  H   UNL     1     -10.155  -1.850  -1.284  0.00  0.00    +0.148 HD
BRANCH  30  32
ATOM     32  C   UNL     1      -9.532  -3.248   0.188  0.00  0.00    +0.141 C 
BRANCH  32  36
ATOM     33  C   UNL     1     -11.764  -6.174  -1.980  0.00  0.00    +0.000 A 
ATOM     34  C   UNL     1     -10.471  -5.869  -2.362  0.00  0.00    +0.000 A 
ATOM     35  C   UNL     1      -9.749  -4.922  -1.660  0.00  0.00    +0.005 A 
ATOM     36  C   UNL     1     -10.320  -4.280  -0.577  0.00  0.00    -0.032 A 
ATOM     37  C   UNL     1     -11.611  -4.589  -0.193  0.00  0.00    +0.005 A 
ATOM     38  C   UNL     1     -12.335  -5.532  -0.897  0.00  0.00    +0.000 A 
ENDBRANCH  32  36
ENDBRANCH  30  32
ENDBRANCH  27  30
ENDBRANCH   1  27
TORSDOF 6
