REMARK  Name = ZINC34906244
REMARK  13 active torsions:
REMARK  status: ('A' for Active; 'I' for Inactive)
REMARK    1  A    between atoms: C_1  and  C_2
REMARK    2  A    between atoms: C_2  and  O_3
REMARK    3  A    between atoms: O_3  and  C_4
REMARK    4  A    between atoms: C_4  and  C_6
REMARK    5  A    between atoms: C_6  and  N_7
REMARK    6  A    between atoms: N_10  and  C_11
REMARK    7  A    between atoms: C_17  and  N_19
REMARK    8  A    between atoms: C_20  and  C_22
REMARK    9  A    between atoms: C_25  and  C_27
REMARK   10  A    between atoms: C_27  and  O_28
REMARK   11  A    between atoms: O_28  and  C_29
REMARK   12  A    between atoms: C_31  and  C_36
REMARK   13  A    between atoms: C_33  and  C_35
REMARK                            x       y       z     vdW  Elec       q    Type
REMARK                         _______ _______ _______ _____ _____    ______ ____
ROOT
ATOM      1  N   UNL     1      -3.697  -8.835  -0.193  0.00  0.00    -0.305 N 
ATOM      2  C   UNL     1      -2.909  -9.777   0.363  0.00  0.00    +0.263 C 
ATOM      3  O   UNL     1      -3.051 -10.075   1.534  0.00  0.00    -0.269 OA
ATOM      4  H   UNL     1      -3.584  -8.598  -1.126  0.00  0.00    +0.149 HD
ENDROOT
BRANCH   1  10
ATOM      5  C   UNL     1      -5.034  -6.797   0.014  0.00  0.00    +0.095 C 
ATOM      6  C   UNL     1      -5.541  -6.968  -1.420  0.00  0.00    +0.024 C 
ATOM      7  C   UNL     1      -6.813  -7.819  -1.412  0.00  0.00    +0.002 C 
ATOM      8  C   UNL     1      -6.504  -9.193  -0.813  0.00  0.00    +0.002 C 
ATOM      9  C   UNL     1      -5.997  -9.021   0.621  0.00  0.00    +0.024 C 
ATOM     10  C   UNL     1      -4.725  -8.171   0.613  0.00  0.00    +0.093 C 
BRANCH   5  14
ATOM     11  N   UNL     1      -2.784  -3.888   0.008  0.00  0.00    -0.289 N 
ATOM     12  C   UNL     1      -3.905  -4.638   0.014  0.00  0.00    +0.300 C 
ATOM     13  O   UNL     1      -4.995  -4.101   0.028  0.00  0.00    -0.253 OA
ATOM     14  N   UNL     1      -3.816  -5.982   0.006  0.00  0.00    -0.295 N 
ATOM     15  H   UNL     1      -1.914  -4.317  -0.003  0.00  0.00    +0.151 HD
ATOM     16  H   UNL     1      -2.946  -6.411  -0.004  0.00  0.00    +0.151 HD
BRANCH  11  17
ATOM     17  C   UNL     1      -2.881  -2.427   0.017  0.00  0.00    +0.226 C 
BRANCH  17  18
ATOM     18  C   UNL     1      -1.496  -1.832   0.006  0.00  0.00    +0.324 C 
ATOM     19  O   UNL     1      -0.528  -2.555  -0.007  0.00  0.00    -0.249 OA
BRANCH  18  20
ATOM     20  O   UNL     1      -1.339  -0.499   0.012  0.00  0.00    -0.464 OA
BRANCH  20  22
ATOM     21  C   UNL     1      -0.019   1.526   0.010  0.00  0.00    +0.048 C 
ATOM     22  C   UNL     1       0.002  -0.004   0.002  0.00  0.00    +0.229 C 
ENDBRANCH  20  22
ENDBRANCH  18  20
ENDBRANCH  17  18
ENDBRANCH  11  17
ENDBRANCH   5  14
ENDBRANCH   1  10
BRANCH   2  23
ATOM     23  C   UNL     1      -1.877 -10.445  -0.447  0.00  0.00    +0.133 A 
ATOM     24  C   UNL     1      -1.058 -11.410   0.076  0.00  0.00    +0.080 A 
ATOM     25  S   UNL     1      -0.098 -11.821  -1.240  0.00  0.00    -0.076 S 
ATOM     26  C   UNL     1      -0.748 -10.780  -2.386  0.00  0.00    +0.116 A 
ATOM     27  N   UNL     1      -1.687 -10.148  -1.736  0.00  0.00    -0.236 NA
BRANCH  26  28
ATOM     28  C   UNL     1      -0.346 -10.618  -3.829  0.00  0.00    +0.291 C 
BRANCH  28  29
ATOM     29  O   UNL     1       0.672  -9.621  -3.931  0.00  0.00    -0.485 OA
BRANCH  29  30
ATOM     30  C   UNL     1       1.149  -9.351  -5.175  0.00  0.00    +0.122 A 
ATOM     31  C   UNL     1       0.644 -10.028  -6.275  0.00  0.00    +0.049 A 
ATOM     32  C   UNL     1       1.131  -9.752  -7.538  0.00  0.00    -0.047 A 
ATOM     33  C   UNL     1       2.121  -8.801  -7.706  0.00  0.00    +0.007 A 
ATOM     34  C   UNL     1       2.626  -8.125  -6.611  0.00  0.00    -0.047 A 
ATOM     35  C   UNL     1       2.138  -8.393  -5.346  0.00  0.00    +0.049 A 
ATOM     36  C   UNL     1       3.705  -7.090  -6.798  0.00  0.00    +0.044 C 
ATOM     37  C   UNL     1       0.582 -10.488  -8.733  0.00  0.00    +0.044 C 
ENDBRANCH  29  30
ENDBRANCH  28  29
ENDBRANCH  26  28
ENDBRANCH   2  23
TORSDOF 10
