REMARK  Name = ZINC63686379
REMARK  7 active torsions:
REMARK  status: ('A' for Active; 'I' for Inactive)
REMARK    1  A    between atoms: C_1  and  C_2
REMARK    2  A    between atoms: C_4  and  C_28
REMARK    3  A    between atoms: C_11  and  C_13
REMARK    4  A    between atoms: C_13  and  S_14
REMARK    5  A    between atoms: S_14  and  C_15
REMARK    6  A    between atoms: C_19  and  C_23
REMARK    7  A    between atoms: N_21  and  C_22
REMARK                            x       y       z     vdW  Elec       q    Type
REMARK                         _______ _______ _______ _____ _____    ______ ____
ROOT
ATOM      1  C   UNL     1       0.097  -6.368   1.043  0.00  0.00    +0.122 C 
ENDROOT
BRANCH   1  12
ATOM      2  C   UNL     1      -0.018   1.503   0.010  0.00  0.00    +0.044 C 
ATOM      3  C   UNL     1       0.002  -0.004   0.002  0.00  0.00    -0.049 A 
ATOM      4  C   UNL     1       0.006  -0.686  -1.207  0.00  0.00    +0.008 A 
ATOM      5  C   UNL     1       0.025  -2.063  -1.238  0.00  0.00    -0.026 A 
ATOM      6  C   UNL     1       0.041  -2.780  -0.045  0.00  0.00    +0.053 A 
ATOM      7  C   UNL     1       0.037  -2.083   1.176  0.00  0.00    +0.045 A 
ATOM      8  C   UNL     1       0.023  -0.688   1.185  0.00  0.00    +0.017 A 
ATOM      9  C   UNL     1       0.054  -2.860   2.428  0.00  0.00    +0.190 A 
ATOM     10  O   UNL     1       0.051  -2.306   3.514  0.00  0.00    -0.287 OA
ATOM     11  C   UNL     1       0.073  -4.271   2.327  0.00  0.00    +0.073 A 
ATOM     12  C   UNL     1       0.075  -4.863   1.115  0.00  0.00    +0.030 A 
ATOM     13  N   UNL     1       0.059  -4.156  -0.041  0.00  0.00    -0.357 N 
ATOM     14  C   UNL     1       0.028  -2.790  -2.558  0.00  0.00    +0.046 C 
ATOM     15  H   UNL     1       0.061  -4.632  -0.886  0.00  0.00    +0.166 HD
ENDBRANCH   1  12
BRANCH   1  16
ATOM     16  S   UNL     1      -1.549  -6.975   0.580  0.00  0.00    -0.154 S 
BRANCH  16  17
ATOM     17  C   UNL     1      -1.357  -8.778   0.538  0.00  0.00    +0.077 C 
ATOM     18  N   UNL     1      -0.293  -9.153  -0.421  0.00  0.00    -0.261 NA
ATOM     19  N   UNL     1       0.913  -9.303   0.408  0.00  0.00    -0.264 NA
ATOM     20  C   UNL     1       0.390  -9.925   1.652  0.00  0.00    +0.085 C 
ATOM     21  N   UNL     1      -0.924  -9.272   1.862  0.00  0.00    +0.411 N 
ATOM     22  C   UNL     1      -1.895 -10.245   2.380  0.00  0.00    -0.090 C 
ATOM     23  H   UNL     1      -0.165  -8.435  -1.118  0.00  0.00    +0.140 HD
ATOM     24  H   UNL     1       1.588  -9.904  -0.041  0.00  0.00    +0.139 HD
ATOM     25  H   UNL     1      -0.828  -8.500   2.505  0.00  0.00    -0.076 HD
BRANCH  20  26
ATOM     26  C   UNL     1       1.313  -9.645   2.811  0.00  0.00    +0.106 A 
ATOM     27  C   UNL     1       2.646  -9.489   2.734  0.00  0.00    +0.044 A 
ATOM     28  C   UNL     1       3.107  -9.244   4.048  0.00  0.00    +0.041 A 
ATOM     29  C   UNL     1       2.026  -9.266   4.849  0.00  0.00    +0.195 A 
ATOM     30  O   UNL     1       0.942  -9.503   4.094  0.00  0.00    -0.468 OA
ENDBRANCH  20  26
ENDBRANCH  16  17
ENDBRANCH   1  16
TORSDOF 4
