REMARK  Name = ZINC35594897
REMARK  15 active torsions:
REMARK  status: ('A' for Active; 'I' for Inactive)
REMARK    1  A    between atoms: C_1  and  C_2
REMARK    2  A    between atoms: C_2  and  C_3
REMARK    3  A    between atoms: C_2  and  C_4
REMARK    4  A    between atoms: C_2  and  N_5
REMARK    5  A    between atoms: C_8  and  C_10
REMARK    6  A    between atoms: C_16  and  C_32
REMARK    7  A    between atoms: N_22  and  C_23
REMARK    8  A    between atoms: C_23  and  C_24
REMARK    9  A    between atoms: N_26  and  C_27
REMARK   10  A    between atoms: C_27  and  C_28
REMARK   11  A    between atoms: C_28  and  N_29
REMARK   12  A    between atoms: N_29  and  C_30
REMARK   13  A    between atoms: N_29  and  C_31
REMARK   14  A    between atoms: C_37  and  O_38
REMARK   15  A    between atoms: O_38  and  C_39
REMARK                            x       y       z     vdW  Elec       q    Type
REMARK                         _______ _______ _______ _____ _____    ______ ____
ROOT
ATOM      1  N   UNL     1       0.221  -0.710  -1.611  0.00  0.00    -0.244 N 
ATOM      2  C   UNL     1       0.015  -2.013  -1.911  0.00  0.00    +0.132 A 
ATOM      3  C   UNL     1       0.446  -2.232  -3.173  0.00  0.00    +0.038 A 
ATOM      4  C   UNL     1       0.945  -1.018  -3.674  0.00  0.00    +0.099 A 
ATOM      5  N   UNL     1       0.802  -0.103  -2.735  0.00  0.00    -0.169 NA
ATOM      6  C   UNL     1       0.382  -3.557  -3.887  0.00  0.00    +0.116 C 
ATOM      7  S   UNL     1       1.661  -4.660  -3.185  0.00  0.00    -0.138 S 
ATOM      8  C   UNL     1       1.535  -4.294  -1.402  0.00  0.00    +0.166 C 
ATOM      9  C   UNL     1       0.101  -4.177  -0.985  0.00  0.00    +0.231 C 
ATOM     10  O   UNL     1      -0.482  -5.147  -0.548  0.00  0.00    -0.274 OA
ATOM     11  N   UNL     1      -0.540  -3.009  -1.093  0.00  0.00    -0.246 N 
ENDROOT
BRANCH   4  12
ATOM     12  C   UNL     1       1.525  -0.802  -5.023  0.00  0.00    +0.002 A 
ATOM     13  C   UNL     1       0.906   0.067  -5.919  0.00  0.00    +0.010 A 
ATOM     14  C   UNL     1       1.450   0.264  -7.173  0.00  0.00    +0.001 A 
ATOM     15  C   UNL     1       2.607  -0.400  -7.539  0.00  0.00    +0.000 A 
ATOM     16  C   UNL     1       3.225  -1.263  -6.654  0.00  0.00    +0.001 A 
ATOM     17  C   UNL     1       2.693  -1.464  -5.396  0.00  0.00    +0.010 A 
ENDBRANCH   4  12
BRANCH   6  18
ATOM     18  C   UNL     1       0.638  -3.352  -5.358  0.00  0.00    +0.012 A 
ATOM     19  C   UNL     1       1.852  -3.720  -5.907  0.00  0.00    +0.008 A 
ATOM     20  C   UNL     1       2.087  -3.531  -7.256  0.00  0.00    +0.001 A 
ATOM     21  C   UNL     1       1.109  -2.975  -8.060  0.00  0.00    +0.004 A 
ATOM     22  C   UNL     1      -0.106  -2.605  -7.516  0.00  0.00    +0.046 A 
ATOM     23  C   UNL     1      -0.346  -2.799  -6.163  0.00  0.00    +0.125 A 
BRANCH  23  24
ATOM     24  O   UNL     1      -1.543  -2.441  -5.627  0.00  0.00    -0.495 OA
ATOM     25  C   UNL     1      -2.510  -1.877  -6.516  0.00  0.00    +0.277 C 
ENDBRANCH  23  24
ENDBRANCH   6  18
BRANCH   1  27
ATOM     26  C   UNL     1      -1.587   0.342  -0.345  0.00  0.00    +0.036 C 
ATOM     27  C   UNL     1      -0.109  -0.051  -0.345  0.00  0.00    +0.057 C 
ATOM     28  C   UNL     1       0.753   1.203  -0.183  0.00  0.00    +0.036 C 
ATOM     29  C   UNL     1       0.164  -1.011   0.815  0.00  0.00    +0.036 C 
ENDBRANCH   1  27
BRANCH  11  30
ATOM     30  C   UNL     1      -1.794  -2.773  -0.372  0.00  0.00    +0.210 C 
BRANCH  30  31
ATOM     31  C   UNL     1      -2.959  -3.030  -1.292  0.00  0.00    +0.231 C 
ATOM     32  O   UNL     1      -2.761  -3.377  -2.438  0.00  0.00    -0.274 OA
ATOM     33  N   UNL     1      -4.220  -2.876  -0.843  0.00  0.00    -0.316 N 
ATOM     34  H   UNL     1      -4.378  -2.599   0.073  0.00  0.00    +0.149 HD
BRANCH  33  35
ATOM     35  C   UNL     1      -5.352  -3.126  -1.738  0.00  0.00    +0.085 C 
BRANCH  35  36
ATOM     36  C   UNL     1      -6.661  -2.879  -0.985  0.00  0.00    -0.061 C 
BRANCH  36  37
ATOM     37  N   UNL     1      -7.797  -3.130  -1.883  0.00  0.00    +0.377 N 
ATOM     38  C   UNL     1      -7.824  -4.551  -2.254  0.00  0.00    -0.097 C 
ATOM     39  C   UNL     1      -9.049  -2.779  -1.199  0.00  0.00    -0.097 C 
ATOM     40  H   UNL     1      -7.699  -2.567  -2.714  0.00  0.00    -0.083 HD
ENDBRANCH  36  37
ENDBRANCH  35  36
ENDBRANCH  33  35
ENDBRANCH  30  31
ENDBRANCH  11  30
TORSDOF 9
