REMARK  Name = ZINC62355657
REMARK  7 active torsions:
REMARK  status: ('A' for Active; 'I' for Inactive)
REMARK    1  A    between atoms: C_4  and  C_7
REMARK    2  A    between atoms: C_7  and  C_9
REMARK    3  A    between atoms: C_7  and  N_27
REMARK    4  A    between atoms: C_9  and  N_10
REMARK    5  A    between atoms: C_11  and  C_13
REMARK    6  A    between atoms: N_18  and  C_19
REMARK    7  A    between atoms: C_19  and  C_20
REMARK                            x       y       z     vdW  Elec       q    Type
REMARK                         _______ _______ _______ _____ _____    ______ ____
ROOT
ATOM      1  N   UNL     1       5.320  -1.941   1.316  0.00  0.00    -0.318 N 
ATOM      2  C   UNL     1       5.837  -2.443   2.455  0.00  0.00    +0.199 C 
ATOM      3  O   UNL     1       5.353  -2.140   3.525  0.00  0.00    -0.278 OA
ATOM      4  H   UNL     1       5.707  -2.183   0.460  0.00  0.00    +0.149 HD
ENDROOT
BRANCH   2   5
ATOM      5  C   UNL     1       7.016  -3.380   2.399  0.00  0.00    +0.020 C 
ATOM      6  C   UNL     1       8.229  -2.661   1.772  0.00  0.00    -0.008 C 
ATOM      7  C   UNL     1       9.037  -2.194   3.010  0.00  0.00    -0.020 C 
ATOM      8  C   UNL     1       8.803  -3.365   3.997  0.00  0.00    -0.077 C 
ATOM      9  N   UNL     1       7.401  -3.784   3.763  0.00  0.00    +0.390 N 
ATOM     10  H   UNL     1       6.795  -3.336   4.434  0.00  0.00    -0.080 HD
BRANCH   9  11
ATOM     11  C   UNL     1       7.289  -5.243   3.897  0.00  0.00    -0.039 C 
BRANCH  11  12
ATOM     12  C   UNL     1       7.564  -5.639   5.325  0.00  0.00    -0.029 A 
ATOM     13  C   UNL     1       8.808  -6.126   5.680  0.00  0.00    +0.004 A 
ATOM     14  C   UNL     1       9.061  -6.489   6.989  0.00  0.00    +0.000 A 
ATOM     15  C   UNL     1       8.070  -6.366   7.945  0.00  0.00    +0.003 A 
ATOM     16  C   UNL     1       6.826  -5.879   7.593  0.00  0.00    +0.038 A 
ATOM     17  C   UNL     1       6.573  -5.510   6.283  0.00  0.00    +0.125 A 
ATOM     18  F   UNL     1       5.358  -5.029   5.938  0.00  0.00    -0.205 F 
ENDBRANCH  11  12
ENDBRANCH   9  11
ENDBRANCH   2   5
BRANCH   1  19
ATOM     19  C   UNL     1       4.174  -1.030   1.371  0.00  0.00    +0.093 C 
BRANCH  19  20
ATOM     20  C   UNL     1       3.870  -0.508  -0.035  0.00  0.00    -0.020 C 
BRANCH  20  24
ATOM     21  C   UNL     1       7.127   1.896  -1.400  0.00  0.00    +0.000 A 
ATOM     22  C   UNL     1       7.011   0.585  -1.822  0.00  0.00    +0.000 A 
ATOM     23  C   UNL     1       5.957  -0.193  -1.381  0.00  0.00    +0.002 A 
ATOM     24  C   UNL     1       5.019   0.340  -0.516  0.00  0.00    -0.059 A 
ATOM     25  C   UNL     1       5.136   1.651  -0.092  0.00  0.00    +0.002 A 
ATOM     26  C   UNL     1       6.189   2.429  -0.535  0.00  0.00    +0.000 A 
ENDBRANCH  20  24
BRANCH  20  27
ATOM     27  N   UNL     1       2.644   0.301  -0.003  0.00  0.00    +0.385 N 
ATOM     28  C   UNL     1       2.327   0.805  -1.363  0.00  0.00    -0.078 C 
ATOM     29  C   UNL     1       0.811   1.116  -1.281  0.00  0.00    -0.020 C 
ATOM     30  C   UNL     1       0.271  -0.028  -0.393  0.00  0.00    -0.020 C 
ATOM     31  C   UNL     1       1.492  -0.534   0.398  0.00  0.00    -0.078 C 
ATOM     32  H   UNL     1       2.754   1.073   0.638  0.00  0.00    -0.081 HD
ENDBRANCH  20  27
ENDBRANCH  19  20
ENDBRANCH   1  19
TORSDOF 7
