REMARK  Name = ZINC16512546
REMARK  8 active torsions:
REMARK  status: ('A' for Active; 'I' for Inactive)
REMARK    1  A    between atoms: C_1  and  O_2
REMARK    2  A    between atoms: O_2  and  C_3
REMARK    3  A    between atoms: C_8  and  O_9
REMARK    4  A    between atoms: O_9  and  C_10
REMARK    5  A    between atoms: C_11  and  C_30
REMARK    6  A    between atoms: N_13  and  C_16
REMARK    7  A    between atoms: N_21  and  C_24
REMARK    8  A    between atoms: C_33  and  N_36
REMARK                            x       y       z     vdW  Elec       q    Type
REMARK                         _______ _______ _______ _____ _____    ______ ____
ROOT
ATOM      1  C   UNL     1       1.850   5.875   5.295  0.00  0.00    +0.162 A 
ATOM      2  C   UNL     1       2.176   5.531   3.995  0.00  0.00    +0.053 A 
ATOM      3  C   UNL     1       1.396   4.624   3.294  0.00  0.00    -0.044 A 
ATOM      4  C   UNL     1       0.287   4.062   3.890  0.00  0.00    -0.050 A 
ATOM      5  C   UNL     1      -0.043   4.404   5.194  0.00  0.00    +0.052 A 
ATOM      6  C   UNL     1       0.733   5.307   5.899  0.00  0.00    +0.162 A 
ATOM      7  C   UNL     1      -0.593   3.078   3.165  0.00  0.00    -0.005 C 
ATOM      8  N   UNL     1       0.106   2.526   2.000  0.00  0.00    +0.395 N 
ATOM      9  C   UNL     1       0.627   3.612   1.156  0.00  0.00    -0.072 C 
ATOM     10  C   UNL     1       1.798   4.273   1.883  0.00  0.00    +0.017 C 
ATOM     11  H   UNL     1       0.954   1.925   2.360  0.00  0.00    -0.079 HD
ENDROOT
BRANCH   8  12
ATOM     12  C   UNL     1      -0.774   1.636   1.231  0.00  0.00    +0.030 C 
ATOM     13  C   UNL     1      -0.030   1.061   0.009  0.00  0.00    +0.091 C 
ATOM     14  C   UNL     1      -0.825   1.578  -1.171  0.00  0.00    +0.225 C 
ATOM     15  O   UNL     1      -0.575   1.357  -2.337  0.00  0.00    -0.275 OA
ATOM     16  N   UNL     1      -1.847   2.318  -0.723  0.00  0.00    -0.212 N 
ATOM     17  C   UNL     1      -1.916   2.418   0.610  0.00  0.00    +0.213 C 
ATOM     18  O   UNL     1      -2.758   3.037   1.224  0.00  0.00    -0.277 OA
BRANCH  16  19
ATOM     19  C   UNL     1      -2.768   2.936  -1.580  0.00  0.00    +0.044 A 
ATOM     20  C   UNL     1      -2.361   3.978  -2.403  0.00  0.00    +0.024 A 
ATOM     21  C   UNL     1      -3.270   4.582  -3.249  0.00  0.00    +0.002 A 
ATOM     22  C   UNL     1      -4.586   4.158  -3.270  0.00  0.00    +0.000 A 
ATOM     23  C   UNL     1      -4.995   3.124  -2.448  0.00  0.00    +0.002 A 
ATOM     24  C   UNL     1      -4.090   2.513  -1.603  0.00  0.00    +0.024 A 
ENDBRANCH  16  19
ENDBRANCH   8  12
BRANCH   7  25
ATOM     25  C   UNL     1      -0.962   1.956   4.101  0.00  0.00    -0.057 A 
ATOM     26  C   UNL     1      -0.076   0.918   4.319  0.00  0.00    +0.004 A 
ATOM     27  C   UNL     1      -0.413  -0.109   5.181  0.00  0.00    +0.033 A 
ATOM     28  C   UNL     1      -1.639  -0.101   5.820  0.00  0.00    +0.126 A 
ATOM     29  C   UNL     1      -2.527   0.935   5.598  0.00  0.00    +0.033 A 
ATOM     30  C   UNL     1      -2.188   1.964   4.739  0.00  0.00    +0.004 A 
BRANCH  28  31
ATOM     31  N   UNL     1      -2.001  -1.202   6.740  0.00  0.00    +0.056 N 
ATOM     32  O   UNL     1      -3.081  -1.196   7.302  0.00  0.00    -0.126 OA
ATOM     33  O   UNL     1      -1.218  -2.115   6.935  0.00  0.00    -0.126 OA
ENDBRANCH  28  31
ENDBRANCH   7  25
BRANCH   1  35
ATOM     34  C   UNL     1       3.749   7.306   5.295  0.00  0.00    +0.277 C 
ATOM     35  O   UNL     1       2.619   6.764   5.980  0.00  0.00    -0.491 OA
ENDBRANCH   1  35
BRANCH   6  36
ATOM     36  O   UNL     1       0.405   5.637   7.177  0.00  0.00    -0.491 OA
ATOM     37  C   UNL     1      -0.755   5.013   7.731  0.00  0.00    +0.277 C 
ENDBRANCH   6  36
TORSDOF 6
