REMARK  Name = ZINC02645895
REMARK  11 active torsions:
REMARK  status: ('A' for Active; 'I' for Inactive)
REMARK    1  A    between atoms: C_1  and  C_2
REMARK    2  A    between atoms: C_2  and  N_3
REMARK    3  A    between atoms: N_3  and  C_4
REMARK    4  A    between atoms: N_3  and  S_10
REMARK    5  A    between atoms: S_10  and  C_13
REMARK    6  A    between atoms: C_16  and  C_19
REMARK    7  A    between atoms: N_21  and  C_22
REMARK    8  A    between atoms: C_22  and  C_23
REMARK    9  A    between atoms: C_23  and  N_29
REMARK   10  A    between atoms: N_29  and  C_30
REMARK   11  A    between atoms: N_29  and  C_31
REMARK                            x       y       z     vdW  Elec       q    Type
REMARK                         _______ _______ _______ _____ _____    ______ ____
ROOT
ATOM      1  C   UNL     1      -2.725  -1.646   2.123  0.00  0.00    +0.109 A 
ATOM      2  C   UNL     1      -2.739  -0.813   3.227  0.00  0.00    +0.029 A 
ATOM      3  C   UNL     1      -3.860  -0.744   4.029  0.00  0.00    +0.015 A 
ATOM      4  C   UNL     1      -4.981  -1.518   3.724  0.00  0.00    +0.037 A 
ATOM      5  C   UNL     1      -4.960  -2.356   2.609  0.00  0.00    +0.015 A 
ATOM      6  C   UNL     1      -3.835  -2.412   1.812  0.00  0.00    +0.029 A 
ENDROOT
BRANCH   4   7
ATOM      7  C   UNL     1      -6.185  -1.449   4.579  0.00  0.00    +0.244 C 
ATOM      8  O   UNL     1      -6.200  -0.718   5.550  0.00  0.00    -0.270 OA
ATOM      9  N   UNL     1      -7.266  -2.197   4.282  0.00  0.00    -0.313 N 
ATOM     10  H   UNL     1      -7.254  -2.781   3.507  0.00  0.00    +0.149 HD
BRANCH   9  11
ATOM     11  C   UNL     1      -8.459  -2.130   5.130  0.00  0.00    +0.092 C 
BRANCH  11  12
ATOM     12  C   UNL     1      -9.532  -3.069   4.576  0.00  0.00    -0.050 C 
ATOM     13  C   UNL     1     -10.778  -2.998   5.461  0.00  0.00    -0.010 C 
ATOM     14  C   UNL     1     -11.313  -1.565   5.474  0.00  0.00    -0.001 C 
ATOM     15  C   UNL     1     -11.675  -1.142   4.049  0.00  0.00    -0.000 C 
ATOM     16  C   UNL     1     -10.429  -1.213   3.164  0.00  0.00    -0.001 C 
ATOM     17  C   UNL     1      -9.894  -2.646   3.151  0.00  0.00    -0.010 C 
BRANCH  12  18
ATOM     18  N   UNL     1      -9.018  -4.445   4.562  0.00  0.00    +0.381 N 
ATOM     19  C   UNL     1      -8.671  -4.851   5.931  0.00  0.00    -0.096 C 
ATOM     20  C   UNL     1     -10.048  -5.348   4.031  0.00  0.00    -0.096 C 
ATOM     21  H   UNL     1      -8.196  -4.492   3.979  0.00  0.00    -0.082 HD
ENDBRANCH  12  18
ENDBRANCH  11  12
ENDBRANCH   9  11
ENDBRANCH   4   7
BRANCH   1  22
ATOM     22  S   UNL     1      -1.290  -1.728   1.104  0.00  0.00    +0.075 S 
ATOM     23  O   UNL     1      -1.413  -2.909   0.324  0.00  0.00    -0.150 OA
ATOM     24  O   UNL     1      -0.175  -1.488   1.953  0.00  0.00    -0.150 OA
BRANCH  22  25
ATOM     25  N   UNL     1      -1.365  -0.454   0.049  0.00  0.00    -0.203 N 
BRANCH  25  26
ATOM     26  C   UNL     1      -1.881  -0.640  -1.235  0.00  0.00    +0.051 A 
ATOM     27  C   UNL     1      -3.238  -0.881  -1.412  0.00  0.00    +0.025 A 
ATOM     28  C   UNL     1      -3.746  -1.064  -2.683  0.00  0.00    +0.002 A 
ATOM     29  C   UNL     1      -2.905  -1.009  -3.779  0.00  0.00    +0.000 A 
ATOM     30  C   UNL     1      -1.554  -0.770  -3.607  0.00  0.00    +0.002 A 
ATOM     31  C   UNL     1      -1.041  -0.580  -2.339  0.00  0.00    +0.025 A 
ENDBRANCH  25  26
BRANCH  25  33
ATOM     32  C   UNL     1      -2.069   1.697   0.976  0.00  0.00    +0.026 C 
ATOM     33  C   UNL     1      -0.889   0.868   0.463  0.00  0.00    +0.128 C 
ENDBRANCH  25  33
ENDBRANCH  22  25
ENDBRANCH   1  22
TORSDOF 8
