REMARK  Name = ZINC25384296
REMARK  10 active torsions:
REMARK  status: ('A' for Active; 'I' for Inactive)
REMARK    1  A    between atoms: C_1  and  C_2
REMARK    2  A    between atoms: C_2  and  C_3
REMARK    3  A    between atoms: C_6  and  C_9
REMARK    4  A    between atoms: C_11  and  C_14
REMARK    5  A    between atoms: C_14  and  C_15
REMARK    6  A    between atoms: C_15  and  C_16
REMARK    7  A    between atoms: N_18  and  C_19
REMARK    8  A    between atoms: C_19  and  C_20
REMARK    9  A    between atoms: C_20  and  C_22
REMARK   10  A    between atoms: C_20  and  N_27
REMARK                            x       y       z     vdW  Elec       q    Type
REMARK                         _______ _______ _______ _____ _____    ______ ____
ROOT
ATOM      1  C   UNL     1      -3.751   1.838  -3.817  0.00  0.00    +0.213 C 
ATOM      2  O   UNL     1      -3.490   2.155  -4.958  0.00  0.00    -0.276 OA
ATOM      3  N   UNL     1      -2.767   1.447  -2.984  0.00  0.00    -0.317 N 
ATOM      4  H   UNL     1      -3.004   1.160  -1.949  0.00  0.00    +0.149 HD
ENDROOT
BRANCH   1   5
ATOM      5  C   UNL     1      -5.177   1.882  -3.330  0.00  0.00    +0.105 C 
BRANCH   5   6
ATOM      6  C   UNL     1      -6.088   2.356  -4.464  0.00  0.00    +0.108 C 
BRANCH   6   9
ATOM      7  C   UNL     1      -9.371   3.002  -3.151  0.00  0.00    +0.202 A 
ATOM      8  N   UNL     1      -8.114   3.421  -3.419  0.00  0.00    -0.191 NA
ATOM      9  C   UNL     1      -7.514   2.400  -3.978  0.00  0.00    +0.228 A 
ATOM     10  O   UNL     1      -8.405   1.406  -4.041  0.00  0.00    -0.338 OA
ATOM     11  N   UNL     1      -9.460   1.763  -3.560  0.00  0.00    -0.056 NA
BRANCH   7  15
ATOM     12  C   UNL     1     -12.458   5.285  -1.321  0.00  0.00    -0.048 A 
ATOM     13  C   UNL     1     -12.702   3.978  -1.704  0.00  0.00    +0.004 A 
ATOM     14  C   UNL     1     -11.704   3.233  -2.299  0.00  0.00    +0.012 A 
ATOM     15  C   UNL     1     -10.449   3.799  -2.513  0.00  0.00    +0.022 A 
ATOM     16  C   UNL     1     -10.207   5.114  -2.121  0.00  0.00    +0.012 A 
ATOM     17  C   UNL     1     -11.214   5.852  -1.532  0.00  0.00    +0.004 A 
BRANCH  12  19
ATOM     18  C   UNL     1     -13.492   5.906   0.845  0.00  0.00    +0.009 C 
ATOM     19  C   UNL     1     -13.551   6.093  -0.672  0.00  0.00    +0.032 C 
ENDBRANCH  12  19
ENDBRANCH   7  15
ENDBRANCH   6   9
ENDBRANCH   5   6
ENDBRANCH   1   5
BRANCH   3  20
ATOM     20  C   UNL     1      -1.381   1.404  -3.457  0.00  0.00    +0.094 C 
BRANCH  20  21
ATOM     21  C   UNL     1      -0.488   0.807  -2.367  0.00  0.00    -0.013 C 
BRANCH  21  22
ATOM     22  N   UNL     1       0.915   0.866  -2.797  0.00  0.00    +0.386 N 
ATOM     23  C   UNL     1       1.821   0.373  -1.728  0.00  0.00    -0.078 C 
ATOM     24  C   UNL     1       3.200   0.974  -2.074  0.00  0.00    -0.020 C 
ATOM     25  C   UNL     1       2.886   2.224  -2.927  0.00  0.00    -0.020 C 
ATOM     26  C   UNL     1       1.346   2.270  -3.022  0.00  0.00    -0.078 C 
ATOM     27  H   UNL     1       0.964   0.255  -3.711  0.00  0.00    -0.081 HD
ENDBRANCH  21  22
BRANCH  21  28
ATOM     28  C   UNL     1      -0.881  -0.627  -2.126  0.00  0.00    -0.022 A 
ATOM     29  C   UNL     1      -1.650  -1.148  -1.139  0.00  0.00    +0.009 A 
ATOM     30  C   UNL     1      -1.881  -2.510  -1.116  0.00  0.00    +0.008 A 
ATOM     31  C   UNL     1      -1.330  -3.286  -2.082  0.00  0.00    +0.045 A 
ATOM     32  S   UNL     1      -0.459  -2.082  -3.071  0.00  0.00    -0.103 S 
ENDBRANCH  21  28
ENDBRANCH  20  21
ENDBRANCH   3  20
TORSDOF 9
