REMARK  Name = ZINC66703815
REMARK  10 active torsions:
REMARK  status: ('A' for Active; 'I' for Inactive)
REMARK    1  A    between atoms: C_1  and  C_2
REMARK    2  A    between atoms: C_7  and  N_10
REMARK    3  A    between atoms: C_11  and  C_13
REMARK    4  A    between atoms: C_13  and  N_14
REMARK    5  A    between atoms: N_22  and  C_23
REMARK    6  A    between atoms: C_23  and  C_24
REMARK    7  A    between atoms: C_24  and  C_26
REMARK    8  A    between atoms: C_24  and  N_27
REMARK    9  A    between atoms: N_27  and  C_28
REMARK   10  A    between atoms: N_27  and  C_29
REMARK                            x       y       z     vdW  Elec       q    Type
REMARK                         _______ _______ _______ _____ _____    ______ ____
ROOT
ATOM      1  N   UNL     1       3.677  -5.138   3.557  0.00  0.00    -0.291 NA
ATOM      2  C   UNL     1       4.685  -5.160   2.488  0.00  0.00    +0.104 C 
ATOM      3  C   UNL     1       4.961  -6.611   2.081  0.00  0.00    +0.124 C 
ATOM      4  N   UNL     1       5.315  -7.376   3.286  0.00  0.00    -0.283 N 
ATOM      5  C   UNL     1       4.421  -7.293   4.451  0.00  0.00    +0.124 C 
ATOM      6  C   UNL     1       4.166  -5.815   4.765  0.00  0.00    +0.104 C 
ATOM      7  C   UNL     1       6.430  -8.133   3.322  0.00  0.00    +0.302 C 
ATOM      8  O   UNL     1       7.109  -8.262   2.322  0.00  0.00    -0.253 OA
ATOM      9  N   UNL     1       6.791  -8.745   4.467  0.00  0.00    -0.301 N 
ATOM     10  H   UNL     1       6.212  -8.702   5.244  0.00  0.00    +0.150 HD
ENDROOT
BRANCH   1  11
ATOM     11  C   UNL     1       3.259  -3.762   3.857  0.00  0.00    +0.180 C 
BRANCH  11  13
ATOM     12  N   UNL     1       2.064  -1.924   2.711  0.00  0.00    -0.311 N 
ATOM     13  C   UNL     1       2.541  -3.184   2.665  0.00  0.00    +0.227 C 
ATOM     14  O   UNL     1       2.393  -3.852   1.663  0.00  0.00    -0.274 OA
ATOM     15  H   UNL     1       2.182  -1.390   3.512  0.00  0.00    +0.149 HD
BRANCH  12  21
ATOM     16  C   UNL     1       0.861   2.277   0.398  0.00  0.00    +0.007 C 
ATOM     17  C   UNL     1       0.749   0.751   0.370  0.00  0.00    -0.012 C 
ATOM     18  C   UNL     1      -0.726   0.347   0.417  0.00  0.00    +0.003 C 
ATOM     19  C   UNL     1      -0.838  -1.179   0.389  0.00  0.00    +0.002 C 
ATOM     20  C   UNL     1      -0.109  -1.766   1.599  0.00  0.00    +0.022 C 
ATOM     21  C   UNL     1       1.366  -1.362   1.552  0.00  0.00    +0.073 C 
ATOM     22  C   UNL     1       1.478   0.164   1.580  0.00  0.00    +0.025 C 
ENDBRANCH  12  21
ENDBRANCH  11  13
ENDBRANCH   1  11
BRANCH   9  23
ATOM     23  C   UNL     1       8.059  -9.477   4.538  0.00  0.00    +0.090 C 
BRANCH  23  24
ATOM     24  C   UNL     1       8.167 -10.180   5.893  0.00  0.00    -0.054 C 
ATOM     25  C   UNL     1       7.088 -11.259   5.995  0.00  0.00    -0.012 C 
BRANCH  24  26
ATOM     26  N   UNL     1       9.493 -10.800   6.018  0.00  0.00    +0.382 N 
ATOM     27  C   UNL     1       9.570 -11.539   7.285  0.00  0.00    -0.095 C 
ATOM     28  H   UNL     1       9.641 -11.435   5.248  0.00  0.00    -0.081 HD
BRANCH  26  29
ATOM     29  C   UNL     1      10.525  -9.755   5.997  0.00  0.00    -0.069 C 
ATOM     30  C   UNL     1      11.364  -9.616   4.725  0.00  0.00    -0.017 C 
ATOM     31  C   UNL     1      11.987 -10.207   5.992  0.00  0.00    -0.017 C 
ENDBRANCH  26  29
ENDBRANCH  24  26
ENDBRANCH  23  24
ENDBRANCH   9  23
TORSDOF 7
