REMARK  Name = ZINC39575957
REMARK  7 active torsions:
REMARK  status: ('A' for Active; 'I' for Inactive)
REMARK    1  A    between atoms: C_4  and  C_7
REMARK    2  A    between atoms: C_9  and  C_13
REMARK    3  A    between atoms: C_17  and  S_21
REMARK    4  A    between atoms: N_19  and  N_20
REMARK    5  A    between atoms: S_21  and  C_22
REMARK    6  A    between atoms: C_22  and  C_23
REMARK    7  A    between atoms: C_27  and  C_29
REMARK                            x       y       z     vdW  Elec       q    Type
REMARK                         _______ _______ _______ _____ _____    ______ ____
ROOT
ATOM      1  C   UNL     1       5.763  -2.987  -1.332  0.00  0.00    +0.185 C 
ATOM      2  N   UNL     1       5.573  -2.126  -2.529  0.00  0.00    -0.234 NA
ATOM      3  N   UNL     1       6.519  -2.696  -3.501  0.00  0.00    -0.228 NA
ATOM      4  C   UNL     1       7.700  -3.072  -2.691  0.00  0.00    +0.214 C 
ATOM      5  N   UNL     1       7.218  -3.263  -1.306  0.00  0.00    -0.197 NA
ATOM      6  H   UNL     1       4.625  -2.185  -2.870  0.00  0.00    +0.143 HD
ATOM      7  H   UNL     1       6.124  -3.502  -3.961  0.00  0.00    +0.143 HD
ENDROOT
BRANCH   1  10
ATOM      8  C   UNL     1       3.699  -0.689  -0.037  0.00  0.00    +0.091 C 
ATOM      9  C   UNL     1       3.832  -2.029  -0.051  0.00  0.00    +0.034 C 
ATOM     10  C   UNL     1       5.335  -2.245  -0.065  0.00  0.00    +0.187 C 
ATOM     11  N   UNL     1       5.871  -0.874  -0.056  0.00  0.00    -0.176 NA
ATOM     12  N   UNL     1       4.919  -0.090  -0.047  0.00  0.00    -0.154 NA
BRANCH   8  16
ATOM     13  C   UNL     1      -0.017   1.379   0.010  0.00  0.00    +0.000 A 
ATOM     14  C   UNL     1       1.169   2.092   0.002  0.00  0.00    +0.001 A 
ATOM     15  C   UNL     1       2.377   1.426  -0.013  0.00  0.00    +0.010 A 
ATOM     16  C   UNL     1       2.402   0.033  -0.021  0.00  0.00    +0.002 A 
ATOM     17  C   UNL     1       1.205  -0.680  -0.013  0.00  0.00    +0.010 A 
ATOM     18  C   UNL     1       0.002  -0.004   0.002  0.00  0.00    +0.001 A 
ENDBRANCH   8  16
ENDBRANCH   1  10
BRANCH   5  19
ATOM     19  N   UNL     1       7.484  -4.614  -0.839  0.00  0.00    -0.264 NA
ATOM     20  H   UNL     1       8.476  -4.801  -0.821  0.00  0.00    +0.137 HD
ATOM     21  H   UNL     1       7.070  -4.772   0.067  0.00  0.00    +0.137 HD
ENDBRANCH   5  19
BRANCH   4  22
ATOM     22  S   UNL     1       8.417  -4.617  -3.317  0.00  0.00    -0.119 S 
BRANCH  22  23
ATOM     23  C   UNL     1       7.058  -5.812  -3.193  0.00  0.00    +0.107 C 
BRANCH  23  24
ATOM     24  C   UNL     1       7.525  -7.157  -3.688  0.00  0.00    -0.037 A 
ATOM     25  C   UNL     1       7.392  -7.486  -5.024  0.00  0.00    +0.004 A 
ATOM     26  C   UNL     1       7.821  -8.719  -5.478  0.00  0.00    +0.001 A 
ATOM     27  C   UNL     1       8.382  -9.623  -4.595  0.00  0.00    +0.012 A 
ATOM     28  C   UNL     1       8.516  -9.294  -3.260  0.00  0.00    +0.055 A 
ATOM     29  C   UNL     1       8.091  -8.059  -2.807  0.00  0.00    +0.016 A 
BRANCH  28  30
ATOM     30  C   UNL     1       9.127 -10.280  -2.298  0.00  0.00    +0.417 C 
ATOM     31  F   UNL     1       9.479 -11.446  -2.986  0.00  0.00    -0.166 F 
ATOM     32  F   UNL     1      10.270  -9.718  -1.718  0.00  0.00    -0.166 F 
ATOM     33  F   UNL     1       8.201 -10.591  -1.297  0.00  0.00    -0.166 F 
ENDBRANCH  28  30
ENDBRANCH  23  24
ENDBRANCH  22  23
ENDBRANCH   4  22
TORSDOF 7
