REMARK  Name = ZINC38614896
REMARK  12 active torsions:
REMARK  status: ('A' for Active; 'I' for Inactive)
REMARK    1  A    between atoms: C_1  and  C_2
REMARK    2  A    between atoms: C_2  and  C_3
REMARK    3  A    between atoms: C_2  and  C_4
REMARK    4  A    between atoms: C_2  and  C_5
REMARK    5  A    between atoms: C_8  and  C_11
REMARK    6  A    between atoms: C_12  and  C_13
REMARK    7  A    between atoms: N_15  and  C_16
REMARK    8  A    between atoms: C_16  and  C_17
REMARK    9  A    between atoms: C_17  and  C_19
REMARK   10  A    between atoms: C_17  and  N_27
REMARK   11  A    between atoms: C_22  and  O_25
REMARK   12  A    between atoms: O_25  and  C_26
REMARK                            x       y       z     vdW  Elec       q    Type
REMARK                         _______ _______ _______ _____ _____    ______ ____
ROOT
ATOM      1  C   UNL     1       6.688  -2.281  -7.673  0.00  0.00    +0.094 C 
ENDROOT
BRANCH   1   4
ATOM      2  C   UNL     1       4.713  -2.163  -9.095  0.00  0.00    +0.237 C 
ATOM      3  O   UNL     1       4.203  -3.029  -8.409  0.00  0.00    -0.271 OA
ATOM      4  N   UNL     1       5.954  -1.720  -8.810  0.00  0.00    -0.313 N 
ATOM      5  H   UNL     1       6.360  -1.030  -9.357  0.00  0.00    +0.149 HD
BRANCH   2   7
ATOM      6  C   UNL     1       2.739  -2.045 -10.518  0.00  0.00    +0.013 C 
ATOM      7  C   UNL     1       3.979  -1.602 -10.232  0.00  0.00    +0.068 C 
BRANCH   6  11
ATOM      8  C   UNL     1       0.612  -0.421 -13.809  0.00  0.00    -0.042 A 
ATOM      9  C   UNL     1       0.029  -1.406 -13.031  0.00  0.00    +0.005 A 
ATOM     10  C   UNL     1       0.714  -1.939 -11.960  0.00  0.00    +0.008 A 
ATOM     11  C   UNL     1       2.001  -1.482 -11.660  0.00  0.00    -0.025 A 
ATOM     12  C   UNL     1       2.583  -0.487 -12.451  0.00  0.00    +0.008 A 
ATOM     13  C   UNL     1       1.887   0.033 -13.522  0.00  0.00    +0.005 A 
BRANCH   8  15
ATOM     14  C   UNL     1       0.639  -0.097 -16.267  0.00  0.00    +0.015 C 
ATOM     15  C   UNL     1      -0.144   0.157 -14.978  0.00  0.00    -0.013 C 
ATOM     16  C   UNL     1      -0.321   1.663 -14.777  0.00  0.00    +0.015 C 
ATOM     17  C   UNL     1      -1.518  -0.509 -15.076  0.00  0.00    +0.015 C 
ENDBRANCH   8  15
ENDBRANCH   6  11
ENDBRANCH   2   7
ENDBRANCH   1   4
BRANCH   1  18
ATOM     18  C   UNL     1       8.106  -1.706  -7.648  0.00  0.00    -0.020 C 
BRANCH  18  19
ATOM     19  N   UNL     1       8.812  -2.197  -6.458  0.00  0.00    +0.385 N 
ATOM     20  C   UNL     1       8.119  -1.730  -5.252  0.00  0.00    -0.078 C 
ATOM     21  C   UNL     1       8.803  -2.305  -4.010  0.00  0.00    -0.019 C 
ATOM     22  C   UNL     1      10.262  -1.839  -3.975  0.00  0.00    -0.004 C 
ATOM     23  C   UNL     1      10.955  -2.268  -5.271  0.00  0.00    -0.019 C 
ATOM     24  C   UNL     1      10.191  -1.694  -6.466  0.00  0.00    -0.078 C 
ATOM     25  H   UNL     1       8.824  -3.206  -6.467  0.00  0.00    -0.081 HD
ENDBRANCH  18  19
BRANCH  18  26
ATOM     26  C   UNL     1       8.846  -2.142  -8.887  0.00  0.00    -0.059 A 
ATOM     27  C   UNL     1       9.392  -3.410  -8.954  0.00  0.00    +0.005 A 
ATOM     28  C   UNL     1      10.071  -3.812 -10.088  0.00  0.00    +0.046 A 
ATOM     29  C   UNL     1      10.204  -2.941 -11.160  0.00  0.00    +0.120 A 
ATOM     30  C   UNL     1       9.655  -1.669 -11.090  0.00  0.00    +0.046 A 
ATOM     31  C   UNL     1       8.973  -1.274  -9.956  0.00  0.00    +0.005 A 
BRANCH  29  32
ATOM     32  O   UNL     1      10.873  -3.333 -12.277  0.00  0.00    -0.495 OA
ATOM     33  C   UNL     1      10.971  -2.385 -13.341  0.00  0.00    +0.277 C 
ENDBRANCH  29  32
ENDBRANCH  18  26
ENDBRANCH   1  18
TORSDOF 8
