REMARK  Name = ZINC39303553
REMARK  8 active torsions:
REMARK  status: ('A' for Active; 'I' for Inactive)
REMARK    1  A    between atoms: C_4  and  N_7
REMARK    2  A    between atoms: N_9  and  C_31
REMARK    3  A    between atoms: C_10  and  C_14
REMARK    4  A    between atoms: N_16  and  C_17
REMARK    5  A    between atoms: C_17  and  C_18
REMARK    6  A    between atoms: C_18  and  C_19
REMARK    7  A    between atoms: C_19  and  N_20
REMARK    8  A    between atoms: C_31  and  C_32
REMARK                            x       y       z     vdW  Elec       q    Type
REMARK                         _______ _______ _______ _____ _____    ______ ____
ROOT
ATOM      1  N   UNL     1       4.205  -1.431  -1.108  0.00  0.00    -0.226 NA
ATOM      2  C   UNL     1       4.170  -2.050   0.051  0.00  0.00    +0.158 C 
ATOM      3  N   UNL     1       5.162  -2.795   0.641  0.00  0.00    -0.293 N 
ATOM      4  C   UNL     1       5.083  -3.091   2.058  0.00  0.00    +0.172 C 
ATOM      5  C   UNL     1       3.808  -2.522   2.723  0.00  0.00    +0.109 C 
ATOM      6  S   UNL     1       2.824  -2.108   1.225  0.00  0.00    -0.088 S 
ENDROOT
BRANCH   1  10
ATOM      7  C   UNL     1       0.911   0.708  -2.412  0.00  0.00    +0.000 A 
ATOM      8  C   UNL     1       2.176   1.257  -2.524  0.00  0.00    +0.002 A 
ATOM      9  C   UNL     1       3.279   0.549  -2.091  0.00  0.00    +0.028 A 
ATOM     10  C   UNL     1       3.115  -0.723  -1.539  0.00  0.00    +0.066 A 
ATOM     11  C   UNL     1       1.835  -1.270  -1.429  0.00  0.00    +0.028 A 
ATOM     12  C   UNL     1       0.742  -0.552  -1.867  0.00  0.00    +0.002 A 
ENDBRANCH   1  10
BRANCH   4  13
ATOM     13  C   UNL     1       6.289  -2.504   2.745  0.00  0.00    +0.234 C 
ATOM     14  O   UNL     1       6.850  -1.541   2.267  0.00  0.00    -0.274 OA
ATOM     15  N   UNL     1       6.744  -3.049   3.891  0.00  0.00    -0.314 N 
ATOM     16  H   UNL     1       6.295  -3.819   4.273  0.00  0.00    +0.149 HD
BRANCH  15  17
ATOM     17  C   UNL     1       7.916  -2.478   4.559  0.00  0.00    +0.106 C 
BRANCH  17  18
ATOM     18  C   UNL     1       8.220  -3.277   5.827  0.00  0.00    +0.040 C 
BRANCH  18  19
ATOM     19  C   UNL     1       9.444  -2.681   6.525  0.00  0.00    +0.128 C 
BRANCH  19  20
ATOM     20  N   UNL     1       9.735  -3.446   7.740  0.00  0.00    -0.292 N 
ATOM     21  C   UNL     1       9.220  -3.189   9.008  0.00  0.00    +0.070 A 
ATOM     22  C   UNL     1       8.352  -2.229   9.506  0.00  0.00    +0.028 A 
ATOM     23  C   UNL     1       8.021  -2.231  10.847  0.00  0.00    +0.002 A 
ATOM     24  C   UNL     1       8.551  -3.187  11.695  0.00  0.00    +0.002 A 
ATOM     25  C   UNL     1       9.417  -4.147  11.209  0.00  0.00    +0.028 A 
ATOM     26  C   UNL     1       9.755  -4.153   9.864  0.00  0.00    +0.067 A 
ATOM     27  N   UNL     1      10.579  -4.967   9.089  0.00  0.00    -0.306 N 
ATOM     28  H   UNL     1      11.089  -5.728   9.409  0.00  0.00    +0.170 HD
ATOM     29  C   UNL     1      10.542  -4.521   7.819  0.00  0.00    +0.328 A 
ATOM     30  O   UNL     1      11.148  -5.014   6.886  0.00  0.00    -0.247 OA
ENDBRANCH  19  20
ENDBRANCH  18  19
ENDBRANCH  17  18
ENDBRANCH  15  17
ENDBRANCH   4  13
BRANCH   3  31
ATOM     31  C   UNL     1       6.290  -3.287  -0.155  0.00  0.00    +0.150 C 
BRANCH  31  32
ATOM     32  C   UNL     1       5.927  -4.611  -0.776  0.00  0.00    +0.007 A 
ATOM     33  C   UNL     1       5.389  -4.863  -1.995  0.00  0.00    +0.013 A 
ATOM     34  C   UNL     1       5.138  -6.173  -2.358  0.00  0.00    +0.008 A 
ATOM     35  C   UNL     1       5.437  -7.166  -1.485  0.00  0.00    +0.045 A 
ATOM     36  S   UNL     1       6.102  -6.254  -0.102  0.00  0.00    -0.100 S 
ENDBRANCH  31  32
ENDBRANCH   3  31
TORSDOF 8
