REMARK  Name = ZINC66194877
REMARK  9 active torsions:
REMARK  status: ('A' for Active; 'I' for Inactive)
REMARK    1  A    between atoms: C_1  and  C_2
REMARK    2  A    between atoms: C_5  and  C_8
REMARK    3  A    between atoms: C_8  and  O_9
REMARK    4  A    between atoms: O_9  and  C_10
REMARK    5  A    between atoms: C_13  and  C_16
REMARK    6  A    between atoms: C_16  and  C_17
REMARK    7  A    between atoms: C_17  and  C_19
REMARK    8  A    between atoms: C_17  and  N_20
REMARK    9  A    between atoms: N_23  and  C_24
REMARK                            x       y       z     vdW  Elec       q    Type
REMARK                         _______ _______ _______ _____ _____    ______ ____
ROOT
ATOM      1  C   UNL     1       2.223 -10.308  -0.067  0.00  0.00    +0.057 C 
ENDROOT
BRANCH   1   5
ATOM      2  C   UNL     1       1.608  -6.079  -0.040  0.00  0.00    +0.121 A 
ATOM      3  C   UNL     1       0.520  -6.939  -0.044  0.00  0.00    +0.046 A 
ATOM      4  C   UNL     1       0.721  -8.306  -0.053  0.00  0.00    +0.007 A 
ATOM      5  C   UNL     1       2.006  -8.817  -0.058  0.00  0.00    -0.045 A 
ATOM      6  C   UNL     1       3.092  -7.961  -0.053  0.00  0.00    +0.007 A 
ATOM      7  C   UNL     1       2.896  -6.594  -0.050  0.00  0.00    +0.046 A 
BRANCH   2   8
ATOM      8  O   UNL     1       1.413  -4.734  -0.032  0.00  0.00    -0.487 OA
BRANCH   8   9
ATOM      9  C   UNL     1       0.059  -4.275  -0.021  0.00  0.00    +0.264 C 
BRANCH   9  14
ATOM     10  C   UNL     1      -0.018   1.503   0.010  0.00  0.00    +0.044 C 
ATOM     11  C   UNL     1       0.002  -0.004   0.002  0.00  0.00    -0.050 A 
ATOM     12  C   UNL     1       0.006  -0.689  -1.199  0.00  0.00    +0.004 A 
ATOM     13  C   UNL     1       0.025  -2.071  -1.206  0.00  0.00    +0.007 A 
ATOM     14  C   UNL     1       0.040  -2.768  -0.013  0.00  0.00    -0.010 A 
ATOM     15  C   UNL     1       0.037  -2.084   1.188  0.00  0.00    +0.007 A 
ATOM     16  C   UNL     1       0.023  -0.702   1.195  0.00  0.00    +0.004 A 
ENDBRANCH   9  14
ENDBRANCH   8   9
ENDBRANCH   2   8
ENDBRANCH   1   5
BRANCH   1  17
ATOM     17  C   UNL     1       2.295 -10.804  -1.512  0.00  0.00    +0.076 C 
ATOM     18  C   UNL     1       2.390 -12.331  -1.524  0.00  0.00    +0.028 C 
BRANCH  17  19
ATOM     19  N   UNL     1       3.477 -10.236  -2.165  0.00  0.00    -0.297 N 
ATOM     20  C   UNL     1       3.505 -10.096  -3.505  0.00  0.00    +0.300 C 
ATOM     21  O   UNL     1       2.549 -10.440  -4.172  0.00  0.00    -0.253 OA
ATOM     22  N   UNL     1       4.593  -9.573  -4.105  0.00  0.00    -0.288 N 
ATOM     23  H   UNL     1       4.240  -9.962  -1.632  0.00  0.00    +0.151 HD
ATOM     24  H   UNL     1       5.356  -9.299  -3.573  0.00  0.00    +0.151 HD
BRANCH  22  25
ATOM     25  C   UNL     1       4.624  -9.421  -5.562  0.00  0.00    +0.160 C 
ATOM     26  C   UNL     1       5.596  -8.299  -5.935  0.00  0.00    +0.033 C 
ATOM     27  C   UNL     1       5.822  -8.339  -7.451  0.00  0.00    +0.021 C 
ATOM     28  C   UNL     1       6.582  -9.619  -7.800  0.00  0.00    +0.104 C 
ATOM     29  N   UNL     1       5.928 -10.778  -7.205  0.00  0.00    -0.314 N 
ATOM     30  C   UNL     1       5.069 -10.710  -6.190  0.00  0.00    +0.233 C 
ATOM     31  O   UNL     1       4.620 -11.748  -5.750  0.00  0.00    -0.274 OA
ATOM     32  H   UNL     1       6.133 -11.653  -7.571  0.00  0.00    +0.149 HD
ENDBRANCH  22  25
ENDBRANCH  17  19
ENDBRANCH   1  17
TORSDOF 7
