REMARK  Name = ZINC00284759
REMARK  9 active torsions:
REMARK  status: ('A' for Active; 'I' for Inactive)
REMARK    1  A    between atoms: C_1  and  C_2
REMARK    2  A    between atoms: C_3  and  C_21
REMARK    3  A    between atoms: C_4  and  C_12
REMARK    4  A    between atoms: C_6  and  C_10
REMARK    5  A    between atoms: C_7  and  N_9
REMARK    6  A    between atoms: C_15  and  O_20
REMARK    7  A    between atoms: C_16  and  O_18
REMARK    8  A    between atoms: O_18  and  C_19
REMARK    9  A    between atoms: C_21  and  C_23
REMARK                            x       y       z     vdW  Elec       q    Type
REMARK                         _______ _______ _______ _____ _____    ______ ____
ROOT
ATOM      1  C   UNL     1       3.137   3.237  -0.868  0.00  0.00    +0.086 C 
ATOM      2  C   UNL     1       1.732   2.692  -0.841  0.00  0.00    +0.112 C 
ATOM      3  C   UNL     1       1.461   1.634  -0.059  0.00  0.00    +0.045 C 
ATOM      4  C   UNL     1       0.076   1.049   0.003  0.00  0.00    +0.101 C 
ATOM      5  C   UNL     1      -0.734   1.536  -1.168  0.00  0.00    +0.098 C 
ATOM      6  C   UNL     1      -0.332   2.608  -1.892  0.00  0.00    +0.198 C 
ATOM      7  O   UNL     1       0.796   3.279  -1.599  0.00  0.00    -0.445 OA
ENDROOT
BRANCH   4   8
ATOM      8  C   UNL     1      -0.592   1.475   1.285  0.00  0.00    -0.031 A 
ATOM      9  C   UNL     1      -0.785   2.818   1.548  0.00  0.00    +0.008 A 
ATOM     10  C   UNL     1      -1.397   3.214   2.723  0.00  0.00    +0.049 A 
ATOM     11  C   UNL     1      -1.819   2.263   3.639  0.00  0.00    +0.158 A 
ATOM     12  C   UNL     1      -1.624   0.911   3.373  0.00  0.00    +0.162 A 
ATOM     13  C   UNL     1      -1.014   0.521   2.192  0.00  0.00    +0.054 A 
BRANCH  12  14
ATOM     14  O   UNL     1      -2.036  -0.025   4.269  0.00  0.00    -0.491 OA
ATOM     15  C   UNL     1      -1.804  -1.394   3.930  0.00  0.00    +0.277 C 
ENDBRANCH  12  14
BRANCH  11  16
ATOM     16  O   UNL     1      -2.421   2.651   4.795  0.00  0.00    -0.503 OA
ATOM     17  H   UNL     1      -3.383   2.728   4.730  0.00  0.00    +0.292 HD
ENDBRANCH  11  16
ENDBRANCH   4   8
BRANCH   6  18
ATOM     18  N   UNL     1      -1.097   3.021  -2.954  0.00  0.00    -0.328 N 
ATOM     19  H   UNL     1      -0.821   3.786  -3.482  0.00  0.00    +0.145 HD
ATOM     20  H   UNL     1      -1.913   2.546  -3.178  0.00  0.00    +0.145 HD
ENDBRANCH   6  18
BRANCH   3  21
ATOM     21  C   UNL     1       2.488   1.064   0.716  0.00  0.00    +0.160 C 
ATOM     22  O   UNL     1       3.630   1.462   0.598  0.00  0.00    -0.293 OA
ATOM     23  C   UNL     1       2.172  -0.039   1.692  0.00  0.00    +0.091 C 
ENDBRANCH   3  21
BRANCH   5  24
ATOM     24  C   UNL     1      -1.945   0.858  -1.522  0.00  0.00    +0.101 C 
ATOM     25  N   UNL     1      -2.906   0.320  -1.802  0.00  0.00    -0.191 NA
ENDBRANCH   5  24
TORSDOF 6
