REMARK  Name = ZINC20387713
REMARK  10 active torsions:
REMARK  status: ('A' for Active; 'I' for Inactive)
REMARK    1  A    between atoms: C_1  and  C_2
REMARK    2  A    between atoms: C_2  and  O_3
REMARK    3  A    between atoms: O_3  and  C_4
REMARK    4  A    between atoms: C_7  and  N_10
REMARK    5  A    between atoms: N_10  and  C_11
REMARK    6  A    between atoms: C_11  and  C_12
REMARK    7  A    between atoms: C_25  and  C_28
REMARK    8  A    between atoms: N_30  and  C_31
REMARK    9  A    between atoms: C_36  and  C_41
REMARK   10  A    between atoms: C_38  and  C_40
REMARK                            x       y       z     vdW  Elec       q    Type
REMARK                         _______ _______ _______ _____ _____    ______ ____
ROOT
ATOM      1  C   UNL     1       0.369  -3.026  -0.018  0.00  0.00    +0.043 A 
ATOM      2  C   UNL     1       0.965  -4.236  -0.031  0.00  0.00    +0.025 A 
ATOM      3  C   UNL     1       2.358  -4.021  -0.043  0.00  0.00    +0.020 A 
ATOM      4  C   UNL     1       2.563  -2.688  -0.044  0.00  0.00    +0.093 A 
ATOM      5  N   UNL     1       1.345  -2.070  -0.022  0.00  0.00    -0.297 N 
ATOM      6  C   UNL     1       1.133  -0.690  -0.013  0.00  0.00    +0.202 A 
ATOM      7  N   UNL     1       0.002  -0.004   0.002  0.00  0.00    -0.121 NA
ATOM      8  N   UNL     1      -0.015   1.257   0.009  0.00  0.00    -0.124 NA
ATOM      9  C   UNL     1       1.100   1.973   0.002  0.00  0.00    +0.186 A 
ATOM     10  S   UNL     1       2.313   0.656  -0.017  0.00  0.00    -0.013 S 
ATOM     11  N   UNL     1       1.277   3.350   0.008  0.00  0.00    -0.308 N 
ATOM     12  C   UNL     1       2.097   3.780  -1.132  0.00  0.00    +0.108 C 
ATOM     13  C   UNL     1       2.392   5.277  -1.014  0.00  0.00    +0.032 C 
ATOM     14  C   UNL     1       1.072   6.052  -0.990  0.00  0.00    +0.078 C 
ATOM     15  C   UNL     1       0.216   5.551   0.177  0.00  0.00    +0.032 C 
ATOM     16  C   UNL     1      -0.016   4.046   0.025  0.00  0.00    +0.108 C 
ENDROOT
BRANCH  14  17
ATOM     17  C   UNL     1       1.353   7.522  -0.814  0.00  0.00    +0.216 C 
ATOM     18  O   UNL     1       0.913   8.113   0.149  0.00  0.00    -0.276 OA
ATOM     19  N   UNL     1       2.093   8.180  -1.728  0.00  0.00    -0.312 N 
ATOM     20  H   UNL     1       2.493   7.645  -2.602  0.00  0.00    +0.149 HD
BRANCH  19  21
ATOM     21  C   UNL     1       2.366   9.610  -1.557  0.00  0.00    +0.076 C 
ATOM     22  C   UNL     1       3.587   9.791  -0.652  0.00  0.00    +0.022 C 
ATOM     23  C   UNL     1       3.872  11.284  -0.474  0.00  0.00    +0.002 C 
ATOM     24  C   UNL     1       4.150  11.916  -1.839  0.00  0.00    +0.003 C 
ATOM     25  C   UNL     1       2.930  11.735  -2.744  0.00  0.00    -0.009 C 
ATOM     26  C   UNL     1       2.645  10.242  -2.922  0.00  0.00    +0.009 C 
ATOM     27  C   UNL     1       1.424  10.061  -3.827  0.00  0.00    +0.009 C 
ATOM     28  C   UNL     1       3.208  12.367  -4.109  0.00  0.00    +0.008 C 
ENDBRANCH  19  21
ENDBRANCH  14  17
BRANCH   1  29
ATOM     29  C   UNL     1      -1.116  -2.773  -0.003  0.00  0.00    +0.155 C 
BRANCH  29  30
ATOM     30  N   UNL     1      -1.564  -2.579   1.379  0.00  0.00    -0.338 N 
ATOM     31  H   UNL     1      -0.840  -2.632   2.204  0.00  0.00    +0.146 HD
BRANCH  30  35
ATOM     32  C   UNL     1      -5.585  -1.829   2.180  0.00  0.00    +0.121 A 
ATOM     33  C   UNL     1      -4.672  -1.896   3.221  0.00  0.00    +0.047 A 
ATOM     34  C   UNL     1      -3.339  -2.144   2.957  0.00  0.00    +0.026 A 
ATOM     35  C   UNL     1      -2.914  -2.327   1.648  0.00  0.00    +0.028 A 
ATOM     36  C   UNL     1      -3.829  -2.255   0.605  0.00  0.00    +0.026 A 
ATOM     37  C   UNL     1      -5.162  -2.012   0.872  0.00  0.00    +0.047 A 
BRANCH  32  38
ATOM     38  O   UNL     1      -6.897  -1.584   2.441  0.00  0.00    -0.492 OA
BRANCH  38  40
ATOM     39  C   UNL     1      -9.205  -1.245   1.808  0.00  0.00    +0.048 C 
ATOM     40  C   UNL     1      -7.783  -1.528   1.321  0.00  0.00    +0.225 C 
ENDBRANCH  38  40
ENDBRANCH  32  38
ENDBRANCH  30  35
ENDBRANCH  29  30
ENDBRANCH   1  29
TORSDOF 7
