REMARK  Name = ZINC46767791
REMARK  10 active torsions:
REMARK  status: ('A' for Active; 'I' for Inactive)
REMARK    1  A    between atoms: C_1  and  C_2
REMARK    2  A    between atoms: C_2  and  C_3
REMARK    3  A    between atoms: C_3  and  C_4
REMARK    4  A    between atoms: C_4  and  N_5
REMARK    5  A    between atoms: N_14  and  C_32
REMARK    6  A    between atoms: C_15  and  C_17
REMARK    7  A    between atoms: C_17  and  O_18
REMARK    8  A    between atoms: O_18  and  C_19
REMARK    9  A    between atoms: C_19  and  C_21
REMARK   10  A    between atoms: C_32  and  C_33
REMARK                            x       y       z     vdW  Elec       q    Type
REMARK                         _______ _______ _______ _____ _____    ______ ____
ROOT
ATOM      1  N   UNL     1       1.425  -2.500  -2.470  0.00  0.00    -0.277 N 
ATOM      2  C   UNL     1       0.704  -2.728  -3.632  0.00  0.00    +0.169 A 
ATOM      3  C   UNL     1       1.377  -3.176  -4.761  0.00  0.00    +0.152 A 
ATOM      4  C   UNL     1       2.772  -3.385  -4.694  0.00  0.00    +0.280 A 
ATOM      5  O   UNL     1       3.384  -3.776  -5.671  0.00  0.00    -0.265 OA
ATOM      6  N   UNL     1       3.418  -3.144  -3.534  0.00  0.00    -0.273 N 
ATOM      7  H   UNL     1       4.376  -3.286  -3.483  0.00  0.00    +0.173 HD
ATOM      8  C   UNL     1       2.755  -2.706  -2.450  0.00  0.00    +0.331 A 
ATOM      9  O   UNL     1       3.372  -2.495  -1.423  0.00  0.00    -0.246 OA
ATOM     10  N   UNL     1       0.423  -3.315  -5.750  0.00  0.00    -0.320 N 
ATOM     11  C   UNL     1      -0.758  -2.960  -5.209  0.00  0.00    +0.151 A 
ATOM     12  N   UNL     1      -0.586  -2.614  -3.958  0.00  0.00    -0.211 NA
ENDROOT
BRANCH  10  13
ATOM     13  C   UNL     1       0.653  -3.763  -7.125  0.00  0.00    +0.120 C 
ATOM     14  C   UNL     1       0.509  -5.284  -7.197  0.00  0.00    +0.027 C 
ENDBRANCH  10  13
BRANCH   1  15
ATOM     15  C   UNL     1       0.739  -2.027  -1.265  0.00  0.00    +0.128 C 
BRANCH  15  16
ATOM     16  C   UNL     1       0.718  -0.497  -1.257  0.00  0.00    +0.021 C 
BRANCH  16  18
ATOM     17  C   UNL     1      -0.019   1.526   0.010  0.00  0.00    +0.004 C 
ATOM     18  C   UNL     1       0.002  -0.004   0.002  0.00  0.00    -0.002 C 
ENDBRANCH  16  18
ENDBRANCH  15  16
ENDBRANCH   1  15
BRANCH  11  19
ATOM     19  C   UNL     1      -2.079  -2.959  -5.935  0.00  0.00    +0.306 C 
BRANCH  19  20
ATOM     20  O   UNL     1      -2.706  -4.234  -5.784  0.00  0.00    -0.452 OA
BRANCH  20  21
ATOM     21  C   UNL     1      -3.906  -4.401  -6.378  0.00  0.00    +0.357 C 
ATOM     22  O   UNL     1      -4.405  -3.487  -7.006  0.00  0.00    -0.243 OA
BRANCH  21  23
ATOM     23  C   UNL     1      -4.608  -5.684  -6.265  0.00  0.00    +0.140 A 
ATOM     24  C   UNL     1      -5.815  -5.975  -6.822  0.00  0.00    +0.057 A 
ATOM     25  C   UNL     1      -6.137  -7.311  -6.478  0.00  0.00    +0.014 A 
ATOM     26  C   UNL     1      -7.231  -8.139  -6.762  0.00  0.00    +0.011 A 
ATOM     27  C   UNL     1      -7.259  -9.415  -6.278  0.00  0.00    +0.001 A 
ATOM     28  C   UNL     1      -6.213  -9.902  -5.505  0.00  0.00    +0.002 A 
ATOM     29  C   UNL     1      -5.127  -9.107  -5.213  0.00  0.00    +0.026 A 
ATOM     30  C   UNL     1      -5.075  -7.802  -5.695  0.00  0.00    +0.048 A 
ATOM     31  N   UNL     1      -4.147  -6.794  -5.581  0.00  0.00    -0.348 N 
ATOM     32  H   UNL     1      -3.308  -6.852  -5.098  0.00  0.00    +0.166 HD
ATOM     33 BR   UNL     1      -6.872  -4.806  -7.867  0.00  0.00    -0.047 Br
ENDBRANCH  21  23
ENDBRANCH  20  21
ENDBRANCH  19  20
ENDBRANCH  11  19
TORSDOF 8
