REMARK  Name = ZINC65293355
REMARK  6 active torsions:
REMARK  status: ('A' for Active; 'I' for Inactive)
REMARK    1  A    between atoms: C_1  and  C_2
REMARK    2  A    between atoms: C_7  and  S_8
REMARK    3  A    between atoms: S_8  and  N_11
REMARK    4  A    between atoms: N_15  and  C_18
REMARK    5  A    between atoms: N_22  and  C_25
REMARK    6  A    between atoms: C_25  and  C_26
REMARK                            x       y       z     vdW  Elec       q    Type
REMARK                         _______ _______ _______ _____ _____    ______ ____
ROOT
ATOM      1  N   UNL     1       1.661   1.012   3.011  0.00  0.00    -0.178 NA
ATOM      2  C   UNL     1       2.830   0.269   3.523  0.00  0.00    +0.107 C 
ATOM      3  C   UNL     1       4.123   0.716   2.816  0.00  0.00    -0.001 C 
ATOM      4  C   UNL     1       3.843   0.935   1.346  0.00  0.00    -0.076 C 
ATOM      5  N   UNL     1       3.518   2.342   1.121  0.00  0.00    +0.388 N 
ATOM      6  C   UNL     1       2.152   2.669   1.273  0.00  0.00    -0.060 C 
ATOM      7  C   UNL     1       1.707   2.432   2.730  0.00  0.00    +0.091 C 
ATOM      8  H   UNL     1       4.053   2.900   1.769  0.00  0.00    -0.081 HD
ENDROOT
BRANCH   5   9
ATOM      9  C   UNL     1       3.932   2.701  -0.242  0.00  0.00    +0.021 C 
ATOM     10  C   UNL     1       5.471   2.632  -0.377  0.00  0.00    +0.013 C 
ATOM     11  C   UNL     1       5.877   4.095  -0.090  0.00  0.00    +0.107 C 
ATOM     12  N   UNL     1       4.706   4.904  -0.446  0.00  0.00    -0.299 N 
ATOM     13  C   UNL     1       3.595   4.147  -0.534  0.00  0.00    +0.202 C 
ATOM     14  O   UNL     1       2.488   4.561  -0.807  0.00  0.00    -0.277 OA
BRANCH  12  15
ATOM     15  C   UNL     1       4.739   6.350  -0.678  0.00  0.00    +0.142 C 
BRANCH  15  16
ATOM     16  C   UNL     1       5.013   6.619  -2.135  0.00  0.00    -0.030 A 
ATOM     17  C   UNL     1       6.316   6.745  -2.581  0.00  0.00    +0.008 A 
ATOM     18  C   UNL     1       6.568   6.992  -3.917  0.00  0.00    +0.038 A 
ATOM     19  C   UNL     1       5.516   7.113  -4.809  0.00  0.00    +0.123 A 
ATOM     20  C   UNL     1       4.212   6.986  -4.361  0.00  0.00    +0.038 A 
ATOM     21  C   UNL     1       3.962   6.735  -3.025  0.00  0.00    +0.008 A 
ATOM     22  F   UNL     1       5.761   7.354  -6.116  0.00  0.00    -0.205 F 
ENDBRANCH  15  16
ENDBRANCH  12  15
ENDBRANCH   5   9
BRANCH   1  23
ATOM     23  S   UNL     1       0.248   0.190   2.742  0.00  0.00    +0.061 S 
ATOM     24  O   UNL     1       0.581  -1.191   2.716  0.00  0.00    -0.153 OA
ATOM     25  O   UNL     1      -0.399   0.839   1.656  0.00  0.00    -0.153 OA
BRANCH  23  32
ATOM     26  C   UNL     1       0.895  -0.849   5.508  0.00  0.00    +0.046 C 
ATOM     27  C   UNL     1      -0.394  -0.078   5.382  0.00  0.00    -0.024 A 
ATOM     28  C   UNL     1      -1.193   0.119   6.492  0.00  0.00    +0.005 A 
ATOM     29  C   UNL     1      -2.375   0.826   6.376  0.00  0.00    +0.000 A 
ATOM     30  C   UNL     1      -2.758   1.336   5.149  0.00  0.00    +0.002 A 
ATOM     31  C   UNL     1      -1.959   1.139   4.039  0.00  0.00    +0.029 A 
ATOM     32  C   UNL     1      -0.774   0.436   4.156  0.00  0.00    +0.108 A 
ENDBRANCH  23  32
ENDBRANCH   1  23
TORSDOF 5
