REMARK  Name = ZINC38133688
REMARK  6 active torsions:
REMARK  status: ('A' for Active; 'I' for Inactive)
REMARK    1  A    between atoms: C_1  and  N_2
REMARK    2  A    between atoms: N_2  and  C_3
REMARK    3  A    between atoms: C_3  and  C_5
REMARK    4  A    between atoms: C_3  and  C_15
REMARK    5  A    between atoms: C_5  and  C_6
REMARK    6  A    between atoms: C_9  and  N_12
REMARK                            x       y       z     vdW  Elec       q    Type
REMARK                         _______ _______ _______ _____ _____    ______ ____
ROOT
ATOM      1  C   UNL     1      -1.376  -0.512   0.012  0.00  0.00    -0.035 C 
ENDROOT
BRANCH   1   2
ATOM      2  C   UNL     1      -2.067  -0.116  -1.267  0.00  0.00    -0.041 A 
ATOM      3  C   UNL     1      -1.325   0.130  -2.406  0.00  0.00    +0.003 A 
ATOM      4  C   UNL     1      -1.958   0.494  -3.580  0.00  0.00    +0.002 A 
ATOM      5  C   UNL     1      -3.335   0.612  -3.615  0.00  0.00    +0.021 A 
ATOM      6  C   UNL     1      -4.080   0.366  -2.476  0.00  0.00    +0.059 A 
ATOM      7  C   UNL     1      -3.446  -0.004  -1.302  0.00  0.00    +0.061 A 
ATOM      8 CL   UNL     1      -4.379  -0.321   0.127  0.00  0.00    -0.082 Cl
ATOM      9 CL   UNL     1      -5.809   0.514  -2.520  0.00  0.00    -0.082 Cl
ENDBRANCH   1   2
BRANCH   1  11
ATOM     10  C   UNL     1      -0.018   1.465   0.010  0.00  0.00    -0.100 C 
ATOM     11  N   UNL     1       0.002  -0.004   0.002  0.00  0.00    +0.382 N 
ATOM     12  H   UNL     1       0.474  -0.330  -0.828  0.00  0.00    -0.085 HD
ATOM     13  H   UNL     1       0.490  -0.338   0.820  0.00  0.00    -0.085 HD
ENDBRANCH   1  11
BRANCH   1  14
ATOM     14  C   UNL     1      -1.356  -2.038   0.130  0.00  0.00    +0.024 C 
BRANCH  14  15
ATOM     15  C   UNL     1      -0.776  -2.432   1.464  0.00  0.00    -0.048 A 
ATOM     16  C   UNL     1       0.586  -2.629   1.594  0.00  0.00    +0.006 A 
ATOM     17  C   UNL     1       1.119  -2.990   2.817  0.00  0.00    +0.033 A 
ATOM     18  C   UNL     1       0.289  -3.153   3.911  0.00  0.00    +0.126 A 
ATOM     19  C   UNL     1      -1.073  -2.954   3.781  0.00  0.00    +0.033 A 
ATOM     20  C   UNL     1      -1.605  -2.589   2.559  0.00  0.00    +0.006 A 
BRANCH  18  21
ATOM     21  N   UNL     1       0.859  -3.541   5.221  0.00  0.00    +0.056 N 
ATOM     22  O   UNL     1       2.050  -3.715   5.335  0.00  0.00    -0.126 OA
ATOM     23  O   UNL     1       0.133  -3.683   6.178  0.00  0.00    -0.126 OA
ENDBRANCH  18  21
ENDBRANCH  14  15
ENDBRANCH   1  14
TORSDOF 5
