REMARK  Name = ZINC58990206
REMARK  10 active torsions:
REMARK  status: ('A' for Active; 'I' for Inactive)
REMARK    1  A    between atoms: C_3  and  O_29
REMARK    2  A    between atoms: C_4  and  C_8
REMARK    3  A    between atoms: N_9  and  N_10
REMARK    4  A    between atoms: C_11  and  C_13
REMARK    5  A    between atoms: C_13  and  C_14
REMARK    6  A    between atoms: C_14  and  C_15
REMARK    7  A    between atoms: C_15  and  S_16
REMARK    8  A    between atoms: S_16  and  C_17
REMARK    9  A    between atoms: C_20  and  C_23
REMARK   10  A    between atoms: N_21  and  N_22
REMARK                            x       y       z     vdW  Elec       q    Type
REMARK                         _______ _______ _______ _____ _____    ______ ____
ROOT
ATOM      1  C   UNL     1       9.651   0.259  -0.092  0.00  0.00    +0.020 C 
ENDROOT
BRANCH   1   2
ATOM      2  C   UNL     1       8.503  -0.752  -0.086  0.00  0.00    +0.098 C 
BRANCH   2   4
ATOM      3  N   UNL     1       6.030  -0.708  -0.061  0.00  0.00    -0.207 N 
ATOM      4  C   UNL     1       7.187  -0.017  -0.069  0.00  0.00    +0.232 C 
ATOM      5  O   UNL     1       7.170   1.196  -0.062  0.00  0.00    -0.274 OA
ATOM      6  H   UNL     1       6.043  -1.678  -0.066  0.00  0.00    +0.177 HD
BRANCH   3   8
ATOM      7  C   UNL     1       3.692  -0.690  -0.037  0.00  0.00    +0.142 C 
ATOM      8  N   UNL     1       4.806  -0.025  -0.045  0.00  0.00    -0.188 NA
BRANCH   7  12
ATOM      9  C   UNL     1      -0.017   1.381   0.010  0.00  0.00    +0.023 A 
ATOM     10  C   UNL     1       1.166   2.096   0.002  0.00  0.00    +0.047 A 
ATOM     11  C   UNL     1       2.381   1.430  -0.013  0.00  0.00    +0.126 A 
ATOM     12  C   UNL     1       2.405   0.029  -0.021  0.00  0.00    +0.037 A 
ATOM     13  C   UNL     1       1.204  -0.683  -0.013  0.00  0.00    +0.033 A 
ATOM     14  C   UNL     1       0.002  -0.004   0.002  0.00  0.00    +0.042 A 
ATOM     15 CL   UNL     1      -1.491  -0.889   0.012  0.00  0.00    -0.084 Cl
BRANCH  11  16
ATOM     16  O   UNL     1       3.543   2.132  -0.021  0.00  0.00    -0.506 OA
ATOM     17  H   UNL     1       3.888   2.331   0.860  0.00  0.00    +0.292 HD
ENDBRANCH  11  16
ENDBRANCH   7  12
ENDBRANCH   3   8
ENDBRANCH   2   4
ENDBRANCH   1   2
BRANCH   1  18
ATOM     18  C   UNL     1      10.987  -0.487  -0.109  0.00  0.00    +0.078 C 
BRANCH  18  19
ATOM     19  S   UNL     1      12.349   0.712  -0.116  0.00  0.00    -0.084 S 
BRANCH  19  20
ATOM     20  C   UNL     1      13.798  -0.290  -0.136  0.00  0.00    +0.209 A 
ATOM     21  N   UNL     1      13.838  -1.605  -0.149  0.00  0.00    -0.121 NA
ATOM     22  N   UNL     1      15.057  -2.009  -0.162  0.00  0.00    -0.127 NA
ATOM     23  C   UNL     1      15.871  -0.978  -0.158  0.00  0.00    +0.182 A 
ATOM     24  N   UNL     1      15.088   0.154  -0.146  0.00  0.00    -0.224 N 
BRANCH  23  25
ATOM     25  C   UNL     1      17.348  -1.025  -0.169  0.00  0.00    +0.024 A 
ATOM     26  C   UNL     1      18.106   0.107   0.154  0.00  0.00    +0.031 A 
ATOM     27  C   UNL     1      19.482   0.019   0.131  0.00  0.00    +0.111 A 
ATOM     28  N   UNL     1      20.083  -1.111  -0.189  0.00  0.00    -0.263 NA
ATOM     29  C   UNL     1      19.407  -2.201  -0.499  0.00  0.00    +0.111 A 
ATOM     30  C   UNL     1      18.028  -2.204  -0.496  0.00  0.00    +0.031 A 
ENDBRANCH  23  25
BRANCH  24  31
ATOM     31  N   UNL     1      15.515   1.452  -0.143  0.00  0.00    -0.295 N 
ATOM     32  H   UNL     1      15.638   1.790   0.800  0.00  0.00    +0.163 HD
ATOM     33  H   UNL     1      16.364   1.555  -0.677  0.00  0.00    +0.163 HD
ENDBRANCH  24  31
ENDBRANCH  19  20
ENDBRANCH  18  19
ENDBRANCH   1  18
TORSDOF 10
