REMARK  Name = ZINC36972429
REMARK  6 active torsions:
REMARK  status: ('A' for Active; 'I' for Inactive)
REMARK    1  A    between atoms: C_1  and  C_2
REMARK    2  A    between atoms: C_2  and  C_4
REMARK    3  A    between atoms: C_2  and  N_7
REMARK    4  A    between atoms: N_7  and  C_8
REMARK    5  A    between atoms: C_11  and  C_14
REMARK    6  A    between atoms: N_18  and  C_19
REMARK                            x       y       z     vdW  Elec       q    Type
REMARK                         _______ _______ _______ _____ _____    ______ ____
ROOT
ATOM      1  C   UNL     1      -2.743   0.101  -0.991  0.00  0.00    +0.027 A 
ATOM      2  C   UNL     1      -2.031   0.400  -2.148  0.00  0.00    +0.023 A 
ATOM      3  C   UNL     1      -2.551   0.075  -3.381  0.00  0.00    +0.013 A 
ATOM      4  C   UNL     1      -3.794  -0.555  -3.470  0.00  0.00    +0.019 A 
ATOM      5  C   UNL     1      -4.506  -0.853  -2.307  0.00  0.00    +0.013 A 
ATOM      6  C   UNL     1      -3.979  -0.530  -1.076  0.00  0.00    +0.023 A 
ENDROOT
BRANCH   4   7
ATOM      7  C   UNL     1      -4.355  -0.904  -4.792  0.00  0.00    +0.164 A 
ATOM      8  N   UNL     1      -4.021  -0.375  -5.949  0.00  0.00    -0.129 NA
ATOM      9  N   UNL     1      -4.710  -0.916  -6.889  0.00  0.00    -0.138 NA
ATOM     10  C   UNL     1      -5.516  -1.815  -6.394  0.00  0.00    +0.225 A 
ATOM     11  N   UNL     1      -5.317  -1.844  -5.047  0.00  0.00    -0.317 N 
ATOM     12  C   UNL     1      -5.994  -2.702  -4.071  0.00  0.00    +0.152 C 
ENDBRANCH   4   7
BRANCH   1  13
ATOM     13  N   UNL     1      -2.214   0.431   0.257  0.00  0.00    -0.341 N 
ATOM     14  H   UNL     1      -2.708   0.220   1.064  0.00  0.00    +0.146 HD
BRANCH  13  16
ATOM     15  C   UNL     1      -1.100   2.607   0.191  0.00  0.00    +0.028 C 
ATOM     16  C   UNL     1      -0.912   1.097   0.347  0.00  0.00    +0.070 C 
BRANCH  16  17
ATOM     17  C   UNL     1      -0.281   0.800   1.709  0.00  0.00    +0.009 C 
ATOM     18  C   UNL     1      -0.154   1.961   2.697  0.00  0.00    +0.005 C 
ATOM     19  C   UNL     1       1.091   1.410   2.000  0.00  0.00    +0.005 C 
ENDBRANCH  16  17
ENDBRANCH  13  16
ENDBRANCH   1  13
TORSDOF 4
