REMARK  Name = ZINC04333701
REMARK  4 active torsions:
REMARK  status: ('A' for Active; 'I' for Inactive)
REMARK    1  A    between atoms: C_4  and  N_7
REMARK    2  A    between atoms: N_9  and  C_10
REMARK    3  A    between atoms: C_10  and  C_16
REMARK    4  A    between atoms: C_22  and  O_24
REMARK                            x       y       z     vdW  Elec       q    Type
REMARK                         _______ _______ _______ _____ _____    ______ ____
ROOT
ATOM      1  C   UNL     1       5.028  -4.134  -0.183  0.00  0.00    +0.045 C 
ATOM      2  C   UNL     1       4.325  -4.562  -1.472  0.00  0.00    +0.028 C 
ATOM      3  C   UNL     1       2.877  -4.069  -1.452  0.00  0.00    +0.002 C 
ATOM      4  C   UNL     1       2.149  -4.674  -0.249  0.00  0.00    +0.000 C 
ATOM      5  C   UNL     1       2.852  -4.245   1.040  0.00  0.00    +0.002 C 
ATOM      6  C   UNL     1       4.301  -4.738   1.020  0.00  0.00    +0.028 C 
ENDROOT
BRANCH   1   9
ATOM      7  N   UNL     1       5.384  -0.708   1.189  0.00  0.00    -0.295 N 
ATOM      8  C   UNL     1       5.522  -2.060   1.030  0.00  0.00    +0.143 C 
ATOM      9  N   UNL     1       5.011  -2.673  -0.080  0.00  0.00    -0.361 N 
ATOM     10  S   UNL     1       6.310  -2.955   2.184  0.00  0.00    -0.016 SA
ATOM     11  H   UNL     1       4.656  -0.240   0.751  0.00  0.00    +0.154 HD
ATOM     12  H   UNL     1       4.637  -2.140  -0.799  0.00  0.00    +0.162 HD
BRANCH   7  16
ATOM     13  C   UNL     1       8.090   1.398   3.555  0.00  0.00    +0.000 A 
ATOM     14  C   UNL     1       8.521   0.313   2.813  0.00  0.00    +0.002 A 
ATOM     15  C   UNL     1       7.626  -0.387   2.028  0.00  0.00    +0.023 A 
ATOM     16  C   UNL     1       6.293  -0.001   1.984  0.00  0.00    +0.033 A 
ATOM     17  C   UNL     1       5.863   1.089   2.730  0.00  0.00    +0.023 A 
ATOM     18  C   UNL     1       6.763   1.785   3.513  0.00  0.00    +0.002 A 
ENDBRANCH   7  16
ENDBRANCH   1   9
BRANCH   1  19
ATOM     19  C   UNL     1       6.476  -4.627  -0.203  0.00  0.00    +0.043 C 
ATOM     20  C   UNL     1       6.494  -6.157  -0.220  0.00  0.00    +0.008 C 
ATOM     21  C   UNL     1       7.942  -6.650  -0.241  0.00  0.00    +0.001 C 
ATOM     22  C   UNL     1       8.645  -6.117  -1.491  0.00  0.00    +0.003 C 
ATOM     23  C   UNL     1       8.627  -4.588  -1.474  0.00  0.00    +0.032 C 
ATOM     24  C   UNL     1       7.179  -4.095  -1.454  0.00  0.00    +0.120 C 
BRANCH  24  25
ATOM     25  O   UNL     1       7.162  -2.666  -1.438  0.00  0.00    -0.391 OA
ATOM     26  H   UNL     1       7.591  -2.259  -2.203  0.00  0.00    +0.210 HD
ENDBRANCH  24  25
ENDBRANCH   1  19
TORSDOF 4
