REMARK  Name = ZINC38725689
REMARK  14 active torsions:
REMARK  status: ('A' for Active; 'I' for Inactive)
REMARK    1  A    between atoms: C_1  and  C_2
REMARK    2  A    between atoms: C_2  and  N_3
REMARK    3  A    between atoms: N_3  and  C_4
REMARK    4  A    between atoms: N_3  and  C_6
REMARK    5  A    between atoms: C_4  and  C_5
REMARK    6  A    between atoms: C_6  and  C_7
REMARK    7  A    between atoms: C_7  and  C_8
REMARK    8  A    between atoms: C_8  and  N_9
REMARK    9  A    between atoms: C_10  and  C_27
REMARK   10  A    between atoms: C_18  and  O_25
REMARK   11  A    between atoms: O_25  and  C_26
REMARK   12  A    between atoms: C_31  and  O_33
REMARK   13  A    between atoms: O_33  and  C_34
REMARK   14  A    between atoms: C_34  and  C_35
REMARK                            x       y       z     vdW  Elec       q    Type
REMARK                         _______ _______ _______ _____ _____    ______ ____
ROOT
ATOM      1  N   UNL     1       3.163  -3.820  -1.556  0.00  0.00    -0.284 N 
ATOM      2  C   UNL     1       2.652  -4.124  -2.903  0.00  0.00    +0.145 C 
ATOM      3  C   UNL     1       3.858  -4.260  -3.774  0.00  0.00    +0.072 A 
ATOM      4  C   UNL     1       3.987  -4.565  -5.204  0.00  0.00    +0.199 A 
ATOM      5  O   UNL     1       3.039  -4.593  -5.969  0.00  0.00    -0.287 OA
ATOM      6  C   UNL     1       5.382  -4.837  -5.629  0.00  0.00    +0.065 A 
ATOM      7  C   UNL     1       5.645  -5.336  -6.906  0.00  0.00    +0.019 A 
ATOM      8  C   UNL     1       6.933  -5.586  -7.284  0.00  0.00    +0.046 A 
ATOM      9  C   UNL     1       7.982  -5.347  -6.398  0.00  0.00    +0.124 A 
ATOM     10  C   UNL     1       7.737  -4.851  -5.130  0.00  0.00    +0.092 A 
ATOM     11  C   UNL     1       6.431  -4.586  -4.727  0.00  0.00    +0.143 A 
ATOM     12  O   UNL     1       6.215  -4.092  -3.486  0.00  0.00    -0.449 OA
ATOM     13  C   UNL     1       4.960  -4.047  -2.997  0.00  0.00    +0.199 A 
ATOM     14  C   UNL     1       4.509  -3.772  -1.621  0.00  0.00    +0.283 C 
ATOM     15  O   UNL     1       5.243  -3.540  -0.682  0.00  0.00    -0.267 OA
ENDROOT
BRANCH   2  16
ATOM     16  C   UNL     1       1.778  -2.998  -3.394  0.00  0.00    -0.019 A 
ATOM     17  C   UNL     1       2.140  -1.686  -3.150  0.00  0.00    +0.006 A 
ATOM     18  C   UNL     1       1.340  -0.652  -3.599  0.00  0.00    +0.004 A 
ATOM     19  C   UNL     1       0.177  -0.927  -4.293  0.00  0.00    +0.045 A 
ATOM     20  C   UNL     1      -0.188  -2.242  -4.539  0.00  0.00    +0.121 A 
ATOM     21  C   UNL     1       0.620  -3.279  -4.092  0.00  0.00    +0.051 A 
BRANCH  20  22
ATOM     22  O   UNL     1      -1.331  -2.515  -5.221  0.00  0.00    -0.488 OA
BRANCH  22  23
ATOM     23  C   UNL     1      -2.110  -1.399  -5.655  0.00  0.00    +0.256 C 
BRANCH  23  24
ATOM     24  C   UNL     1      -3.330  -1.892  -6.388  0.00  0.00    +0.006 C 
ATOM     25  C   UNL     1      -4.503  -1.365  -6.137  0.00  0.00    +0.007 C 
ENDBRANCH  23  24
ENDBRANCH  22  23
ENDBRANCH  20  22
ENDBRANCH   2  16
BRANCH   9  26
ATOM     26  O   UNL     1       9.258  -5.603  -6.783  0.00  0.00    -0.495 OA
ATOM     27  C   UNL     1       9.447  -6.114  -8.104  0.00  0.00    +0.277 C 
ENDBRANCH   9  26
BRANCH   1  28
ATOM     28  C   UNL     1       2.350  -3.601  -0.357  0.00  0.00    +0.107 C 
BRANCH  28  29
ATOM     29  C   UNL     1       2.004  -2.115  -0.240  0.00  0.00    +0.000 C 
BRANCH  29  30
ATOM     30  C   UNL     1       1.155  -1.887   1.013  0.00  0.00    -0.077 C 
BRANCH  30  31
ATOM     31  N   UNL     1       0.823  -0.461   1.126  0.00  0.00    +0.379 N 
ATOM     32  H   UNL     1       1.671   0.085   1.109  0.00  0.00    -0.082 HD
BRANCH  31  34
ATOM     33  C   UNL     1      -0.264   1.445   0.037  0.00  0.00    -0.017 C 
ATOM     34  C   UNL     1      -0.034  -0.067  -0.001  0.00  0.00    -0.082 C 
ENDBRANCH  31  34
BRANCH  31  35
ATOM     35  C   UNL     1       0.111  -0.222   2.389  0.00  0.00    -0.082 C 
ATOM     36  C   UNL     1       1.053  -0.495   3.563  0.00  0.00    -0.017 C 
ENDBRANCH  31  35
ENDBRANCH  30  31
ENDBRANCH  29  30
ENDBRANCH  28  29
ENDBRANCH   1  28
TORSDOF 11
