REMARK  Name = ZINC21698892
REMARK  11 active torsions:
REMARK  status: ('A' for Active; 'I' for Inactive)
REMARK    1  A    between atoms: C_1  and  C_2
REMARK    2  A    between atoms: C_3  and  N_14
REMARK    3  A    between atoms: C_4  and  C_13
REMARK    4  A    between atoms: N_5  and  C_7
REMARK    5  A    between atoms: C_15  and  C_17
REMARK    6  A    between atoms: C_17  and  N_18
REMARK    7  A    between atoms: N_18  and  C_19
REMARK    8  A    between atoms: C_24  and  C_25
REMARK    9  A    between atoms: C_25  and  N_26
REMARK   10  A    between atoms: N_26  and  C_27
REMARK   11  A    between atoms: N_26  and  C_28
REMARK                            x       y       z     vdW  Elec       q    Type
REMARK                         _______ _______ _______ _____ _____    ______ ____
ROOT
ATOM      1  C   UNL     1       1.378   9.362   1.169  0.00  0.00    +0.198 C 
ENDROOT
BRANCH   1   3
ATOM      2  N   UNL     1       1.818   6.948   0.857  0.00  0.00    -0.281 N 
ATOM      3  C   UNL     1       0.944   7.971   0.783  0.00  0.00    +0.234 C 
ATOM      4  O   UNL     1      -0.192   7.773   0.407  0.00  0.00    -0.274 OA
ATOM      5  H   UNL     1       2.826   7.114   1.264  0.00  0.00    +0.155 HD
BRANCH   2   8
ATOM      6  C   UNL     1       1.401   6.170  -2.131  0.00  0.00    +0.069 C 
ATOM      7  C   UNL     1       1.244   5.281  -0.923  0.00  0.00    +0.082 A 
ATOM      8  C   UNL     1       1.441   5.667   0.411  0.00  0.00    +0.078 A 
ATOM      9  C   UNL     1       1.198   4.587   1.197  0.00  0.00    +0.063 A 
ATOM     10  N   UNL     1       0.867   3.551   0.379  0.00  0.00    -0.235 N 
ATOM     11  N   UNL     1       0.902   4.018  -0.941  0.00  0.00    -0.170 NA
ATOM     12  C   UNL     1       1.281   4.543   2.701  0.00  0.00    +0.068 C 
BRANCH  10  13
ATOM     13  C   UNL     1       0.544   2.250   0.785  0.00  0.00    +0.066 A 
ATOM     14  C   UNL     1      -0.415   1.523   0.093  0.00  0.00    +0.028 A 
ATOM     15  C   UNL     1      -0.732   0.240   0.496  0.00  0.00    +0.002 A 
ATOM     16  C   UNL     1      -0.094  -0.321   1.587  0.00  0.00    +0.000 A 
ATOM     17  C   UNL     1       0.862   0.401   2.279  0.00  0.00    +0.002 A 
ATOM     18  C   UNL     1       1.182   1.684   1.881  0.00  0.00    +0.028 A 
ENDBRANCH  10  13
ENDBRANCH   2   8
ENDBRANCH   1   3
BRANCH   1  19
ATOM     19  N   UNL     1       0.254  10.287   1.004  0.00  0.00    -0.335 N 
ATOM     20  H   UNL     1      -0.717   9.915   0.645  0.00  0.00    +0.147 HD
BRANCH  19  21
ATOM     21  C   UNL     1       0.416  11.642   1.302  0.00  0.00    +0.029 A 
ATOM     22  C   UNL     1       1.640  12.113   1.760  0.00  0.00    +0.023 A 
ATOM     23  C   UNL     1       1.798  13.454   2.049  0.00  0.00    +0.002 A 
ATOM     24  C   UNL     1       0.736  14.327   1.892  0.00  0.00    +0.000 A 
ATOM     25  C   UNL     1      -0.485  13.861   1.441  0.00  0.00    +0.003 A 
ATOM     26  C   UNL     1      -0.648  12.521   1.145  0.00  0.00    -0.043 A 
BRANCH  26  27
ATOM     27  C   UNL     1      -1.979  12.014   0.652  0.00  0.00    -0.041 C 
BRANCH  27  28
ATOM     28  N   UNL     1      -2.707  11.389   1.765  0.00  0.00    +0.382 N 
ATOM     29  C   UNL     1      -3.068  12.384   2.783  0.00  0.00    -0.095 C 
ATOM     30  H   UNL     1      -2.039  10.652   2.234  0.00  0.00    -0.081 HD
BRANCH  28  31
ATOM     31  C   UNL     1      -3.897  10.677   1.281  0.00  0.00    -0.069 C 
ATOM     32  C   UNL     1      -4.887  11.681   0.687  0.00  0.00    -0.015 C 
ATOM     33  C   UNL     1      -6.126  10.939   0.183  0.00  0.00    -0.002 C 
ATOM     34  C   UNL     1      -6.787  10.200   1.348  0.00  0.00    -0.000 C 
ATOM     35  C   UNL     1      -5.797   9.195   1.942  0.00  0.00    -0.002 C 
ATOM     36  C   UNL     1      -4.558   9.937   2.446  0.00  0.00    -0.015 C 
ENDBRANCH  28  31
ENDBRANCH  27  28
ENDBRANCH  26  27
ENDBRANCH  19  21
ENDBRANCH   1  19
TORSDOF 8
