REMARK  Name = ZINC12305272
REMARK  6 active torsions:
REMARK  status: ('A' for Active; 'I' for Inactive)
REMARK    1  A    between atoms: C_1  and  C_2
REMARK    2  A    between atoms: C_7  and  N_8
REMARK    3  A    between atoms: N_11  and  C_14
REMARK    4  A    between atoms: C_21  and  C_23
REMARK    5  A    between atoms: C_23  and  C_24
REMARK    6  A    between atoms: C_24  and  N_25
REMARK                            x       y       z     vdW  Elec       q    Type
REMARK                         _______ _______ _______ _____ _____    ______ ____
ROOT
ATOM      1  C   UNL     1      -0.011   3.513   4.663  0.00  0.00    -0.051 C 
ATOM      2  C   UNL     1       1.245   3.811   5.485  0.00  0.00    -0.012 C 
ATOM      3  C   UNL     1       1.242   5.282   5.909  0.00  0.00    +0.017 C 
ATOM      4  C   UNL     1       0.015   5.553   6.785  0.00  0.00    +0.107 C 
ATOM      5  N   UNL     1      -1.190   5.133   6.056  0.00  0.00    -0.303 N 
ATOM      6  C   UNL     1      -1.252   3.764   5.524  0.00  0.00    +0.092 C 
ATOM      7  C   UNL     1      -2.217   5.986   5.878  0.00  0.00    +0.217 C 
ATOM      8  O   UNL     1      -3.206   5.627   5.274  0.00  0.00    -0.276 OA
ENDROOT
BRANCH   1  12
ATOM      9  N   UNL     1       0.025  -0.016   2.415  0.00  0.00    -0.333 N 
ATOM     10  C   UNL     1      -1.235   0.335   3.088  0.00  0.00    +0.086 C 
ATOM     11  C   UNL     1      -1.198   1.825   3.443  0.00  0.00    -0.059 C 
ATOM     12  N   UNL     1       0.009   2.109   4.230  0.00  0.00    +0.385 N 
ATOM     13  C   UNL     1       1.206   1.867   3.415  0.00  0.00    -0.059 C 
ATOM     14  C   UNL     1       1.288   0.374   3.061  0.00  0.00    +0.086 C 
ATOM     15  H   UNL     1       0.029   1.510   5.041  0.00  0.00    -0.081 HD
BRANCH   9  22
ATOM     16  C   UNL     1      -0.018   1.503   0.010  0.00  0.00    +0.045 C 
ATOM     17  C   UNL     1       0.002  -0.004   0.002  0.00  0.00    -0.029 A 
ATOM     18  C   UNL     1       0.006  -0.689  -1.198  0.00  0.00    +0.005 A 
ATOM     19  C   UNL     1       0.024  -2.071  -1.206  0.00  0.00    +0.000 A 
ATOM     20  C   UNL     1       0.039  -2.773  -0.014  0.00  0.00    +0.002 A 
ATOM     21  C   UNL     1       0.036  -2.095   1.188  0.00  0.00    +0.023 A 
ATOM     22  C   UNL     1       0.023  -0.706   1.200  0.00  0.00    +0.033 A 
ENDBRANCH   9  22
ENDBRANCH   1  12
BRANCH   7  23
ATOM     23  C   UNL     1      -2.139   7.387   6.429  0.00  0.00    +0.113 C 
BRANCH  23  24
ATOM     24  C   UNL     1      -3.426   8.141   6.091  0.00  0.00    +0.124 C 
BRANCH  24  25
ATOM     25  N   UNL     1      -3.349   9.506   6.628  0.00  0.00    -0.187 NA
ATOM     26  C   UNL     1      -4.520  10.298   6.224  0.00  0.00    +0.115 C 
ATOM     27  C   UNL     1      -4.382  11.720   6.775  0.00  0.00    +0.020 C 
ATOM     28  C   UNL     1      -4.249  11.658   8.300  0.00  0.00    +0.031 C 
ATOM     29  C   UNL     1      -3.044  10.787   8.664  0.00  0.00    +0.185 C 
ATOM     30  O   UNL     1      -3.208   9.489   8.085  0.00  0.00    -0.297 OA
ENDBRANCH  24  25
ENDBRANCH  23  24
ENDBRANCH   7  23
TORSDOF 5
