REMARK  Name = ZINC04637258
REMARK  5 active torsions:
REMARK  status: ('A' for Active; 'I' for Inactive)
REMARK    1  A    between atoms: C_1  and  C_2
REMARK    2  A    between atoms: C_3  and  C_27
REMARK    3  A    between atoms: C_4  and  C_21
REMARK    4  A    between atoms: C_10  and  C_15
REMARK    5  A    between atoms: N_29  and  C_30
REMARK                            x       y       z     vdW  Elec       q    Type
REMARK                         _______ _______ _______ _____ _____    ______ ____
ROOT
ATOM      1  C   UNL     1       0.846  -1.067  -3.209  0.00  0.00    +0.061 C 
ATOM      2  C   UNL     1       0.962  -0.041  -2.111  0.00  0.00    +0.014 C 
ATOM      3  C   UNL     1      -0.110   0.253  -1.357  0.00  0.00    +0.043 C 
ATOM      4  C   UNL     1      -0.035   1.275  -0.261  0.00  0.00    +0.090 C 
ATOM      5  C   UNL     1       1.397   1.550   0.126  0.00  0.00    +0.024 C 
ATOM      6  C   UNL     1       2.411   1.199  -0.693  0.00  0.00    +0.016 C 
ATOM      7  N   UNL     1       2.158   0.585  -1.890  0.00  0.00    -0.321 N 
ATOM      8  C   UNL     1       3.846   1.468  -0.312  0.00  0.00    +0.059 C 
ATOM      9  C   UNL     1       3.919   2.724   0.560  0.00  0.00    +0.032 C 
ATOM     10  C   UNL     1       3.044   2.506   1.799  0.00  0.00    +0.088 C 
ATOM     11  C   UNL     1       1.643   2.182   1.357  0.00  0.00    +0.162 C 
ATOM     12  O   UNL     1       0.708   2.471   2.077  0.00  0.00    -0.292 OA
ATOM     13  H   UNL     1       2.926   0.597  -2.677  0.00  0.00    +0.152 HD
ENDROOT
BRANCH   9  14
ATOM     14  C   UNL     1       5.346   2.964   0.983  0.00  0.00    -0.044 A 
ATOM     15  C   UNL     1       6.016   2.010   1.726  0.00  0.00    +0.004 A 
ATOM     16  C   UNL     1       7.325   2.228   2.111  0.00  0.00    +0.000 A 
ATOM     17  C   UNL     1       7.962   3.404   1.761  0.00  0.00    +0.000 A 
ATOM     18  C   UNL     1       7.290   4.360   1.022  0.00  0.00    +0.000 A 
ATOM     19  C   UNL     1       5.982   4.140   0.634  0.00  0.00    +0.004 A 
ENDBRANCH   9  14
BRANCH   4  20
ATOM     20  C   UNL     1      -0.674   2.555  -0.735  0.00  0.00    -0.035 A 
ATOM     21  C   UNL     1      -0.158   3.221  -1.831  0.00  0.00    +0.004 A 
ATOM     22  C   UNL     1      -0.747   4.393  -2.268  0.00  0.00    +0.000 A 
ATOM     23  C   UNL     1      -1.846   4.903  -1.603  0.00  0.00    +0.000 A 
ATOM     24  C   UNL     1      -2.359   4.240  -0.504  0.00  0.00    +0.000 A 
ATOM     25  C   UNL     1      -1.773   3.066  -0.070  0.00  0.00    +0.004 A 
ENDBRANCH   4  20
BRANCH   3  26
ATOM     26  C   UNL     1      -1.336  -0.415  -1.601  0.00  0.00    +0.247 C 
ATOM     27  O   UNL     1      -1.410  -1.246  -2.487  0.00  0.00    -0.270 OA
ATOM     28  N   UNL     1      -2.419  -0.130  -0.851  0.00  0.00    -0.277 N 
ATOM     29  H   UNL     1      -2.332   0.558   0.002  0.00  0.00    +0.155 HD
BRANCH  28  30
ATOM     30  C   UNL     1      -3.656  -0.711  -1.159  0.00  0.00    +0.105 A 
ATOM     31  C   UNL     1      -4.518  -0.084  -2.051  0.00  0.00    +0.147 A 
ATOM     32  C   UNL     1      -5.736  -0.664  -2.357  0.00  0.00    +0.040 A 
ATOM     33  C   UNL     1      -6.102  -1.860  -1.768  0.00  0.00    +0.006 A 
ATOM     34  C   UNL     1      -5.250  -2.484  -0.875  0.00  0.00    +0.040 A 
ATOM     35  C   UNL     1      -4.027  -1.914  -0.569  0.00  0.00    +0.147 A 
ATOM     36  F   UNL     1      -3.196  -2.524   0.304  0.00  0.00    -0.203 F 
ATOM     37  F   UNL     1      -4.164   1.088  -2.623  0.00  0.00    -0.203 F 
ENDBRANCH  28  30
ENDBRANCH   3  26
TORSDOF 4
