REMARK  Name = ZINC39915825
REMARK  11 active torsions:
REMARK  status: ('A' for Active; 'I' for Inactive)
REMARK    1  A    between atoms: C_1  and  C_2
REMARK    2  A    between atoms: C_2  and  C_3
REMARK    3  A    between atoms: C_3  and  C_4
REMARK    4  A    between atoms: C_4  and  N_5
REMARK    5  A    between atoms: C_13  and  S_14
REMARK    6  A    between atoms: S_14  and  C_15
REMARK    7  A    between atoms: C_17  and  O_30
REMARK    8  A    between atoms: C_19  and  O_29
REMARK    9  A    between atoms: C_21  and  O_28
REMARK   10  A    between atoms: C_23  and  C_26
REMARK   11  A    between atoms: C_26  and  O_27
REMARK                            x       y       z     vdW  Elec       q    Type
REMARK                         _______ _______ _______ _____ _____    ______ ____
ROOT
ATOM      1  C   UNL     1      -0.784  -3.216   5.686  0.00  0.00    +0.214 C 
ATOM      2  C   UNL     1      -2.218  -2.938   6.147  0.00  0.00    +0.185 C 
ATOM      3  C   UNL     1      -2.370  -3.376   7.607  0.00  0.00    +0.177 C 
ATOM      4  C   UNL     1      -1.998  -4.857   7.726  0.00  0.00    +0.176 C 
ATOM      5  C   UNL     1      -0.574  -5.060   7.204  0.00  0.00    +0.176 C 
ATOM      6  O   UNL     1      -0.493  -4.605   5.852  0.00  0.00    -0.355 OA
ENDROOT
BRANCH   4   7
ATOM      7  O   UNL     1      -2.069  -5.258   9.096  0.00  0.00    -0.386 OA
ATOM      8  H   UNL     1      -2.944  -5.151   9.492  0.00  0.00    +0.210 HD
ENDBRANCH   4   7
BRANCH   3   9
ATOM      9  O   UNL     1      -1.504  -2.595   8.433  0.00  0.00    -0.386 OA
ATOM     10  H   UNL     1      -1.680  -1.645   8.400  0.00  0.00    +0.210 HD
ENDBRANCH   3   9
BRANCH   2  11
ATOM     11  O   UNL     1      -2.493  -1.540   6.035  0.00  0.00    -0.386 OA
ATOM     12  H   UNL     1      -2.410  -1.194   5.135  0.00  0.00    +0.210 HD
ENDBRANCH   2  11
BRANCH   1  13
ATOM     13  S   UNL     1      -0.613  -2.767   3.937  0.00  0.00    -0.054 S 
BRANCH  13  22
ATOM     14  N   UNL     1       1.702  -2.783   2.395  0.00  0.00    -0.319 N 
ATOM     15  C   UNL     1       3.048  -3.075   2.548  0.00  0.00    +0.069 A 
ATOM     16  C   UNL     1       4.141  -3.040   1.697  0.00  0.00    +0.028 A 
ATOM     17  C   UNL     1       5.388  -3.401   2.165  0.00  0.00    +0.002 A 
ATOM     18  C   UNL     1       5.555  -3.799   3.483  0.00  0.00    +0.002 A 
ATOM     19  C   UNL     1       4.480  -3.840   4.343  0.00  0.00    +0.030 A 
ATOM     20  C   UNL     1       3.211  -3.476   3.884  0.00  0.00    +0.090 A 
ATOM     21  N   UNL     1       1.988  -3.414   4.473  0.00  0.00    -0.222 NA
ATOM     22  C   UNL     1       1.101  -3.001   3.603  0.00  0.00    +0.172 A 
BRANCH  14  23
ATOM     23  C   UNL     1       1.047  -2.321   1.169  0.00  0.00    +0.124 C 
BRANCH  23  24
ATOM     24  C   UNL     1       1.079  -0.792   1.119  0.00  0.00    +0.021 C 
BRANCH  24  26
ATOM     25  C   UNL     1       0.426   1.220  -0.212  0.00  0.00    +0.004 C 
ATOM     26  C   UNL     1       0.395  -0.309  -0.162  0.00  0.00    -0.002 C 
ENDBRANCH  24  26
ENDBRANCH  23  24
ENDBRANCH  14  23
ENDBRANCH  13  22
ENDBRANCH   1  13
BRANCH   5  27
ATOM     27  C   UNL     1       0.405  -4.265   8.070  0.00  0.00    +0.190 C 
BRANCH  27  28
ATOM     28  O   UNL     1       1.745  -4.574   7.681  0.00  0.00    -0.392 OA
ATOM     29  H   UNL     1       2.421  -4.104   8.189  0.00  0.00    +0.210 HD
ENDBRANCH  27  28
ENDBRANCH   5  27
TORSDOF 10
