REMARK  Name = ZINC48572112
REMARK  7 active torsions:
REMARK  status: ('A' for Active; 'I' for Inactive)
REMARK    1  A    between atoms: C_4  and  C_7
REMARK    2  A    between atoms: C_8  and  C_18
REMARK    3  A    between atoms: N_10  and  C_12
REMARK    4  A    between atoms: N_19  and  N_20
REMARK    5  A    between atoms: C_21  and  C_23
REMARK    6  A    between atoms: C_23  and  N_24
REMARK    7  A    between atoms: C_25  and  C_27
REMARK                            x       y       z     vdW  Elec       q    Type
REMARK                         _______ _______ _______ _____ _____    ______ ____
ROOT
ATOM      1  C   UNL     1       3.135  -2.652   1.612  0.00  0.00    +0.142 C 
ATOM      2  N   UNL     1       1.894  -2.294   1.742  0.00  0.00    -0.188 NA
ENDROOT
BRANCH   1   4
ATOM      3  C   UNL     1       3.699  -0.685  -0.035  0.00  0.00    +0.102 A 
ATOM      4  C   UNL     1       4.026  -1.907   0.705  0.00  0.00    +0.040 A 
ATOM      5  C   UNL     1       5.319  -2.222   0.389  0.00  0.00    +0.124 A 
ATOM      6  N   UNL     1       5.777  -1.289  -0.471  0.00  0.00    -0.239 N 
ATOM      7  N   UNL     1       4.769  -0.355  -0.726  0.00  0.00    -0.166 NA
BRANCH   3  11
ATOM      8  C   UNL     1      -0.009   1.392   0.027  0.00  0.00    +0.000 A 
ATOM      9  C   UNL     1       0.549   0.944   1.211  0.00  0.00    +0.001 A 
ATOM     10  C   UNL     1       1.753   0.269   1.197  0.00  0.00    +0.010 A 
ATOM     11  C   UNL     1       2.406   0.039  -0.013  0.00  0.00    +0.003 A 
ATOM     12  C   UNL     1       1.838   0.492  -1.203  0.00  0.00    +0.010 A 
ATOM     13  C   UNL     1       0.634   1.166  -1.176  0.00  0.00    +0.001 A 
ENDBRANCH   3  11
BRANCH   6  14
ATOM     14  C   UNL     1       7.063  -1.263  -1.026  0.00  0.00    +0.065 A 
ATOM     15  C   UNL     1       7.980  -2.256  -0.705  0.00  0.00    +0.028 A 
ATOM     16  C   UNL     1       9.247  -2.227  -1.254  0.00  0.00    +0.002 A 
ATOM     17  C   UNL     1       9.603  -1.212  -2.123  0.00  0.00    +0.000 A 
ATOM     18  C   UNL     1       8.692  -0.222  -2.445  0.00  0.00    +0.002 A 
ATOM     19  C   UNL     1       7.422  -0.248  -1.904  0.00  0.00    +0.028 A 
ENDBRANCH   6  14
ENDBRANCH   1   4
BRANCH   2  20
ATOM     20  N   UNL     1       1.047  -3.002   2.605  0.00  0.00    -0.206 N 
ATOM     21  C   UNL     1      -0.241  -2.630   2.740  0.00  0.00    +0.249 C 
ATOM     22  O   UNL     1      -0.667  -1.681   2.114  0.00  0.00    -0.272 OA
ATOM     23  H   UNL     1       1.388  -3.760   3.105  0.00  0.00    +0.177 HD
BRANCH  21  24
ATOM     24  C   UNL     1      -1.152  -3.391   3.667  0.00  0.00    +0.202 C 
BRANCH  24  25
ATOM     25  N   UNL     1      -2.490  -2.795   3.637  0.00  0.00    -0.303 N 
ATOM     26  C   UNL     1      -3.477  -3.314   4.394  0.00  0.00    +0.244 C 
ATOM     27  O   UNL     1      -3.257  -4.277   5.101  0.00  0.00    -0.270 OA
ATOM     28  H   UNL     1      -2.665  -2.026   3.072  0.00  0.00    +0.150 HD
BRANCH  26  29
ATOM     29  C   UNL     1      -4.827  -2.712   4.362  0.00  0.00    +0.038 A 
ATOM     30  C   UNL     1      -5.084  -1.609   3.546  0.00  0.00    +0.013 A 
ATOM     31  C   UNL     1      -6.346  -1.052   3.521  0.00  0.00    +0.002 A 
ATOM     32  C   UNL     1      -7.356  -1.583   4.304  0.00  0.00    +0.015 A 
ATOM     33  C   UNL     1      -7.108  -2.676   5.116  0.00  0.00    +0.019 A 
ATOM     34  C   UNL     1      -5.851  -3.247   5.145  0.00  0.00    +0.028 A 
ATOM     35 BR   UNL     1      -8.495  -3.393   6.183  0.00  0.00    -0.050 Br
ENDBRANCH  26  29
ENDBRANCH  24  25
ENDBRANCH  21  24
ENDBRANCH   2  20
TORSDOF 7
