REMARK  Name = ZINC33068951
REMARK  8 active torsions:
REMARK  status: ('A' for Active; 'I' for Inactive)
REMARK    1  A    between atoms: C_1  and  C_2
REMARK    2  A    between atoms: C_5  and  C_8
REMARK    3  A    between atoms: C_8  and  N_9
REMARK    4  A    between atoms: N_9  and  C_10
REMARK    5  A    between atoms: N_9  and  C_17
REMARK    6  A    between atoms: C_10  and  C_11
REMARK    7  A    between atoms: C_17  and  C_18
REMARK    8  A    between atoms: C_23  and  C_28
REMARK                            x       y       z     vdW  Elec       q    Type
REMARK                         _______ _______ _______ _____ _____    ______ ____
ROOT
ATOM      1  N   UNL     1       1.396  -4.508  -0.744  0.00  0.00    -0.288 NA
ENDROOT
BRANCH   1   2
ATOM      2  C   UNL     1       0.415  -3.545  -1.261  0.00  0.00    +0.120 C 
BRANCH   2   7
ATOM      3  C   UNL     1       3.058   1.456  -2.442  0.00  0.00    +0.044 C 
ATOM      4  C   UNL     1       2.369   0.152  -2.134  0.00  0.00    -0.050 A 
ATOM      5  C   UNL     1       2.270  -0.824  -3.107  0.00  0.00    +0.003 A 
ATOM      6  C   UNL     1       1.638  -2.021  -2.825  0.00  0.00    +0.005 A 
ATOM      7  C   UNL     1       1.105  -2.241  -1.569  0.00  0.00    -0.033 A 
ATOM      8  C   UNL     1       1.205  -1.265  -0.595  0.00  0.00    +0.005 A 
ATOM      9  C   UNL     1       1.841  -0.070  -0.876  0.00  0.00    +0.003 A 
ENDBRANCH   2   7
ENDBRANCH   1   2
BRANCH   1  10
ATOM     10  C   UNL     1       1.923  -4.076   0.557  0.00  0.00    +0.120 C 
BRANCH  10  11
ATOM     11  C   UNL     1       3.300  -4.654   0.759  0.00  0.00    -0.033 A 
ATOM     12  C   UNL     1       3.467  -5.790   1.528  0.00  0.00    +0.005 A 
ATOM     13  C   UNL     1       4.731  -6.320   1.713  0.00  0.00    +0.000 A 
ATOM     14  C   UNL     1       5.827  -5.714   1.128  0.00  0.00    +0.000 A 
ATOM     15  C   UNL     1       5.660  -4.578   0.358  0.00  0.00    +0.000 A 
ATOM     16  C   UNL     1       4.396  -4.050   0.170  0.00  0.00    +0.005 A 
ENDBRANCH  10  11
ENDBRANCH   1  10
BRANCH   1  17
ATOM     17  C   UNL     1       0.816  -5.854  -0.656  0.00  0.00    +0.138 C 
BRANCH  17  18
ATOM     18  C   UNL     1       1.923  -6.876  -0.602  0.00  0.00    +0.037 A 
ATOM     19  C   UNL     1       1.934  -7.846   0.377  0.00  0.00    +0.093 A 
ATOM     20  C   UNL     1       2.967  -8.784   0.411  0.00  0.00    +0.259 A 
ATOM     21  O   UNL     1       2.982  -9.646   1.276  0.00  0.00    -0.267 OA
ATOM     22  N   UNL     1       3.962  -8.736  -0.525  0.00  0.00    -0.261 N 
ATOM     23  C   UNL     1       5.039  -9.584  -0.623  0.00  0.00    +0.033 A 
ATOM     24  C   UNL     1       5.947  -9.433  -1.587  0.00  0.00    +0.070 A 
ATOM     25  S   UNL     1       5.314  -8.014  -2.468  0.00  0.00    -0.059 S 
ATOM     26  C   UNL     1       3.872  -7.740  -1.460  0.00  0.00    +0.158 A 
ATOM     27  N   UNL     1       2.903  -6.860  -1.501  0.00  0.00    -0.337 N 
ATOM     28  C   UNL     1       5.196 -10.701   0.375  0.00  0.00    +0.064 C 
ATOM     29  H   UNL     1       2.902  -6.184  -2.196  0.00  0.00    +0.168 HD
ENDBRANCH  17  18
ENDBRANCH   1  17
TORSDOF 6
