REMARK  Name = ZINC38372373
REMARK  10 active torsions:
REMARK  status: ('A' for Active; 'I' for Inactive)
REMARK    1  A    between atoms: C_1  and  C_2
REMARK    2  A    between atoms: C_2  and  C_4
REMARK    3  A    between atoms: C_2  and  N_20
REMARK    4  A    between atoms: N_9  and  C_10
REMARK    5  A    between atoms: N_20  and  C_21
REMARK    6  A    between atoms: N_20  and  C_22
REMARK    7  A    between atoms: C_22  and  C_23
REMARK    8  A    between atoms: N_25  and  C_26
REMARK    9  A    between atoms: C_26  and  C_27
REMARK   10  A    between atoms: C_26  and  C_28
REMARK                            x       y       z     vdW  Elec       q    Type
REMARK                         _______ _______ _______ _____ _____    ______ ____
ROOT
ATOM      1  C   UNL     1       0.311  -0.545   1.624  0.00  0.00    +0.207 C 
ATOM      2  O   UNL     1      -0.503  -1.125   2.310  0.00  0.00    -0.277 OA
ATOM      3  N   UNL     1       1.556  -0.329   2.094  0.00  0.00    -0.242 N 
ATOM      4  C   UNL     1       1.895  -0.757   3.326  0.00  0.00    +0.306 C 
ATOM      5  O   UNL     1       1.079  -1.339   4.013  0.00  0.00    -0.252 OA
ATOM      6  N   UNL     1       3.140  -0.541   3.795  0.00  0.00    -0.294 N 
ATOM      7  H   UNL     1       2.207   0.135   1.545  0.00  0.00    +0.159 HD
ATOM      8  H   UNL     1       3.791  -0.077   3.247  0.00  0.00    +0.151 HD
ENDROOT
BRANCH   6   9
ATOM      9  C   UNL     1       3.508  -1.007   5.134  0.00  0.00    +0.037 C 
ATOM     10  C   UNL     1       2.601  -0.343   6.173  0.00  0.00    +0.029 C 
ATOM     11  C   UNL     1       2.986  -0.830   7.571  0.00  0.00    -0.008 C 
ATOM     12  C   UNL     1       4.443  -0.460   7.857  0.00  0.00    +0.007 C 
ATOM     13  C   UNL     1       5.351  -1.123   6.818  0.00  0.00    -0.008 C 
ATOM     14  C   UNL     1       4.965  -0.637   5.420  0.00  0.00    +0.029 C 
ATOM     15  C   UNL     1       5.186  -2.642   6.893  0.00  0.00    +0.007 C 
ATOM     16  C   UNL     1       3.729  -3.012   6.608  0.00  0.00    -0.008 C 
ATOM     17  C   UNL     1       2.822  -2.349   7.646  0.00  0.00    +0.007 C 
ATOM     18  C   UNL     1       3.344  -2.526   5.210  0.00  0.00    +0.029 C 
ENDBRANCH   6   9
BRANCH   1  20
ATOM     19  C   UNL     1      -0.547   1.385   0.325  0.00  0.00    -0.004 C 
ATOM     20  C   UNL     1      -0.068  -0.067   0.246  0.00  0.00    +0.017 C 
BRANCH  20  21
ATOM     21  N   UNL     1      -1.147  -0.910  -0.285  0.00  0.00    +0.391 N 
ATOM     22  C   UNL     1      -0.669  -2.293  -0.413  0.00  0.00    -0.094 C 
ATOM     23  H   UNL     1      -1.936  -0.884   0.343  0.00  0.00    -0.080 HD
BRANCH  21  24
ATOM     24  C   UNL     1      -1.555  -0.409  -1.605  0.00  0.00    +0.019 C 
BRANCH  24  25
ATOM     25  C   UNL     1      -2.742  -1.197  -2.096  0.00  0.00    +0.197 C 
ATOM     26  O   UNL     1      -3.202  -2.089  -1.414  0.00  0.00    -0.278 OA
ATOM     27  N   UNL     1      -3.292  -0.912  -3.293  0.00  0.00    -0.315 N 
ATOM     28  H   UNL     1      -2.924  -0.199  -3.838  0.00  0.00    +0.149 HD
BRANCH  27  29
ATOM     29  C   UNL     1      -4.446  -1.678  -3.771  0.00  0.00    +0.067 C 
ATOM     30  C   UNL     1      -5.731  -1.073  -3.201  0.00  0.00    +0.027 C 
ATOM     31  C   UNL     1      -4.493  -1.629  -5.299  0.00  0.00    +0.027 C 
ENDBRANCH  27  29
ENDBRANCH  24  25
ENDBRANCH  21  24
ENDBRANCH  20  21
ENDBRANCH   1  20
TORSDOF 6
