REMARK  Name = ZINC40724337
REMARK  7 active torsions:
REMARK  status: ('A' for Active; 'I' for Inactive)
REMARK    1  A    between atoms: C_1  and  C_2
REMARK    2  A    between atoms: C_2  and  C_23
REMARK    3  A    between atoms: C_4  and  N_10
REMARK    4  A    between atoms: C_6  and  C_8
REMARK    5  A    between atoms: C_6  and  C_9
REMARK    6  A    between atoms: C_12  and  N_22
REMARK    7  A    between atoms: C_13  and  N_17
REMARK                            x       y       z     vdW  Elec       q    Type
REMARK                         _______ _______ _______ _____ _____    ______ ____
ROOT
ATOM      1  N   UNL     1       2.815  -2.837  -2.245  0.00  0.00    -0.325 N 
ATOM      2  C   UNL     1       2.131  -3.892  -2.836  0.00  0.00    +0.145 A 
ATOM      3  C   UNL     1       2.210  -4.106  -4.213  0.00  0.00    +0.105 A 
ATOM      4  C   UNL     1       1.504  -5.180  -4.755  0.00  0.00    +0.147 A 
ATOM      5  N   UNL     1       0.786  -5.955  -3.945  0.00  0.00    -0.219 NA
ATOM      6  C   UNL     1       0.738  -5.718  -2.649  0.00  0.00    +0.225 A 
ATOM      7  N   UNL     1       1.394  -4.718  -2.097  0.00  0.00    -0.219 NA
ATOM      8  H   UNL     1       3.350  -2.239  -2.791  0.00  0.00    +0.148 HD
ENDROOT
BRANCH   1  12
ATOM      9  C   UNL     1       3.493   0.512   1.281  0.00  0.00    -0.010 C 
ATOM     10  C   UNL     1       2.951  -0.913   1.024  0.00  0.00    -0.072 C 
ATOM     11  C   UNL     1       3.002  -1.155  -0.481  0.00  0.00    +0.009 C 
ATOM     12  C   UNL     1       2.729  -2.626  -0.794  0.00  0.00    +0.069 C 
ATOM     13  C   UNL     1       3.798  -3.468  -0.098  0.00  0.00    +0.009 C 
ATOM     14  C   UNL     1       3.752  -3.244   1.410  0.00  0.00    -0.072 C 
ATOM     15  N   UNL     1       3.770  -1.841   1.784  0.00  0.00    +0.386 N 
ATOM     16  C   UNL     1       5.011  -3.908   2.014  0.00  0.00    -0.010 C 
ATOM     17  C   UNL     1       2.536  -3.963   2.004  0.00  0.00    -0.010 C 
ATOM     18  C   UNL     1       1.496  -0.933   1.502  0.00  0.00    -0.010 C 
ATOM     19  H   UNL     1       4.740  -1.513   1.750  0.00  0.00    -0.084 HD
ATOM     20  H   UNL     1       3.505  -1.768   2.771  0.00  0.00    -0.084 HD
ENDBRANCH   1  12
BRANCH   4  21
ATOM     21  N   UNL     1       1.548  -5.437  -6.120  0.00  0.00    -0.314 N 
ATOM     22  C   UNL     1       2.395  -4.737  -7.097  0.00  0.00    +0.106 C 
ATOM     23  C   UNL     1       2.089  -5.340  -8.484  0.00  0.00    +0.020 C 
ATOM     24  C   UNL     1       0.678  -5.955  -8.292  0.00  0.00    +0.020 C 
ATOM     25  C   UNL     1       0.758  -6.461  -6.828  0.00  0.00    +0.106 C 
ENDBRANCH   4  21
BRANCH   3  26
ATOM     26  N   UNL     1       2.980  -3.262  -5.031  0.00  0.00    -0.353 N 
ATOM     27  H   UNL     1       3.033  -2.313  -4.835  0.00  0.00    +0.143 HD
ATOM     28  H   UNL     1       3.458  -3.628  -5.791  0.00  0.00    +0.143 HD
ENDBRANCH   3  26
TORSDOF 3
