REMARK  Name = ZINC63456276
REMARK  8 active torsions:
REMARK  status: ('A' for Active; 'I' for Inactive)
REMARK    1  A    between atoms: C_1  and  C_2
REMARK    2  A    between atoms: C_5  and  C_8
REMARK    3  A    between atoms: C_10  and  C_13
REMARK    4  A    between atoms: C_13  and  O_14
REMARK    5  A    between atoms: O_14  and  N_15
REMARK    6  A    between atoms: C_16  and  C_17
REMARK    7  A    between atoms: C_18  and  N_28
REMARK    8  A    between atoms: N_24  and  C_27
REMARK                            x       y       z     vdW  Elec       q    Type
REMARK                         _______ _______ _______ _____ _____    ______ ____
ROOT
ATOM      1  N   UNL     1       0.129  -9.886   1.474  0.00  0.00    -0.068 NA
ATOM      2  C   UNL     1       0.150 -11.043   0.874  0.00  0.00    +0.169 C 
ATOM      3  N   UNL     1       0.157 -11.105  -0.509  0.00  0.00    -0.340 N 
ATOM      4  H   UNL     1       0.220 -10.290  -1.031  0.00  0.00    +0.144 HD
ATOM      5  H   UNL     1       0.099 -11.964  -0.956  0.00  0.00    +0.144 HD
ENDROOT
BRANCH   2   6
ATOM      6  C   UNL     1       0.168 -12.286   1.669  0.00  0.00    +0.098 C 
ATOM      7  C   UNL     1       0.266 -12.354   3.033  0.00  0.00    +0.041 C 
ATOM      8  C   UNL     1       0.242 -13.816   3.376  0.00  0.00    +0.076 C 
ATOM      9  C   UNL     1      -0.914 -14.148   4.335  0.00  0.00    +0.032 C 
ATOM     10  C   UNL     1      -0.462 -15.449   5.034  0.00  0.00    +0.003 C 
ATOM     11  C   UNL     1       1.072 -15.500   4.920  0.00  0.00    +0.003 C 
ATOM     12  C   UNL     1       1.502 -14.229   4.156  0.00  0.00    +0.032 C 
ATOM     13  N   UNL     1       0.125 -14.549   2.122  0.00  0.00    -0.289 N 
ATOM     14  C   UNL     1       0.076 -13.642   1.125  0.00  0.00    +0.252 C 
ATOM     15  O   UNL     1      -0.025 -13.912  -0.057  0.00  0.00    -0.270 OA
ATOM     16  C   UNL     1       0.065 -16.005   1.972  0.00  0.00    +0.133 C 
BRANCH   7  17
ATOM     17  N   UNL     1       0.364 -11.311   3.900  0.00  0.00    -0.359 N 
ATOM     18  H   UNL     1       0.297 -10.400   3.573  0.00  0.00    +0.142 HD
ATOM     19  H   UNL     1       0.503 -11.478   4.845  0.00  0.00    +0.142 HD
ENDBRANCH   7  17
ENDBRANCH   2   6
BRANCH   1  20
ATOM     20  O   UNL     1       0.113  -8.693   0.712  0.00  0.00    -0.386 OA
BRANCH  20  21
ATOM     21  C   UNL     1       0.090  -7.500   1.498  0.00  0.00    +0.321 C 
BRANCH  21  24
ATOM     22  C   UNL     1       0.044  -4.254  -0.092  0.00  0.00    +0.227 A 
ATOM     23  N   UNL     1       0.052  -5.015   0.977  0.00  0.00    -0.210 NA
ATOM     24  C   UNL     1       0.074  -6.299   0.589  0.00  0.00    +0.120 A 
ATOM     25  C   UNL     1       0.080  -6.323  -0.756  0.00  0.00    +0.224 A 
ATOM     26  O   UNL     1       0.056  -5.044  -1.180  0.00  0.00    -0.443 OA
BRANCH  22  31
ATOM     27  C   UNL     1      -0.050   1.500  -0.120  0.00  0.00    +0.044 C 
ATOM     28  C   UNL     1      -0.025  -0.007  -0.113  0.00  0.00    -0.050 A 
ATOM     29  C   UNL     1      -0.014  -0.701  -1.310  0.00  0.00    +0.004 A 
ATOM     30  C   UNL     1       0.009  -2.081  -1.310  0.00  0.00    +0.013 A 
ATOM     31  C   UNL     1       0.021  -2.776  -0.100  0.00  0.00    +0.037 A 
ATOM     32  C   UNL     1       0.010  -2.069   1.104  0.00  0.00    +0.013 A 
ATOM     33  C   UNL     1      -0.007  -0.690   1.090  0.00  0.00    +0.004 A 
ENDBRANCH  22  31
ENDBRANCH  21  24
ENDBRANCH  20  21
ENDBRANCH   1  20
TORSDOF 6
