REMARK  Name = ZINC19331495
REMARK  11 active torsions:
REMARK  status: ('A' for Active; 'I' for Inactive)
REMARK    1  A    between atoms: C_4  and  C_7
REMARK    2  A    between atoms: C_11  and  C_29
REMARK    3  A    between atoms: C_12  and  O_13
REMARK    4  A    between atoms: C_17  and  C_18
REMARK    5  A    between atoms: C_18  and  C_20
REMARK    6  A    between atoms: C_18  and  O_28
REMARK    7  A    between atoms: C_20  and  C_22
REMARK    8  A    between atoms: C_20  and  O_27
REMARK    9  A    between atoms: C_22  and  C_24
REMARK   10  A    between atoms: C_22  and  O_26
REMARK   11  A    between atoms: C_24  and  O_25
REMARK                            x       y       z     vdW  Elec       q    Type
REMARK                         _______ _______ _______ _____ _____    ______ ____
ROOT
ATOM      1  C   UNL     1      -4.882   3.235  -1.212  0.00  0.00    +0.021 C 
ATOM      2  C   UNL     1      -3.407   3.643  -1.306  0.00  0.00    -0.061 C 
ATOM      3  N   UNL     1      -2.823   3.043  -2.516  0.00  0.00    +0.393 N 
ATOM      4  C   UNL     1      -3.482   3.564  -3.723  0.00  0.00    -0.061 C 
ATOM      5  C   UNL     1      -4.959   3.154  -3.700  0.00  0.00    +0.021 C 
ATOM      6  C   UNL     1      -5.617   3.757  -2.453  0.00  0.00    +0.134 C 
ATOM      7  C   UNL     1      -5.044   1.626  -3.612  0.00  0.00    +0.095 C 
ATOM      8  N   UNL     1      -4.328   1.177  -2.409  0.00  0.00    -0.311 NA
ATOM      9  C   UNL     1      -4.970   1.704  -1.195  0.00  0.00    +0.095 C 
ATOM     10  C   UNL     1      -2.914   1.577  -2.465  0.00  0.00    +0.034 C 
ATOM     11  H   UNL     1      -1.758   3.318  -2.558  0.00  0.00    -0.079 HD
ENDROOT
BRANCH   1  15
ATOM     12  C   UNL     1      -6.618   4.839   2.347  0.00  0.00    +0.000 A 
ATOM     13  C   UNL     1      -6.082   5.687   1.396  0.00  0.00    +0.000 A 
ATOM     14  C   UNL     1      -5.521   5.168   0.244  0.00  0.00    +0.004 A 
ATOM     15  C   UNL     1      -5.494   3.801   0.044  0.00  0.00    -0.039 A 
ATOM     16  C   UNL     1      -6.035   2.953   0.992  0.00  0.00    +0.004 A 
ATOM     17  C   UNL     1      -6.592   3.471   2.146  0.00  0.00    +0.000 A 
ENDBRANCH   1  15
BRANCH   5  18
ATOM     18  C   UNL     1      -5.649   3.639  -4.949  0.00  0.00    -0.039 A 
ATOM     19  C   UNL     1      -4.940   4.351  -5.898  0.00  0.00    +0.004 A 
ATOM     20  C   UNL     1      -5.572   4.791  -7.046  0.00  0.00    +0.000 A 
ATOM     21  C   UNL     1      -6.915   4.527  -7.241  0.00  0.00    +0.000 A 
ATOM     22  C   UNL     1      -7.625   3.820  -6.289  0.00  0.00    +0.000 A 
ATOM     23  C   UNL     1      -6.992   3.376  -5.143  0.00  0.00    +0.004 A 
ENDBRANCH   5  18
BRANCH   6  24
ATOM     24  O   UNL     1      -6.990   3.365  -2.397  0.00  0.00    -0.390 OA
ATOM     25  H   UNL     1      -7.677   3.652  -3.207  0.00  0.00    +0.210 HD
ENDBRANCH   6  24
BRANCH  10  26
ATOM     26  C   UNL     1      -2.188   1.063  -1.221  0.00  0.00    +0.146 C 
BRANCH  26  27
ATOM     27  O   UNL     1      -0.838   1.532  -1.229  0.00  0.00    -0.390 OA
ATOM     28  H   UNL     1      -0.157   1.262  -0.408  0.00  0.00    +0.210 HD
ENDBRANCH  26  27
BRANCH  26  29
ATOM     29  C   UNL     1      -2.197  -0.467  -1.220  0.00  0.00    +0.173 C 
BRANCH  29  30
ATOM     30  O   UNL     1      -3.547  -0.936  -1.212  0.00  0.00    -0.387 OA
ATOM     31  H   UNL     1      -3.754  -2.016  -1.210  0.00  0.00    +0.210 HD
ENDBRANCH  29  30
BRANCH  29  32
ATOM     32  C   UNL     1      -1.470  -0.981   0.024  0.00  0.00    +0.171 C 
BRANCH  32  33
ATOM     33  O   UNL     1      -0.121  -0.512   0.016  0.00  0.00    -0.387 OA
ATOM     34  H   UNL     1       0.560  -0.782   0.837  0.00  0.00    +0.210 HD
ENDBRANCH  32  33
BRANCH  32  35
ATOM     35  C   UNL     1      -1.479  -2.511   0.025  0.00  0.00    +0.189 C 
BRANCH  35  36
ATOM     36  O   UNL     1      -0.905  -2.990   1.242  0.00  0.00    -0.392 OA
ATOM     37  H   UNL     1      -0.825  -4.072   1.424  0.00  0.00    +0.210 HD
ENDBRANCH  35  36
ENDBRANCH  32  35
ENDBRANCH  29  32
ENDBRANCH  26  29
ENDBRANCH  10  26
TORSDOF 11
