REMARK  Name = ZINC06197975
REMARK  7 active torsions:
REMARK  status: ('A' for Active; 'I' for Inactive)
REMARK    1  A    between atoms: C_1  and  C_2
REMARK    2  A    between atoms: C_2  and  C_3
REMARK    3  A    between atoms: C_10  and  C_15
REMARK    4  A    between atoms: C_15  and  C_17
REMARK    5  A    between atoms: C_15  and  N_66
REMARK    6  A    between atoms: N_21  and  C_22
REMARK    7  A    between atoms: C_30  and  C_33
REMARK                            x       y       z     vdW  Elec       q    Type
REMARK                         _______ _______ _______ _____ _____    ______ ____
ROOT
ATOM      1  C   UNL     1      -0.099   0.979   2.425  0.00  0.00    +0.039 C 
ENDROOT
BRANCH   1   9
ATOM      2  C   UNL     1      -0.548   3.893   7.865  0.00  0.00    -0.047 A 
ATOM      3  C   UNL     1      -1.931   3.815   7.969  0.00  0.00    +0.005 A 
ATOM      4  C   UNL     1      -2.678   3.206   6.984  0.00  0.00    +0.026 A 
ATOM      5  C   UNL     1      -2.042   2.663   5.872  0.00  0.00    +0.049 A 
ATOM      6  C   UNL     1      -0.640   2.744   5.770  0.00  0.00    -0.001 A 
ATOM      7  C   UNL     1       0.097   3.367   6.782  0.00  0.00    +0.013 A 
ATOM      8  C   UNL     1       0.020   2.170   4.596  0.00  0.00    +0.017 A 
ATOM      9  C   UNL     1      -0.747   1.579   3.646  0.00  0.00    +0.011 A 
ATOM     10  C   UNL     1      -2.150   1.530   3.794  0.00  0.00    +0.251 A 
ATOM     11  O   UNL     1      -2.820   0.998   2.926  0.00  0.00    -0.268 OA
ATOM     12  N   UNL     1      -2.764   2.049   4.871  0.00  0.00    -0.322 N 
ATOM     13  H   UNL     1      -3.759   1.989   4.948  0.00  0.00    +0.169 HD
BRANCH   2  15
ATOM     14  C   UNL     1       0.393   6.053   8.638  0.00  0.00    +0.009 C 
ATOM     15  C   UNL     1       0.246   4.563   8.955  0.00  0.00    +0.032 C 
ENDBRANCH   2  15
ENDBRANCH   1   9
BRANCH   1  22
ATOM     16  C   UNL     1      -0.013   1.086   0.008  0.00  0.00    -0.077 C 
ATOM     17  C   UNL     1      -0.752   1.593  -1.232  0.00  0.00    -0.015 C 
ATOM     18  C   UNL     1      -0.788   3.123  -1.209  0.00  0.00    -0.018 C 
ATOM     19  C   UNL     1      -1.465   3.591   0.082  0.00  0.00    -0.015 C 
ATOM     20  C   UNL     1      -0.705   3.026   1.284  0.00  0.00    -0.077 C 
ATOM     21  C   UNL     1      -1.579   3.634  -2.415  0.00  0.00    +0.007 C 
ATOM     22  N   UNL     1      -0.728   1.550   1.216  0.00  0.00    +0.389 N 
ATOM     23  H   UNL     1      -1.704   1.234   1.167  0.00  0.00    -0.080 HD
ENDBRANCH   1  22
BRANCH   1  24
ATOM     24  C   UNL     1      -0.313  -0.513   2.425  0.00  0.00    +0.143 A 
ATOM     25  N   UNL     1      -1.427  -1.144   2.146  0.00  0.00    -0.115 NA
ATOM     26  N   UNL     1      -1.207  -2.409   2.253  0.00  0.00    -0.023 NA
ATOM     27  N   UNL     1       0.018  -2.601   2.602  0.00  0.00    -0.044 NA
ATOM     28  N   UNL     1       0.602  -1.456   2.718  0.00  0.00    -0.227 N 
BRANCH  28  29
ATOM     29  C   UNL     1       1.998  -1.226   3.098  0.00  0.00    +0.111 C 
ATOM     30  C   UNL     1       2.920  -1.907   2.084  0.00  0.00    +0.027 C 
ATOM     31  C   UNL     1       4.378  -1.667   2.480  0.00  0.00    +0.002 C 
ATOM     32  C   UNL     1       4.631  -2.249   3.872  0.00  0.00    +0.000 C 
ATOM     33  C   UNL     1       3.709  -1.568   4.886  0.00  0.00    +0.002 C 
ATOM     34  C   UNL     1       2.251  -1.808   4.489  0.00  0.00    +0.027 C 
ENDBRANCH  28  29
ENDBRANCH   1  24
TORSDOF 5
