REMARK  Name = ZINC59382613
REMARK  11 active torsions:
REMARK  status: ('A' for Active; 'I' for Inactive)
REMARK    1  A    between atoms: C_4  and  C_7
REMARK    2  A    between atoms: C_7  and  O_9
REMARK    3  A    between atoms: C_7  and  C_10
REMARK    4  A    between atoms: C_10  and  C_35
REMARK    5  A    between atoms: N_11  and  N_12
REMARK    6  A    between atoms: C_13  and  C_15
REMARK    7  A    between atoms: N_17  and  N_18
REMARK    8  A    between atoms: C_19  and  C_20
REMARK    9  A    between atoms: C_19  and  C_29
REMARK   10  A    between atoms: C_20  and  O_22
REMARK   11  A    between atoms: C_20  and  C_23
REMARK                            x       y       z     vdW  Elec       q    Type
REMARK                         _______ _______ _______ _____ _____    ______ ____
ROOT
ATOM      1  N   UNL     1       5.739   2.132  -0.781  0.00  0.00    -0.199 N 
ATOM      2  C   UNL     1       7.031   1.751  -0.823  0.00  0.00    +0.320 C 
ATOM      3  O   UNL     1       7.357   0.780  -1.477  0.00  0.00    -0.263 OA
ATOM      4  H   UNL     1       5.479   2.907  -0.259  0.00  0.00    +0.178 HD
ENDROOT
BRANCH   2   5
ATOM      5  C   UNL     1       8.059   2.519  -0.067  0.00  0.00    +0.320 C 
ATOM      6  O   UNL     1       7.734   3.490   0.587  0.00  0.00    -0.263 OA
ATOM      7  N   UNL     1       9.351   2.138  -0.109  0.00  0.00    -0.199 N 
ATOM      8  H   UNL     1       9.612   1.363  -0.631  0.00  0.00    +0.178 HD
BRANCH   7   9
ATOM      9  N   UNL     1      10.319   2.861   0.602  0.00  0.00    -0.181 NA
ATOM     10  C   UNL     1      11.575   2.555   0.482  0.00  0.00    +0.099 C 
BRANCH  10  11
ATOM     11  C   UNL     1      12.548   3.032   1.482  0.00  0.00    +0.001 A 
ATOM     12  C   UNL     1      13.809   2.438   1.573  0.00  0.00    +0.010 A 
ATOM     13  C   UNL     1      14.714   2.890   2.511  0.00  0.00    +0.001 A 
ATOM     14  C   UNL     1      14.376   3.928   3.360  0.00  0.00    +0.000 A 
ATOM     15  C   UNL     1      13.128   4.521   3.276  0.00  0.00    +0.001 A 
ATOM     16  C   UNL     1      12.215   4.084   2.339  0.00  0.00    +0.010 A 
ENDBRANCH  10  11
BRANCH  10  17
ATOM     17  C   UNL     1      12.039   1.714  -0.679  0.00  0.00    +0.195 C 
BRANCH  17  18
ATOM     18  C   UNL     1      11.100   1.902  -1.842  0.00  0.00    -0.013 A 
ATOM     19  C   UNL     1      10.895   3.164  -2.368  0.00  0.00    +0.006 A 
ATOM     20  C   UNL     1      10.033   3.336  -3.436  0.00  0.00    +0.000 A 
ATOM     21  C   UNL     1       9.377   2.246  -3.977  0.00  0.00    +0.000 A 
ATOM     22  C   UNL     1       9.583   0.984  -3.452  0.00  0.00    +0.000 A 
ATOM     23  C   UNL     1      10.448   0.811  -2.387  0.00  0.00    +0.006 A 
ENDBRANCH  17  18
BRANCH  17  24
ATOM     24  O   UNL     1      13.357   2.114  -1.061  0.00  0.00    -0.381 OA
ATOM     25  H   UNL     1      13.405   3.006  -1.432  0.00  0.00    +0.211 HD
ENDBRANCH  17  24
ENDBRANCH  10  17
ENDBRANCH   7   9
ENDBRANCH   2   5
BRANCH   1  27
ATOM     26  C   UNL     1       3.530   1.788  -1.468  0.00  0.00    +0.099 C 
ATOM     27  N   UNL     1       4.772   1.409  -1.492  0.00  0.00    -0.181 NA
BRANCH  26  28
ATOM     28  C   UNL     1       2.489   0.943  -2.080  0.00  0.00    +0.001 A 
ATOM     29  C   UNL     1       1.193   0.937  -1.558  0.00  0.00    +0.010 A 
ATOM     30  C   UNL     1       0.224   0.143  -2.136  0.00  0.00    +0.001 A 
ATOM     31  C   UNL     1       0.534  -0.646  -3.230  0.00  0.00    +0.000 A 
ATOM     32  C   UNL     1       1.815  -0.645  -3.752  0.00  0.00    +0.001 A 
ATOM     33  C   UNL     1       2.793   0.148  -3.188  0.00  0.00    +0.010 A 
ENDBRANCH  26  28
BRANCH  26  34
ATOM     34  C   UNL     1       3.153   3.093  -0.813  0.00  0.00    +0.195 C 
BRANCH  34  38
ATOM     35  C   UNL     1       5.835   6.158  -2.102  0.00  0.00    +0.000 A 
ATOM     36  C   UNL     1       5.648   5.926  -0.752  0.00  0.00    +0.000 A 
ATOM     37  C   UNL     1       4.780   4.934  -0.335  0.00  0.00    +0.006 A 
ATOM     38  C   UNL     1       4.098   4.175  -1.268  0.00  0.00    -0.013 A 
ATOM     39  C   UNL     1       4.285   4.407  -2.618  0.00  0.00    +0.006 A 
ATOM     40  C   UNL     1       5.154   5.398  -3.035  0.00  0.00    +0.000 A 
ENDBRANCH  34  38
BRANCH  34  41
ATOM     41  O   UNL     1       1.817   3.442  -1.182  0.00  0.00    -0.381 OA
ATOM     42  H   UNL     1       1.711   3.657  -2.119  0.00  0.00    +0.211 HD
ENDBRANCH  34  41
ENDBRANCH  26  34
ENDBRANCH   1  27
TORSDOF 11
