REMARK  Name = ZINC44901696
REMARK  7 active torsions:
REMARK  status: ('A' for Active; 'I' for Inactive)
REMARK    1  A    between atoms: C_1  and  C_2
REMARK    2  A    between atoms: C_2  and  N_3
REMARK    3  A    between atoms: C_5  and  C_9
REMARK    4  A    between atoms: C_6  and  C_8
REMARK    5  A    between atoms: C_12  and  C_27
REMARK    6  A    between atoms: N_14  and  C_21
REMARK    7  A    between atoms: C_17  and  O_20
REMARK                            x       y       z     vdW  Elec       q    Type
REMARK                         _______ _______ _______ _____ _____    ______ ____
ROOT
ATOM      1  C   UNL     1       3.361  -2.133  -2.523  0.00  0.00    +0.115 C 
ATOM      2  C   UNL     1       3.109  -3.500  -3.083  0.00  0.00    +0.037 A 
ATOM      3  C   UNL     1       1.896  -3.850  -3.704  0.00  0.00    +0.067 A 
ATOM      4  N   UNL     1       1.964  -5.091  -4.097  0.00  0.00    -0.169 NA
ATOM      5  N   UNL     1       3.216  -5.599  -3.752  0.00  0.00    -0.214 N 
ATOM      6  C   UNL     1       3.924  -4.599  -3.112  0.00  0.00    +0.164 A 
ATOM      7  N   UNL     1       5.166  -4.808  -2.646  0.00  0.00    -0.197 NA
ATOM      8  C   UNL     1       6.036  -4.138  -2.042  0.00  0.00    +0.199 C 
ATOM      9  C   UNL     1       6.022  -2.719  -1.631  0.00  0.00    +0.165 C 
ATOM     10  S   UNL     1       4.408  -2.164  -1.064  0.00  0.00    -0.138 S 
ATOM     11  C   UNL     1       0.709  -2.939  -3.884  0.00  0.00    +0.068 C 
ENDROOT
BRANCH   1  14
ATOM     12  N   UNL     1       0.244  -0.265  -2.212  0.00  0.00    -0.271 N 
ATOM     13  C   UNL     1       1.384  -0.561  -2.872  0.00  0.00    +0.113 A 
ATOM     14  C   UNL     1       2.039  -1.506  -2.159  0.00  0.00    +0.010 A 
ATOM     15  C   UNL     1       1.274  -1.798  -1.025  0.00  0.00    +0.064 A 
ATOM     16  N   UNL     1       0.200  -1.051  -1.053  0.00  0.00    -0.176 NA
ATOM     17  C   UNL     1       1.628  -2.796   0.047  0.00  0.00    +0.068 C 
BRANCH  12  19
ATOM     18  C   UNL     1      -2.135   0.028  -2.699  0.00  0.00    +0.029 C 
ATOM     19  C   UNL     1      -0.767   0.709  -2.632  0.00  0.00    +0.140 C 
ENDBRANCH  12  19
ENDBRANCH   1  14
BRANCH   5  20
ATOM     20  C   UNL     1       3.676  -6.897  -4.009  0.00  0.00    +0.068 A 
ATOM     21  C   UNL     1       5.015  -7.115  -4.305  0.00  0.00    +0.028 A 
ATOM     22  C   UNL     1       5.466  -8.396  -4.558  0.00  0.00    +0.002 A 
ATOM     23  C   UNL     1       4.585  -9.461  -4.516  0.00  0.00    +0.000 A 
ATOM     24  C   UNL     1       3.251  -9.247  -4.221  0.00  0.00    +0.002 A 
ATOM     25  C   UNL     1       2.795  -7.969  -3.962  0.00  0.00    +0.028 A 
ENDBRANCH   5  20
BRANCH   8  26
ATOM     26  O   UNL     1       7.155  -4.816  -1.716  0.00  0.00    -0.495 OA
ATOM     27  H   UNL     1       7.147  -5.743  -1.992  0.00  0.00    +0.293 HD
ENDBRANCH   8  26
TORSDOF 4
