REMARK  Name = ZINC34822927
REMARK  8 active torsions:
REMARK  status: ('A' for Active; 'I' for Inactive)
REMARK    1  A    between atoms: C_1  and  C_2
REMARK    2  A    between atoms: C_2  and  N_3
REMARK    3  A    between atoms: N_3  and  C_4
REMARK    4  A    between atoms: C_4  and  C_5
REMARK    5  A    between atoms: C_6  and  C_21
REMARK    6  A    between atoms: N_8  and  C_20
REMARK    7  A    between atoms: C_9  and  N_10
REMARK    8  A    between atoms: C_14  and  C_17
REMARK                            x       y       z     vdW  Elec       q    Type
REMARK                         _______ _______ _______ _____ _____    ______ ____
ROOT
ATOM      1  C   UNL     1       1.444  -2.486  -2.420  0.00  0.00    -0.002 A 
ATOM      2  C   UNL     1       0.796  -2.835  -3.608  0.00  0.00    +0.063 A 
ATOM      3  N   UNL     1       1.706  -3.135  -4.499  0.00  0.00    -0.175 NA
ATOM      4  N   UNL     1       2.968  -2.989  -3.909  0.00  0.00    -0.253 N 
ATOM      5  C   UNL     1       2.785  -2.584  -2.632  0.00  0.00    +0.121 A 
ATOM      6  C   UNL     1       4.258  -3.226  -4.562  0.00  0.00    +0.174 C 
ATOM      7  C   UNL     1      -0.695  -2.860  -3.826  0.00  0.00    +0.068 C 
ENDROOT
BRANCH   5   8
ATOM      8  N   UNL     1       3.787  -2.319  -1.701  0.00  0.00    -0.315 N 
ATOM      9  C   UNL     1       4.321  -3.392  -0.851  0.00  0.00    +0.106 C 
ATOM     10  C   UNL     1       5.846  -3.424  -0.999  0.00  0.00    +0.020 C 
ATOM     11  C   UNL     1       6.413  -2.037  -0.692  0.00  0.00    +0.016 C 
ATOM     12  C   UNL     1       5.853  -1.022  -1.691  0.00  0.00    +0.092 C 
ATOM     13  C   UNL     1       4.333  -0.963  -1.556  0.00  0.00    +0.119 C 
BRANCH  12  14
ATOM     14  C   UNL     1       6.439   0.338  -1.409  0.00  0.00    +0.215 C 
ATOM     15  O   UNL     1       5.710   1.265  -1.127  0.00  0.00    -0.276 OA
ATOM     16  N   UNL     1       7.772   0.523  -1.470  0.00  0.00    -0.329 N 
ATOM     17  H   UNL     1       8.355  -0.218  -1.696  0.00  0.00    +0.145 HD
ATOM     18  H   UNL     1       8.149   1.398  -1.289  0.00  0.00    +0.145 HD
ENDBRANCH  12  14
ENDBRANCH   5   8
BRANCH   1  19
ATOM     19  C   UNL     1       0.776  -2.071  -1.134  0.00  0.00    -0.041 C 
BRANCH  19  20
ATOM     20  N   UNL     1       0.641  -0.608  -1.103  0.00  0.00    +0.382 N 
ATOM     21  H   UNL     1       0.081  -0.306  -1.886  0.00  0.00    -0.085 HD
ATOM     22  H   UNL     1       1.555  -0.185  -1.160  0.00  0.00    -0.085 HD
BRANCH  20  24
ATOM     23  C   UNL     1      -0.151   1.320   0.182  0.00  0.00    -0.017 C 
ATOM     24  C   UNL     1      -0.010  -0.203   0.150  0.00  0.00    -0.086 C 
ENDBRANCH  20  24
ENDBRANCH  19  20
ENDBRANCH   1  19
TORSDOF 5
