REMARK  Name = ZINC39850359
REMARK  9 active torsions:
REMARK  status: ('A' for Active; 'I' for Inactive)
REMARK    1  A    between atoms: C_1  and  C_2
REMARK    2  A    between atoms: C_2  and  C_3
REMARK    3  A    between atoms: C_3  and  O_4
REMARK    4  A    between atoms: O_4  and  C_5
REMARK    5  A    between atoms: C_8  and  C_11
REMARK    6  A    between atoms: C_13  and  C_25
REMARK    7  A    between atoms: C_15  and  C_20
REMARK    8  A    between atoms: C_15  and  O_24
REMARK    9  A    between atoms: C_25  and  C_27
REMARK                            x       y       z     vdW  Elec       q    Type
REMARK                         _______ _______ _______ _____ _____    ______ ____
ROOT
ATOM      1  C   UNL     1       3.561  -4.007   5.141  0.00  0.00    +0.120 C 
ATOM      2  C   UNL     1       4.702  -5.027   5.078  0.00  0.00    +0.145 C 
ATOM      3  C   UNL     1       4.690  -5.854   6.368  0.00  0.00    +0.243 C 
ATOM      4  N   UNL     1       3.368  -6.458   6.539  0.00  0.00    -0.264 N 
ATOM      5  C   UNL     1       2.264  -5.870   6.053  0.00  0.00    +0.302 C 
ATOM      6  O   UNL     1       1.189  -6.409   6.232  0.00  0.00    -0.253 OA
ATOM      7  N   UNL     1       2.299  -4.710   5.380  0.00  0.00    -0.292 N 
ATOM      8  H   UNL     1       3.288  -7.300   7.013  0.00  0.00    +0.153 HD
ATOM      9  H   UNL     1       1.473  -4.331   5.043  0.00  0.00    +0.151 HD
ENDROOT
BRANCH   1  13
ATOM     10  C   UNL     1       3.335  -1.884   1.439  0.00  0.00    +0.121 A 
ATOM     11  C   UNL     1       2.663  -3.088   1.592  0.00  0.00    +0.046 A 
ATOM     12  C   UNL     1       2.738  -3.773   2.789  0.00  0.00    +0.009 A 
ATOM     13  C   UNL     1       3.481  -3.258   3.836  0.00  0.00    -0.026 A 
ATOM     14  C   UNL     1       4.151  -2.058   3.687  0.00  0.00    +0.009 A 
ATOM     15  C   UNL     1       4.085  -1.373   2.489  0.00  0.00    +0.046 A 
BRANCH  10  16
ATOM     16  O   UNL     1       3.263  -1.209   0.262  0.00  0.00    -0.492 OA
BRANCH  16  17
ATOM     17  C   UNL     1       2.473  -1.794  -0.774  0.00  0.00    +0.229 C 
BRANCH  17  19
ATOM     18  C   UNL     1       1.665  -1.525  -3.123  0.00  0.00    +0.007 C 
ATOM     19  C   UNL     1       2.511  -0.898  -2.014  0.00  0.00    +0.038 C 
ENDBRANCH  17  19
ENDBRANCH  16  17
ENDBRANCH  10  16
ENDBRANCH   1  13
BRANCH   3  20
ATOM     20  C   UNL     1       5.748  -6.955   6.280  0.00  0.00    +0.436 C 
ATOM     21  F   UNL     1       7.011  -6.377   6.109  0.00  0.00    -0.166 F 
ATOM     22  F   UNL     1       5.736  -7.709   7.458  0.00  0.00    -0.166 F 
ATOM     23  F   UNL     1       5.465  -7.787   5.191  0.00  0.00    -0.166 F 
ENDBRANCH   3  20
BRANCH   3  24
ATOM     24  O   UNL     1       4.975  -5.005   7.482  0.00  0.00    -0.364 OA
ATOM     25  H   UNL     1       4.984  -5.463   8.333  0.00  0.00    +0.212 HD
ENDBRANCH   3  24
BRANCH   2  26
ATOM     26  C   UNL     1       4.506  -5.934   3.890  0.00  0.00    +0.179 C 
ATOM     27  O   UNL     1       3.415  -6.421   3.672  0.00  0.00    -0.291 OA
BRANCH  26  28
ATOM     28  C   UNL     1       5.590  -6.216   3.030  0.00  0.00    +0.055 A 
ATOM     29  C   UNL     1       5.620  -7.012   1.889  0.00  0.00    +0.019 A 
ATOM     30  C   UNL     1       6.834  -7.096   1.255  0.00  0.00    +0.008 A 
ATOM     31  C   UNL     1       7.894  -6.418   1.765  0.00  0.00    +0.046 A 
ATOM     32  S   UNL     1       7.274  -5.638   3.118  0.00  0.00    -0.094 S 
ENDBRANCH  26  28
ENDBRANCH   2  26
TORSDOF 8
