REMARK  Name = ZINC41539019
REMARK  10 active torsions:
REMARK  status: ('A' for Active; 'I' for Inactive)
REMARK    1  A    between atoms: C_1  and  C_2
REMARK    2  A    between atoms: C_3  and  C_9
REMARK    3  A    between atoms: C_4  and  C_8
REMARK    4  A    between atoms: N_5  and  C_7
REMARK    5  A    between atoms: C_9  and  N_10
REMARK    6  A    between atoms: C_11  and  C_13
REMARK    7  A    between atoms: C_16  and  N_22
REMARK    8  A    between atoms: C_17  and  N_19
REMARK    9  A    between atoms: N_22  and  C_23
REMARK   10  A    between atoms: N_22  and  C_24
REMARK                            x       y       z     vdW  Elec       q    Type
REMARK                         _______ _______ _______ _____ _____    ______ ____
ROOT
ATOM      1  N   UNL     1       1.370  -0.170  -3.036  0.00  0.00    -0.307 N 
ATOM      2  C   UNL     1       1.604   0.251  -4.295  0.00  0.00    +0.244 C 
ATOM      3  O   UNL     1       0.673   0.487  -5.040  0.00  0.00    -0.270 OA
ATOM      4  H   UNL     1       2.114  -0.358  -2.442  0.00  0.00    +0.149 HD
ENDROOT
BRANCH   2   5
ATOM      5  C   UNL     1       2.990   0.426  -4.769  0.00  0.00    +0.039 A 
ATOM      6  C   UNL     1       4.062   0.149  -3.915  0.00  0.00    +0.015 A 
ATOM      7  C   UNL     1       5.354   0.312  -4.360  0.00  0.00    +0.026 A 
ATOM      8  C   UNL     1       5.594   0.753  -5.659  0.00  0.00    +0.060 A 
ATOM      9  C   UNL     1       4.529   1.030  -6.511  0.00  0.00    +0.148 A 
ATOM     10  C   UNL     1       3.235   0.862  -6.074  0.00  0.00    +0.047 A 
BRANCH   9  11
ATOM     11  N   UNL     1       4.788   1.499  -7.891  0.00  0.00    +0.058 N 
ATOM     12  O   UNL     1       3.863   1.739  -8.632  0.00  0.00    -0.126 OA
ATOM     13  O   UNL     1       5.925   1.641  -8.277  0.00  0.00    -0.126 OA
ENDBRANCH   9  11
BRANCH   8  14
ATOM     14  N   UNL     1       6.901   0.917  -6.106  0.00  0.00    -0.334 N 
ATOM     15  C   UNL     1       7.601  -0.198  -6.747  0.00  0.00    +0.129 C 
ATOM     16  C   UNL     1       7.576   2.206  -5.936  0.00  0.00    +0.129 C 
ENDBRANCH   8  14
ENDBRANCH   2   5
BRANCH   1  17
ATOM     17  C   UNL     1      -0.006  -0.343  -2.566  0.00  0.00    +0.143 C 
BRANCH  17  20
ATOM     18  C   UNL     1      -0.018   1.503   0.010  0.00  0.00    +0.068 C 
ATOM     19  C   UNL     1       0.002  -0.004   0.002  0.00  0.00    +0.065 A 
ATOM     20  C   UNL     1       0.008  -0.818  -1.135  0.00  0.00    +0.013 A 
ATOM     21  C   UNL     1       0.028  -2.107  -0.725  0.00  0.00    +0.041 A 
ATOM     22  N   UNL     1       0.034  -2.109   0.625  0.00  0.00    -0.271 N 
ATOM     23  N   UNL     1       0.023  -0.777   1.058  0.00  0.00    -0.176 NA
ATOM     24  C   UNL     1       0.055  -3.295   1.485  0.00  0.00    +0.172 C 
ATOM     25  C   UNL     1       0.040  -3.323  -1.615  0.00  0.00    +0.065 C 
ENDBRANCH  17  20
ENDBRANCH   1  17
TORSDOF 5
