REMARK  Name = ZINC33033992
REMARK  13 active torsions:
REMARK  status: ('A' for Active; 'I' for Inactive)
REMARK    1  A    between atoms: C_1  and  C_2
REMARK    2  A    between atoms: C_2  and  C_3
REMARK    3  A    between atoms: C_3  and  C_5
REMARK    4  A    between atoms: C_3  and  N_6
REMARK    5  A    between atoms: C_7  and  C_9
REMARK    6  A    between atoms: C_12  and  N_29
REMARK    7  A    between atoms: C_13  and  N_15
REMARK    8  A    between atoms: N_15  and  S_16
REMARK    9  A    between atoms: S_16  and  C_19
REMARK   10  A    between atoms: C_22  and  C_25
REMARK   11  A    between atoms: C_25  and  C_26
REMARK   12  A    between atoms: C_26  and  C_27
REMARK   13  A    between atoms: C_26  and  C_28
REMARK                            x       y       z     vdW  Elec       q    Type
REMARK                         _______ _______ _______ _____ _____    ______ ____
ROOT
ATOM      1  C   UNL     1      -7.694   4.550   2.124  0.00  0.00    +0.039 A 
ATOM      2  C   UNL     1      -7.760   4.914   3.471  0.00  0.00    +0.015 A 
ATOM      3  C   UNL     1      -7.495   3.982   4.451  0.00  0.00    +0.026 A 
ATOM      4  C   UNL     1      -7.161   2.679   4.104  0.00  0.00    +0.052 A 
ATOM      5  C   UNL     1      -7.093   2.308   2.758  0.00  0.00    +0.070 A 
ATOM      6  C   UNL     1      -7.353   3.240   1.772  0.00  0.00    +0.039 A 
ENDROOT
BRANCH   4   7
ATOM      7  N   UNL     1      -6.894   1.740   5.098  0.00  0.00    -0.332 N 
ATOM      8  C   UNL     1      -6.773   2.386   6.413  0.00  0.00    +0.086 C 
ATOM      9  C   UNL     1      -6.402   1.335   7.462  0.00  0.00    -0.063 C 
ATOM     10  N   UNL     1      -7.431   0.287   7.487  0.00  0.00    +0.381 N 
ATOM     11  C   UNL     1      -7.553  -0.359   6.173  0.00  0.00    -0.063 C 
ATOM     12  C   UNL     1      -7.924   0.692   5.123  0.00  0.00    +0.086 C 
ATOM     13  H   UNL     1      -7.160  -0.475   8.232  0.00  0.00    -0.086 HD
ATOM     14  H   UNL     1      -8.402   0.732   7.754  0.00  0.00    -0.086 HD
ENDBRANCH   4   7
BRANCH   1  16
ATOM     15  N   UNL     1      -8.302   6.810   1.415  0.00  0.00    -0.309 N 
ATOM     16  C   UNL     1      -7.978   5.547   1.074  0.00  0.00    +0.244 C 
ATOM     17  O   UNL     1      -7.920   5.229  -0.098  0.00  0.00    -0.270 OA
ATOM     18  H   UNL     1      -8.354   7.097   2.475  0.00  0.00    +0.149 HD
BRANCH  15  19
ATOM     19  C   UNL     1      -8.584   7.800   0.373  0.00  0.00    +0.070 C 
ATOM     20  C   UNL     1     -10.050   7.694  -0.048  0.00  0.00    +0.028 C 
BRANCH  19  22
ATOM     21  C   UNL     1      -6.817   9.351   1.220  0.00  0.00    +0.005 C 
ATOM     22  C   UNL     1      -8.309   9.204   0.915  0.00  0.00    +0.018 C 
ENDBRANCH  19  22
ENDBRANCH  15  19
ENDBRANCH   1  16
BRANCH   5  23
ATOM     23  N   UNL     1      -6.757   0.994   2.409  0.00  0.00    -0.214 N 
ATOM     24  H   UNL     1      -7.536   0.219   2.369  0.00  0.00    +0.174 HD
BRANCH  23  25
ATOM     25  S   UNL     1      -5.185   0.607   2.058  0.00  0.00    +0.072 S 
ATOM     26  O   UNL     1      -4.738   1.556   1.099  0.00  0.00    -0.150 OA
ATOM     27  O   UNL     1      -5.156  -0.792   1.815  0.00  0.00    -0.150 OA
BRANCH  25  28
ATOM     28  C   UNL     1      -4.241   0.885   3.519  0.00  0.00    +0.109 A 
ATOM     29  C   UNL     1      -4.071  -0.135   4.436  0.00  0.00    +0.029 A 
ATOM     30  C   UNL     1      -3.329   0.083   5.582  0.00  0.00    +0.005 A 
ATOM     31  C   UNL     1      -2.757   1.320   5.811  0.00  0.00    -0.047 A 
ATOM     32  C   UNL     1      -2.931   2.341   4.896  0.00  0.00    +0.005 A 
ATOM     33  C   UNL     1      -3.669   2.123   3.748  0.00  0.00    +0.029 A 
BRANCH  31  34
ATOM     34  C   UNL     1      -1.948   1.557   7.060  0.00  0.00    +0.038 C 
BRANCH  34  35
ATOM     35  C   UNL     1      -0.482   1.213   6.791  0.00  0.00    -0.013 C 
ATOM     36  C   UNL     1      -0.353  -0.284   6.504  0.00  0.00    +0.007 C 
ATOM     37  C   UNL     1       0.359   1.571   8.018  0.00  0.00    +0.007 C 
ENDBRANCH  34  35
ENDBRANCH  31  34
ENDBRANCH  25  28
ENDBRANCH  23  25
ENDBRANCH   5  23
TORSDOF 9
