REMARK  Name = ZINC03225241
REMARK  4 active torsions:
REMARK  status: ('A' for Active; 'I' for Inactive)
REMARK    1  A    between atoms: C_5  and  C_7
REMARK    2  A    between atoms: C_12  and  C_24
REMARK    3  A    between atoms: C_13  and  S_20
REMARK    4  A    between atoms: S_20  and  N_23
REMARK                            x       y       z     vdW  Elec       q    Type
REMARK                         _______ _______ _______ _____ _____    ______ ____
ROOT
ATOM      1  C   UNL     1       3.656   1.650  -0.437  0.00  0.00    +0.192 C 
ATOM      2  N   UNL     1       2.386   1.080   0.004  0.00  0.00    -0.322 N 
ATOM      3  C   UNL     1       1.187   1.787   0.000  0.00  0.00    +0.056 A 
ATOM      4  C   UNL     1      -0.013   1.076   0.008  0.00  0.00    +0.039 A 
ATOM      5  C   UNL     1      -1.217   1.747   0.017  0.00  0.00    +0.083 A 
ATOM      6  C   UNL     1      -1.245   3.129   0.035  0.00  0.00    +0.119 A 
ATOM      7  C   UNL     1      -0.060   3.842   0.028  0.00  0.00    +0.059 A 
ATOM      8  C   UNL     1       1.147   3.175   0.005  0.00  0.00    +0.128 A 
ATOM      9  S   UNL     1       2.658   4.090  -0.027  0.00  0.00    +0.062 S 
ATOM     10  O   UNL     1       2.648   4.949   1.105  0.00  0.00    -0.153 OA
ATOM     11  O   UNL     1       2.827   4.569  -1.354  0.00  0.00    -0.153 OA
ATOM     12  N   UNL     1       3.849   2.952   0.235  0.00  0.00    -0.166 NA
ATOM     13  H   UNL     1       2.378   0.161   0.316  0.00  0.00    +0.148 HD
ATOM     14  H   UNL     1       4.621   3.133   0.794  0.00  0.00    +0.150 HD
ENDROOT
BRANCH   1  19
ATOM     15  C   UNL     1       2.768   1.264  -4.086  0.00  0.00    +0.000 A 
ATOM     16  C   UNL     1       3.578   2.221  -4.670  0.00  0.00    +0.001 A 
ATOM     17  C   UNL     1       4.413   2.993  -3.885  0.00  0.00    +0.015 A 
ATOM     18  C   UNL     1       4.439   2.808  -2.514  0.00  0.00    +0.024 A 
ATOM     19  C   UNL     1       3.629   1.852  -1.930  0.00  0.00    +0.002 A 
ATOM     20  C   UNL     1       2.798   1.076  -2.717  0.00  0.00    +0.008 A 
ATOM     21 BR   UNL     1       5.581   3.865  -1.439  0.00  0.00    -0.050 Br
ENDBRANCH   1  19
BRANCH   5  22
ATOM     22  C   UNL     1      -2.509   0.970   0.013  0.00  0.00    +0.419 C 
ATOM     23  F   UNL     1      -2.228  -0.401  -0.001  0.00  0.00    -0.166 F 
ATOM     24  F   UNL     1      -3.245   1.284   1.160  0.00  0.00    -0.166 F 
ATOM     25  F   UNL     1      -3.251   1.306  -1.124  0.00  0.00    -0.166 F 
ENDBRANCH   5  22
BRANCH   6  26
ATOM     26  S   UNL     1      -2.788   3.981   0.061  0.00  0.00    +0.057 S 
ATOM     27  O   UNL     1      -3.564   3.384   1.091  0.00  0.00    -0.153 OA
ATOM     28  O   UNL     1      -2.486   5.369   0.043  0.00  0.00    -0.153 OA
BRANCH  26  29
ATOM     29  N   UNL     1      -3.556   3.645  -1.367  0.00  0.00    -0.203 NA
ATOM     30  H   UNL     1      -4.525   3.626  -1.403  0.00  0.00    +0.144 HD
ATOM     31  H   UNL     1      -3.037   3.468  -2.167  0.00  0.00    +0.144 HD
ENDBRANCH  26  29
ENDBRANCH   6  26
TORSDOF 4
