REMARK  Name = ZINC14302510
REMARK  6 active torsions:
REMARK  status: ('A' for Active; 'I' for Inactive)
REMARK    1  A    between atoms: C_1  and  C_2
REMARK    2  A    between atoms: C_3  and  C_16
REMARK    3  A    between atoms: C_16  and  C_17
REMARK    4  A    between atoms: C_17  and  C_18
REMARK    5  A    between atoms: N_20  and  C_21
REMARK    6  A    between atoms: C_27  and  C_29
REMARK                            x       y       z     vdW  Elec       q    Type
REMARK                         _______ _______ _______ _____ _____    ______ ____
ROOT
ATOM      1  C   UNL     1      -0.209   5.183   0.030  0.00  0.00    +0.066 C 
ATOM      2  C   UNL     1      -0.124   3.678   0.022  0.00  0.00    +0.050 A 
ATOM      3  C   UNL     1       1.094   3.064   0.008  0.00  0.00    +0.038 A 
ATOM      4  C   UNL     1       1.147   1.659   0.000  0.00  0.00    +0.256 A 
ATOM      5  O   UNL     1       2.220   1.077  -0.013  0.00  0.00    -0.267 OA
ATOM      6  N   UNL     1      -0.011   0.966   0.007  0.00  0.00    -0.295 N 
ATOM      7  H   UNL     1       0.002  -0.004   0.002  0.00  0.00    +0.172 HD
ATOM      8  C   UNL     1      -1.197   1.632   0.017  0.00  0.00    +0.199 A 
ATOM      9  N   UNL     1      -1.238   2.950   0.029  0.00  0.00    -0.221 NA
ATOM     10  N   UNL     1      -2.368   0.922   0.019  0.00  0.00    -0.297 N 
ATOM     11  C   UNL     1      -2.379  -0.078  -1.058  0.00  0.00    +0.136 C 
ATOM     12  C   UNL     1      -3.677  -0.887  -0.983  0.00  0.00    +0.179 C 
ATOM     13  O   UNL     1      -4.793   0.004  -1.059  0.00  0.00    -0.377 OA
ATOM     14  C   UNL     1      -4.814   0.991  -0.024  0.00  0.00    +0.179 C 
ATOM     15  C   UNL     1      -3.528   1.819  -0.091  0.00  0.00    +0.136 C 
ENDROOT
BRANCH   3  16
ATOM     16  C   UNL     1       2.362   3.879  -0.001  0.00  0.00    +0.051 C 
BRANCH  16  17
ATOM     17  C   UNL     1       2.873   4.042   1.432  0.00  0.00    +0.100 C 
BRANCH  17  18
ATOM     18  C   UNL     1       4.141   4.856   1.424  0.00  0.00    +0.214 C 
ATOM     19  O   UNL     1       4.592   5.266   0.375  0.00  0.00    -0.276 OA
ATOM     20  N   UNL     1       4.774   5.129   2.582  0.00  0.00    -0.312 N 
ATOM     21  H   UNL     1       4.414   4.801   3.421  0.00  0.00    +0.149 HD
BRANCH  20  22
ATOM     22  C   UNL     1       6.007   5.921   2.574  0.00  0.00    +0.076 C 
ATOM     23  C   UNL     1       7.201   5.003   2.307  0.00  0.00    +0.022 C 
ATOM     24  C   UNL     1       7.284   3.941   3.406  0.00  0.00    +0.002 C 
ATOM     25  C   UNL     1       7.460   4.625   4.764  0.00  0.00    +0.000 C 
ATOM     26  C   UNL     1       6.265   5.543   5.030  0.00  0.00    +0.005 C 
ATOM     27  C   UNL     1       6.183   6.605   3.931  0.00  0.00    +0.006 C 
ATOM     28  C   UNL     1       4.988   7.523   4.198  0.00  0.00    +0.009 C 
ENDBRANCH  20  22
ENDBRANCH  17  18
ENDBRANCH  16  17
ENDBRANCH   3  16
TORSDOF 4
