REMARK  Name = ZINC33033150
REMARK  11 active torsions:
REMARK  status: ('A' for Active; 'I' for Inactive)
REMARK    1  A    between atoms: C_1  and  C_2
REMARK    2  A    between atoms: C_2  and  C_3
REMARK    3  A    between atoms: C_3  and  N_4
REMARK    4  A    between atoms: C_5  and  C_7
REMARK    5  A    between atoms: C_7  and  N_8
REMARK    6  A    between atoms: N_8  and  C_9
REMARK    7  A    between atoms: C_10  and  C_12
REMARK    8  A    between atoms: C_15  and  N_23
REMARK    9  A    between atoms: C_16  and  N_18
REMARK   10  A    between atoms: N_18  and  S_19
REMARK   11  A    between atoms: S_19  and  C_22
REMARK                            x       y       z     vdW  Elec       q    Type
REMARK                         _______ _______ _______ _____ _____    ______ ____
ROOT
ATOM      1  C   UNL     1      -1.821   2.352   0.027  0.00  0.00    +0.039 A 
ATOM      2  C   UNL     1      -1.808   3.679  -0.408  0.00  0.00    +0.015 A 
ATOM      3  C   UNL     1      -2.993   4.365  -0.564  0.00  0.00    +0.026 A 
ATOM      4  C   UNL     1      -4.202   3.743  -0.280  0.00  0.00    +0.052 A 
ATOM      5  C   UNL     1      -4.222   2.416   0.160  0.00  0.00    +0.069 A 
ATOM      6  C   UNL     1      -3.036   1.723   0.313  0.00  0.00    +0.039 A 
ENDROOT
BRANCH   4   7
ATOM      7  N   UNL     1      -5.398   4.442  -0.434  0.00  0.00    -0.332 N 
ATOM      8  C   UNL     1      -5.146   5.872  -0.661  0.00  0.00    +0.086 C 
ATOM      9  C   UNL     1      -6.481   6.615  -0.745  0.00  0.00    -0.063 C 
ATOM     10  N   UNL     1      -7.287   6.046  -1.835  0.00  0.00    +0.381 N 
ATOM     11  C   UNL     1      -7.539   4.617  -1.608  0.00  0.00    -0.063 C 
ATOM     12  C   UNL     1      -6.204   3.873  -1.524  0.00  0.00    +0.086 C 
ATOM     13  H   UNL     1      -8.252   6.571  -1.889  0.00  0.00    -0.086 HD
ATOM     14  H   UNL     1      -6.751   6.165  -2.788  0.00  0.00    -0.086 HD
ENDBRANCH   4   7
BRANCH   1  17
ATOM     15  N   UNL     1       0.535   1.983  -0.517  0.00  0.00    -0.292 N 
ATOM     16  C   UNL     1       0.431   3.042  -1.524  0.00  0.00    +0.133 C 
ATOM     17  C   UNL     1      -0.552   1.616   0.189  0.00  0.00    +0.247 C 
ATOM     18  O   UNL     1      -0.489   0.674   0.957  0.00  0.00    -0.270 OA
BRANCH  15  19
ATOM     19  C   UNL     1       1.821   1.323  -0.278  0.00  0.00    +0.203 C 
BRANCH  19  21
ATOM     20  N   UNL     1       3.056  -0.639  -1.140  0.00  0.00    -0.314 N 
ATOM     21  C   UNL     1       1.948   0.126  -1.185  0.00  0.00    +0.230 C 
ATOM     22  O   UNL     1       1.052  -0.149  -1.955  0.00  0.00    -0.274 OA
ATOM     23  H   UNL     1       3.869  -0.390  -0.442  0.00  0.00    +0.149 HD
BRANCH  20  24
ATOM     24  C   UNL     1       3.179  -1.803  -2.022  0.00  0.00    +0.104 C 
BRANCH  24  26
ATOM     25  C   UNL     1       4.651  -3.707  -2.693  0.00  0.00    +0.005 C 
ATOM     26  C   UNL     1       4.522  -2.492  -1.772  0.00  0.00    +0.015 C 
ENDBRANCH  24  26
ENDBRANCH  20  24
ENDBRANCH  19  21
ENDBRANCH  15  19
ENDBRANCH   1  17
BRANCH   5  27
ATOM     27  N   UNL     1      -5.441   1.791   0.446  0.00  0.00    -0.219 N 
ATOM     28  H   UNL     1      -6.043   1.360  -0.368  0.00  0.00    +0.173 HD
BRANCH  27  29
ATOM     29  S   UNL     1      -5.979   1.700   2.010  0.00  0.00    +0.040 S 
ATOM     30  O   UNL     1      -7.209   0.993   1.931  0.00  0.00    -0.155 OA
ATOM     31  O   UNL     1      -4.882   1.165   2.740  0.00  0.00    -0.155 OA
ATOM     32  C   UNL     1      -6.277   3.420   2.502  0.00  0.00    +0.218 C 
ENDBRANCH  27  29
ENDBRANCH   5  27
TORSDOF 8
