REMARK  Name = ZINC67412324
REMARK  10 active torsions:
REMARK  status: ('A' for Active; 'I' for Inactive)
REMARK    1  A    between atoms: C_1  and  C_2
REMARK    2  A    between atoms: C_2  and  N_3
REMARK    3  A    between atoms: C_4  and  C_29
REMARK    4  A    between atoms: C_5  and  C_9
REMARK    5  A    between atoms: C_6  and  C_8
REMARK    6  A    between atoms: C_9  and  N_10
REMARK    7  A    between atoms: N_13  and  C_14
REMARK    8  A    between atoms: C_14  and  C_15
REMARK    9  A    between atoms: N_21  and  C_22
REMARK   10  A    between atoms: C_22  and  C_23
REMARK                            x       y       z     vdW  Elec       q    Type
REMARK                         _______ _______ _______ _____ _____    ______ ____
ROOT
ATOM      1  N   UNL     1       1.075  -0.595  -5.795  0.00  0.00    -0.295 N 
ATOM      2  C   UNL     1       0.884  -0.616  -7.129  0.00  0.00    +0.300 C 
ATOM      3  O   UNL     1       0.554  -1.648  -7.680  0.00  0.00    -0.253 OA
ATOM      4  N   UNL     1       1.058   0.508  -7.852  0.00  0.00    -0.301 N 
ATOM      5  H   UNL     1       1.339   0.228  -5.355  0.00  0.00    +0.151 HD
ATOM      6  H   UNL     1       1.321   1.332  -7.412  0.00  0.00    +0.150 HD
ENDROOT
BRANCH   1   7
ATOM      7  C   UNL     1       0.886  -1.817  -5.009  0.00  0.00    +0.144 C 
BRANCH   7  10
ATOM      8  N   UNL     1       0.893  -0.970  -1.462  0.00  0.00    -0.268 N 
ATOM      9  C   UNL     1       0.253  -1.116  -2.640  0.00  0.00    +0.041 A 
ATOM     10  C   UNL     1       1.161  -1.527  -3.556  0.00  0.00    +0.013 A 
ATOM     11  C   UNL     1       2.399  -1.636  -2.914  0.00  0.00    +0.065 A 
ATOM     12  N   UNL     1       2.241  -1.296  -1.661  0.00  0.00    -0.176 NA
ATOM     13  C   UNL     1       3.693  -2.064  -3.558  0.00  0.00    +0.068 C 
ATOM     14  C   UNL     1      -1.212  -0.867  -2.892  0.00  0.00    +0.065 C 
BRANCH   8  16
ATOM     15  C   UNL     1       0.362   0.984  -0.091  0.00  0.00    +0.029 C 
ATOM     16  C   UNL     1       0.288  -0.540  -0.199  0.00  0.00    +0.140 C 
ENDBRANCH   8  16
ENDBRANCH   7  10
ENDBRANCH   1   7
BRANCH   4  17
ATOM     17  C   UNL     1       0.849   0.486  -9.302  0.00  0.00    +0.090 C 
BRANCH  17  18
ATOM     18  C   UNL     1       0.992   1.904  -9.859  0.00  0.00    -0.051 C 
ATOM     19  C   UNL     1      -0.139   2.781  -9.318  0.00  0.00    -0.014 C 
ATOM     20  C   UNL     1       0.009   4.198  -9.879  0.00  0.00    -0.003 C 
ATOM     21  C   UNL     1       1.392   4.742  -9.509  0.00  0.00    -0.019 C 
ATOM     22  C   UNL     1       2.466   3.792 -10.043  0.00  0.00    -0.078 C 
ATOM     23  N   UNL     1       2.287   2.462  -9.450  0.00  0.00    +0.385 N 
ATOM     24  H   UNL     1       2.317   2.536  -8.444  0.00  0.00    -0.081 HD
BRANCH  23  25
ATOM     25  C   UNL     1       3.366   1.575  -9.904  0.00  0.00    -0.043 C 
BRANCH  25  26
ATOM     26  C   UNL     1       4.684   2.074  -9.371  0.00  0.00    -0.064 A 
ATOM     27  C   UNL     1       5.427   2.981 -10.103  0.00  0.00    +0.002 A 
ATOM     28  C   UNL     1       6.636   3.439  -9.614  0.00  0.00    +0.000 A 
ATOM     29  C   UNL     1       7.103   2.990  -8.392  0.00  0.00    +0.000 A 
ATOM     30  C   UNL     1       6.359   2.083  -7.660  0.00  0.00    +0.000 A 
ATOM     31  C   UNL     1       5.148   1.629  -8.147  0.00  0.00    +0.002 A 
ENDBRANCH  25  26
ENDBRANCH  23  25
ENDBRANCH  17  18
ENDBRANCH   4  17
TORSDOF 7
