REMARK  Name = ZINC10139030
REMARK  9 active torsions:
REMARK  status: ('A' for Active; 'I' for Inactive)
REMARK    1  A    between atoms: C_1  and  C_2
REMARK    2  A    between atoms: C_2  and  C_3
REMARK    3  A    between atoms: C_2  and  C_4
REMARK    4  A    between atoms: C_4  and  C_6
REMARK    5  A    between atoms: C_4  and  N_56
REMARK    6  A    between atoms: C_13  and  C_14
REMARK    7  A    between atoms: C_13  and  N_56
REMARK    8  A    between atoms: N_19  and  C_22
REMARK    9  A    between atoms: C_27  and  N_28
REMARK                            x       y       z     vdW  Elec       q    Type
REMARK                         _______ _______ _______ _____ _____    ______ ____
ROOT
ATOM      1  C   UNL     1      -1.142  -2.449   3.061  0.00  0.00    +0.199 C 
ATOM      2  O   UNL     1      -0.173  -3.011   2.598  0.00  0.00    -0.278 OA
ATOM      3  N   UNL     1      -2.169  -3.170   3.553  0.00  0.00    -0.300 N 
ATOM      4  C   UNL     1      -3.352  -2.508   4.124  0.00  0.00    +0.126 C 
ATOM      5  C   UNL     1      -4.604  -3.103   3.462  0.00  0.00    +0.124 C 
ATOM      6  N   UNL     1      -4.581  -4.565   3.606  0.00  0.00    -0.325 N 
ATOM      7  C   UNL     1      -3.432  -5.152   2.903  0.00  0.00    +0.124 C 
ATOM      8  C   UNL     1      -2.134  -4.640   3.537  0.00  0.00    +0.126 C 
ENDROOT
BRANCH   6   9
ATOM      9  C   UNL     1      -5.780  -5.131   3.166  0.00  0.00    +0.060 A 
ATOM     10  C   UNL     1      -6.150  -5.026   1.831  0.00  0.00    +0.025 A 
ATOM     11  C   UNL     1      -7.333  -5.591   1.398  0.00  0.00    +0.002 A 
ATOM     12  C   UNL     1      -8.154  -6.252   2.294  0.00  0.00    +0.002 A 
ATOM     13  C   UNL     1      -7.791  -6.353   3.624  0.00  0.00    +0.034 A 
ATOM     14  C   UNL     1      -6.606  -5.795   4.063  0.00  0.00    +0.147 A 
BRANCH  14  15
ATOM     15  N   UNL     1      -6.219  -5.904   5.487  0.00  0.00    +0.058 N 
ATOM     16  O   UNL     1      -6.945  -6.486   6.273  0.00  0.00    -0.126 OA
ATOM     17  O   UNL     1      -5.175  -5.410   5.873  0.00  0.00    -0.126 OA
ENDBRANCH  14  15
ENDBRANCH   6   9
BRANCH   1  18
ATOM     18  C   UNL     1      -1.199  -0.943   3.087  0.00  0.00    +0.016 C 
BRANCH  18  19
ATOM     19  N   UNL     1       0.039  -0.402   2.494  0.00  0.00    +0.389 N 
ATOM     20  H   UNL     1       0.846  -0.730   3.038  0.00  0.00    -0.084 HD
ATOM     21  H   UNL     1       0.123  -0.732   1.526  0.00  0.00    -0.084 HD
BRANCH  19  22
ATOM     22  C   UNL     1       0.011   1.072   2.506  0.00  0.00    -0.038 C 
BRANCH  22  23
ATOM     23  C   UNL     1       1.425   1.594   2.496  0.00  0.00    -0.061 A 
ATOM     24  C   UNL     1       2.385   0.973   1.718  0.00  0.00    +0.003 A 
ATOM     25  C   UNL     1       3.680   1.455   1.703  0.00  0.00    +0.020 A 
ATOM     26  C   UNL     1       4.019   2.551   2.476  0.00  0.00    +0.041 A 
ATOM     27  C   UNL     1       3.060   3.168   3.259  0.00  0.00    +0.020 A 
ATOM     28  C   UNL     1       1.763   2.690   3.268  0.00  0.00    +0.003 A 
ATOM     29 CL   UNL     1       5.648   3.152   2.464  0.00  0.00    -0.084 Cl
ENDBRANCH  22  23
BRANCH  22  31
ATOM     30  C   UNL     1      -0.013   1.086   0.008  0.00  0.00    +0.006 C 
ATOM     31  C   UNL     1      -0.729   1.579   1.267  0.00  0.00    -0.027 C 
ATOM     32  C   UNL     1      -0.750   3.109   1.275  0.00  0.00    +0.006 C 
ENDBRANCH  22  31
ENDBRANCH  19  22
ENDBRANCH  18  19
ENDBRANCH   1  18
TORSDOF 7
