REMARK  Name = ZINC19904924
REMARK  14 active torsions:
REMARK  status: ('A' for Active; 'I' for Inactive)
REMARK    1  A    between atoms: C_1  and  C_2
REMARK    2  A    between atoms: C_7  and  N_8
REMARK    3  A    between atoms: C_9  and  C_11
REMARK    4  A    between atoms: C_11  and  S_12
REMARK    5  A    between atoms: S_12  and  C_13
REMARK    6  A    between atoms: C_14  and  C_35
REMARK    7  A    between atoms: C_15  and  C_28
REMARK    8  A    between atoms: C_17  and  C_21
REMARK    9  A    between atoms: C_18  and  C_20
REMARK   10  A    between atoms: C_21  and  O_23
REMARK   11  A    between atoms: O_23  and  C_24
REMARK   12  A    between atoms: C_24  and  C_25
REMARK   13  A    between atoms: C_24  and  C_26
REMARK   14  A    between atoms: C_24  and  C_27
REMARK                            x       y       z     vdW  Elec       q    Type
REMARK                         _______ _______ _______ _____ _____    ______ ____
ROOT
ATOM      1  C   UNL     1       3.835   3.300   0.381  0.00  0.00    +0.080 C 
ATOM      2  C   UNL     1       2.704   4.050   0.303  0.00  0.00    +0.069 C 
ATOM      3  C   UNL     1       1.394   3.445  -0.120  0.00  0.00    +0.100 C 
ATOM      4  C   UNL     1       1.446   1.946  -0.028  0.00  0.00    +0.066 C 
ATOM      5  C   UNL     1       2.612   1.284   0.062  0.00  0.00    +0.016 C 
ATOM      6  N   UNL     1       3.803   1.955   0.086  0.00  0.00    -0.312 N 
ATOM      7  C   UNL     1       2.606  -0.221   0.137  0.00  0.00    +0.061 C 
ATOM      8  H   UNL     1       4.738   1.417  -0.132  0.00  0.00    +0.152 HD
ENDROOT
BRANCH   3   9
ATOM      9  C   UNL     1       1.095   3.843  -1.543  0.00  0.00    -0.035 A 
ATOM     10  C   UNL     1       1.957   3.476  -2.559  0.00  0.00    +0.006 A 
ATOM     11  C   UNL     1       1.681   3.837  -3.864  0.00  0.00    +0.020 A 
ATOM     12  C   UNL     1       0.547   4.575  -4.152  0.00  0.00    +0.041 A 
ATOM     13  C   UNL     1      -0.313   4.947  -3.134  0.00  0.00    +0.020 A 
ATOM     14  C   UNL     1      -0.038   4.581  -1.830  0.00  0.00    +0.006 A 
ATOM     15 CL   UNL     1       0.203   5.034  -5.790  0.00  0.00    -0.084 Cl
ENDBRANCH   3   9
BRANCH   4  16
ATOM     16  C   UNL     1       0.237   1.214  -0.041  0.00  0.00    +0.338 C 
ATOM     17  O   UNL     1      -0.425   1.114   0.975  0.00  0.00    -0.245 OA
BRANCH  16  18
ATOM     18  O   UNL     1      -0.179   0.620  -1.179  0.00  0.00    -0.456 OA
BRANCH  18  19
ATOM     19  C   UNL     1      -1.406  -0.109  -1.119  0.00  0.00    +0.106 C 
ATOM     20  C   UNL     1      -2.540   0.833  -0.708  0.00  0.00    +0.055 C 
ATOM     21  C   UNL     1      -1.713  -0.707  -2.494  0.00  0.00    +0.055 C 
ATOM     22  C   UNL     1      -1.281  -1.235  -0.090  0.00  0.00    +0.055 C 
ENDBRANCH  18  19
ENDBRANCH  16  18
ENDBRANCH   4  16
BRANCH   2  23
ATOM     23  C   UNL     1       2.762   5.445   0.624  0.00  0.00    +0.098 C 
ATOM     24  N   UNL     1       2.809   6.551   0.879  0.00  0.00    -0.191 NA
ENDBRANCH   2  23
BRANCH   1  25
ATOM     25  S   UNL     1       5.353   4.053   0.864  0.00  0.00    -0.100 S 
BRANCH  25  26
ATOM     26  C   UNL     1       6.454   2.619   0.789  0.00  0.00    +0.171 C 
BRANCH  26  28
ATOM     27  N   UNL     1       8.845   2.127   1.189  0.00  0.00    -0.285 N 
ATOM     28  C   UNL     1       7.850   3.036   1.174  0.00  0.00    +0.227 C 
ATOM     29  O   UNL     1       8.078   4.190   1.470  0.00  0.00    -0.275 OA
ATOM     30  H   UNL     1       8.655   1.098   0.851  0.00  0.00    +0.155 HD
BRANCH  27  37
ATOM     31  C   UNL     1      10.388   0.186   2.584  0.00  0.00    +0.045 C 
ATOM     32  C   UNL     1      10.906   1.577   2.321  0.00  0.00    -0.029 A 
ATOM     33  C   UNL     1      12.164   1.941   2.760  0.00  0.00    +0.005 A 
ATOM     34  C   UNL     1      12.640   3.216   2.518  0.00  0.00    +0.000 A 
ATOM     35  C   UNL     1      11.860   4.131   1.835  0.00  0.00    +0.002 A 
ATOM     36  C   UNL     1      10.603   3.772   1.389  0.00  0.00    +0.023 A 
ATOM     37  C   UNL     1      10.120   2.493   1.635  0.00  0.00    +0.036 A 
ENDBRANCH  27  37
ENDBRANCH  26  28
ENDBRANCH  25  26
ENDBRANCH   1  25
TORSDOF 9
