REMARK  Name = ZINC36648003
REMARK  9 active torsions:
REMARK  status: ('A' for Active; 'I' for Inactive)
REMARK    1  A    between atoms: C_1  and  C_2
REMARK    2  A    between atoms: N_11  and  C_12
REMARK    3  A    between atoms: C_12  and  C_13
REMARK    4  A    between atoms: C_13  and  N_14
REMARK    5  A    between atoms: N_14  and  C_15
REMARK    6  A    between atoms: N_14  and  C_16
REMARK    7  A    between atoms: C_17  and  C_19
REMARK    8  A    between atoms: N_24  and  S_26
REMARK    9  A    between atoms: S_26  and  C_29
REMARK                            x       y       z     vdW  Elec       q    Type
REMARK                         _______ _______ _______ _____ _____    ______ ____
ROOT
ATOM      1  C   UNL     1       1.021   2.538   0.714  0.00  0.00    +0.047 C 
ATOM      2  C   UNL     1       0.786   1.085   0.390  0.00  0.00    -0.006 A 
ATOM      3  C   UNL     1       0.924   0.647  -0.902  0.00  0.00    +0.046 A 
ATOM      4  C   UNL     1       0.717  -0.682  -1.244  0.00  0.00    +0.021 A 
ATOM      5  C   UNL     1       0.364  -1.587  -0.259  0.00  0.00    +0.019 A 
ATOM      6  C   UNL     1       0.223  -1.158   1.037  0.00  0.00    +0.041 A 
ATOM      7  C   UNL     1       0.431   0.187   1.423  0.00  0.00    +0.085 A 
ATOM      8  N   UNL     1       0.260   0.451   2.736  0.00  0.00    -0.224 NA
ATOM      9  C   UNL     1      -0.073  -0.474   3.605  0.00  0.00    +0.168 A 
ATOM     10  S   UNL     1      -0.201  -1.932   2.579  0.00  0.00    -0.052 S 
ATOM     11  N   UNL     1      -0.281  -0.351   4.969  0.00  0.00    -0.252 N 
ATOM     12  C   UNL     1      -0.143   0.849   5.566  0.00  0.00    +0.226 C 
ATOM     13  O   UNL     1       0.112   1.831   4.902  0.00  0.00    -0.275 OA
ATOM     14 CL   UNL     1       1.367   1.782  -2.140  0.00  0.00    -0.083 Cl
ENDROOT
BRANCH  12  15
ATOM     15  C   UNL     1      -0.306   0.971   7.059  0.00  0.00    +0.091 C 
ATOM     16  C   UNL     1       0.918   0.374   7.757  0.00  0.00    +0.015 C 
ATOM     17  C   UNL     1       0.739   0.468   9.274  0.00  0.00    +0.018 C 
ATOM     18  C   UNL     1       0.621   1.941   9.680  0.00  0.00    +0.109 C 
ATOM     19  N   UNL     1      -0.463   2.559   8.905  0.00  0.00    -0.175 NA
ATOM     20  C   UNL     1      -0.437   2.449   7.440  0.00  0.00    +0.122 C 
BRANCH  19  21
ATOM     21  S   UNL     1      -1.692   3.366   9.668  0.00  0.00    +0.067 S 
ATOM     22  O   UNL     1      -2.802   3.346   8.781  0.00  0.00    -0.152 OA
ATOM     23  O   UNL     1      -1.762   2.845  10.988  0.00  0.00    -0.152 OA
BRANCH  21  24
ATOM     24  C   UNL     1      -1.196   5.050   9.817  0.00  0.00    +0.143 A 
ATOM     25  C   UNL     1      -1.401   6.079   8.958  0.00  0.00    +0.036 A 
ATOM     26  C   UNL     1      -0.917   7.332   9.286  0.00  0.00    +0.010 A 
ATOM     27  C   UNL     1      -0.252   7.494  10.456  0.00  0.00    +0.047 A 
ATOM     28  S   UNL     1      -0.301   5.846  11.140  0.00  0.00    -0.077 S 
ENDBRANCH  21  24
ENDBRANCH  19  21
ENDBRANCH  12  15
BRANCH  11  29
ATOM     29  C   UNL     1      -0.650  -1.526   5.763  0.00  0.00    +0.097 C 
BRANCH  29  30
ATOM     30  C   UNL     1       0.568  -2.437   5.924  0.00  0.00    -0.060 C 
BRANCH  30  31
ATOM     31  N   UNL     1       0.238  -3.539   6.837  0.00  0.00    +0.377 N 
ATOM     32  C   UNL     1      -0.800  -4.383   6.230  0.00  0.00    -0.097 C 
ATOM     33  C   UNL     1       1.441  -4.346   7.085  0.00  0.00    -0.097 C 
ATOM     34  H   UNL     1      -0.101  -3.163   7.709  0.00  0.00    -0.083 HD
ENDBRANCH  30  31
ENDBRANCH  29  30
ENDBRANCH  11  29
TORSDOF 6
