REMARK  Name = ZINC02395577
REMARK  14 active torsions:
REMARK  status: ('A' for Active; 'I' for Inactive)
REMARK    1  A    between atoms: C_1  and  C_2
REMARK    2  A    between atoms: C_2  and  C_3
REMARK    3  A    between atoms: C_2  and  O_4
REMARK    4  A    between atoms: O_4  and  C_5
REMARK    5  A    between atoms: C_5  and  C_6
REMARK    6  A    between atoms: C_6  and  C_7
REMARK    7  A    between atoms: C_7  and  N_8
REMARK    8  A    between atoms: C_9  and  C_11
REMARK    9  A    between atoms: N_22  and  N_25
REMARK   10  A    between atoms: C_23  and  N_24
REMARK   11  A    between atoms: C_26  and  C_27
REMARK   12  A    between atoms: C_30  and  C_33
REMARK   13  A    between atoms: C_33  and  O_35
REMARK   14  A    between atoms: O_35  and  C_36
REMARK                            x       y       z     vdW  Elec       q    Type
REMARK                         _______ _______ _______ _____ _____    ______ ____
ROOT
ATOM      1  C   UNL     1      -8.098   7.023  -0.703  0.00  0.00    +0.105 A 
ATOM      2  C   UNL     1      -8.143   7.044   0.769  0.00  0.00    +0.124 A 
ATOM      3  C   UNL     1      -6.922   6.360   1.205  0.00  0.00    +0.183 A 
ATOM      4  N   UNL     1      -6.682   6.222   2.492  0.00  0.00    -0.224 NA
ATOM      5  C   UNL     1      -7.552   6.706   3.388  0.00  0.00    +0.092 A 
ATOM      6  C   UNL     1      -7.303   6.564   4.766  0.00  0.00    +0.030 A 
ATOM      7  C   UNL     1      -8.193   7.058   5.669  0.00  0.00    +0.002 A 
ATOM      8  C   UNL     1      -9.353   7.708   5.251  0.00  0.00    +0.002 A 
ATOM      9  C   UNL     1      -9.627   7.865   3.928  0.00  0.00    +0.030 A 
ATOM     10  C   UNL     1      -8.732   7.367   2.963  0.00  0.00    +0.090 A 
ATOM     11  N   UNL     1      -8.992   7.516   1.659  0.00  0.00    -0.241 NA
ATOM     12  N   UNL     1      -6.241   5.982   0.063  0.00  0.00    -0.198 N 
ATOM     13  C   UNL     1      -6.920   6.372  -1.054  0.00  0.00    +0.134 A 
ENDROOT
BRANCH   1  15
ATOM     14  N   UNL     1     -10.121   6.821  -2.040  0.00  0.00    -0.311 N 
ATOM     15  C   UNL     1      -9.092   7.582  -1.616  0.00  0.00    +0.250 C 
ATOM     16  O   UNL     1      -8.992   8.735  -1.993  0.00  0.00    -0.270 OA
ATOM     17  H   UNL     1     -10.201   5.903  -1.739  0.00  0.00    +0.149 HD
BRANCH  14  18
ATOM     18  C   UNL     1     -11.118   7.382  -2.955  0.00  0.00    +0.107 C 
BRANCH  18  19
ATOM     19  C   UNL     1     -12.170   6.318  -3.277  0.00  0.00    +0.047 C 
BRANCH  19  20
ATOM     20  C   UNL     1     -13.211   6.904  -4.233  0.00  0.00    +0.161 C 
BRANCH  20  21
ATOM     21  O   UNL     1     -14.193   5.910  -4.534  0.00  0.00    -0.377 OA
BRANCH  21  23
ATOM     22  C   UNL     1     -14.796   6.079  -6.868  0.00  0.00    +0.037 C 
ATOM     23  C   UNL     1     -15.218   6.357  -5.424  0.00  0.00    +0.112 C 
ATOM     24  C   UNL     1     -16.518   5.610  -5.120  0.00  0.00    +0.037 C 
ENDBRANCH  21  23
ENDBRANCH  20  21
ENDBRANCH  19  20
ENDBRANCH  18  19
ENDBRANCH  14  18
ENDBRANCH   1  15
BRANCH  13  25
ATOM     25  N   UNL     1      -6.503   6.150  -2.341  0.00  0.00    -0.342 N 
ATOM     26  H   UNL     1      -5.668   5.684  -2.506  0.00  0.00    +0.144 HD
ATOM     27  H   UNL     1      -7.042   6.459  -3.086  0.00  0.00    +0.144 HD
ENDBRANCH  13  25
BRANCH  12  28
ATOM     28  N   UNL     1      -5.018   5.298   0.054  0.00  0.00    -0.171 NA
ATOM     29  C   UNL     1      -5.000   4.000   0.047  0.00  0.00    +0.141 C 
BRANCH  29  30
ATOM     30  C   UNL     1      -3.715   3.281   0.037  0.00  0.00    -0.005 A 
ATOM     31  C   UNL     1      -3.696   1.882   0.030  0.00  0.00    +0.010 A 
ATOM     32  C   UNL     1      -2.503   1.216   0.021  0.00  0.00    +0.015 A 
ATOM     33  C   UNL     1      -1.302   1.931   0.019  0.00  0.00    +0.059 A 
ATOM     34  C   UNL     1      -1.321   3.329   0.032  0.00  0.00    +0.015 A 
ATOM     35  C   UNL     1      -2.513   3.996   0.036  0.00  0.00    +0.010 A 
BRANCH  33  36
ATOM     36  C   UNL     1      -0.014   1.211   0.009  0.00  0.00    +0.339 C 
ATOM     37  O   UNL     1       0.002  -0.004   0.002  0.00  0.00    -0.245 OA
BRANCH  36  38
ATOM     38  O   UNL     1       1.143   1.900   0.001  0.00  0.00    -0.464 OA
ATOM     39  C   UNL     1       2.372   1.126  -0.015  0.00  0.00    +0.280 C 
ENDBRANCH  36  38
ENDBRANCH  33  36
ENDBRANCH  29  30
ENDBRANCH  12  28
TORSDOF 11
