REMARK  Name = ZINC33937299
REMARK  12 active torsions:
REMARK  status: ('A' for Active; 'I' for Inactive)
REMARK    1  A    between atoms: C_1  and  C_2
REMARK    2  A    between atoms: C_2  and  C_3
REMARK    3  A    between atoms: C_3  and  C_4
REMARK    4  A    between atoms: C_4  and  C_6
REMARK    5  A    between atoms: C_4  and  N_18
REMARK    6  A    between atoms: N_10  and  C_11
REMARK    7  A    between atoms: C_11  and  C_12
REMARK    8  A    between atoms: N_18  and  C_19
REMARK    9  A    between atoms: N_18  and  C_34
REMARK   10  A    between atoms: C_19  and  C_20
REMARK   11  A    between atoms: C_24  and  C_33
REMARK   12  A    between atoms: C_26  and  C_32
REMARK                            x       y       z     vdW  Elec       q    Type
REMARK                         _______ _______ _______ _____ _____    ______ ____
ROOT
ATOM      1  N   UNL     1       1.696  -2.679  -0.080  0.00  0.00    +0.391 N 
ATOM      2  H   UNL     1       2.555  -2.173  -0.236  0.00  0.00    -0.080 HD
ENDROOT
BRANCH   1   3
ATOM      3  C   UNL     1       1.254  -2.477   1.306  0.00  0.00    -0.067 C 
ATOM      4  C   UNL     1       0.020  -3.339   1.579  0.00  0.00    -0.015 C 
ATOM      5  C   UNL     1      -0.441  -3.128   3.022  0.00  0.00    -0.002 C 
ATOM      6  C   UNL     1      -0.792  -1.655   3.236  0.00  0.00    -0.000 C 
ATOM      7  C   UNL     1       0.442  -0.792   2.963  0.00  0.00    -0.002 C 
ATOM      8  C   UNL     1       0.903  -1.003   1.520  0.00  0.00    -0.015 C 
ENDBRANCH   1   3
BRANCH   1   9
ATOM      9  C   UNL     1       0.664  -2.186  -1.000  0.00  0.00    +0.003 C 
BRANCH   9  10
ATOM     10  C   UNL     1      -0.526  -3.109  -0.962  0.00  0.00    +0.138 A 
ATOM     11  N   UNL     1      -0.501  -4.420  -0.984  0.00  0.00    -0.115 NA
ATOM     12  N   UNL     1      -1.717  -4.842  -0.936  0.00  0.00    -0.023 NA
ATOM     13  N   UNL     1      -2.518  -3.835  -0.884  0.00  0.00    -0.044 NA
ATOM     14  N   UNL     1      -1.821  -2.749  -0.892  0.00  0.00    -0.228 N 
BRANCH  14  15
ATOM     15  C   UNL     1      -2.342  -1.381  -0.840  0.00  0.00    +0.178 C 
BRANCH  15  16
ATOM     16  C   UNL     1      -2.593  -0.875  -2.262  0.00  0.00    +0.140 C 
ATOM     17  C   UNL     1      -3.230   0.537  -2.226  0.00  0.00    +0.035 C 
ATOM     18  C   UNL     1      -2.803   1.087  -3.614  0.00  0.00    +0.031 C 
ATOM     19  C   UNL     1      -1.415   0.441  -3.811  0.00  0.00    +0.160 C 
ATOM     20  O   UNL     1      -1.348  -0.711  -2.959  0.00  0.00    -0.375 OA
ENDBRANCH  15  16
ENDBRANCH  14  15
ENDBRANCH   9  10
BRANCH   9  21
ATOM     21  C   UNL     1       1.228  -2.139  -2.422  0.00  0.00    -0.008 C 
BRANCH  21  23
ATOM     22  C   UNL     1       3.017  -1.171  -3.872  0.00  0.00    +0.004 C 
ATOM     23  C   UNL     1       2.381  -1.136  -2.481  0.00  0.00    -0.005 C 
ENDBRANCH  21  23
ENDBRANCH   9  21
ENDBRANCH   1   9
BRANCH   1  24
ATOM     24  C   UNL     1       1.921  -4.111  -0.318  0.00  0.00    -0.036 C 
BRANCH  24  25
ATOM     25  C   UNL     1       3.113  -4.572   0.481  0.00  0.00    +0.001 A 
ATOM     26  C   UNL     1       2.929  -5.168   1.685  0.00  0.00    +0.017 A 
ATOM     27  C   UNL     1       4.108  -5.605   2.436  0.00  0.00    -0.001 A 
ATOM     28  C   UNL     1       3.982  -6.226   3.683  0.00  0.00    +0.013 A 
ATOM     29  C   UNL     1       5.101  -6.623   4.358  0.00  0.00    -0.050 A 
ATOM     30  C   UNL     1       6.363  -6.414   3.818  0.00  0.00    +0.008 A 
ATOM     31  C   UNL     1       6.511  -5.804   2.591  0.00  0.00    -0.026 A 
ATOM     32  C   UNL     1       5.385  -5.393   1.885  0.00  0.00    +0.052 A 
ATOM     33  N   UNL     1       5.504  -4.781   0.655  0.00  0.00    -0.322 N 
ATOM     34  H   UNL     1       6.385  -4.635   0.277  0.00  0.00    +0.169 HD
ATOM     35  C   UNL     1       4.416  -4.388  -0.030  0.00  0.00    +0.251 A 
ATOM     36  O   UNL     1       4.558  -3.854  -1.116  0.00  0.00    -0.268 OA
ATOM     37  C   UNL     1       7.887  -5.583   2.017  0.00  0.00    +0.046 C 
ATOM     38  C   UNL     1       4.965  -7.292   5.702  0.00  0.00    +0.044 C 
ENDBRANCH  24  25
ENDBRANCH   1  24
TORSDOF 9
