REMARK  Name = ZINC15827202
REMARK  8 active torsions:
REMARK  status: ('A' for Active; 'I' for Inactive)
REMARK    1  A    between atoms: C_1  and  C_2
REMARK    2  A    between atoms: C_2  and  C_3
REMARK    3  A    between atoms: C_2  and  C_4
REMARK    4  A    between atoms: C_4  and  C_5
REMARK    5  A    between atoms: C_5  and  N_6
REMARK    6  A    between atoms: C_7  and  C_9
REMARK    7  A    between atoms: C_9  and  N_10
REMARK    8  A    between atoms: N_20  and  C_23
REMARK                            x       y       z     vdW  Elec       q    Type
REMARK                         _______ _______ _______ _____ _____    ______ ____
ROOT
ATOM      1  N   UNL     1      -0.018   1.461   0.010  0.00  0.00    -0.243 N 
ATOM      2  C   UNL     1      -1.263   2.023   0.247  0.00  0.00    +0.065 A 
ATOM      3  C   UNL     1      -2.385   1.231   0.466  0.00  0.00    +0.025 A 
ATOM      4  C   UNL     1      -3.609   1.823   0.704  0.00  0.00    +0.002 A 
ATOM      5  C   UNL     1      -3.739   3.200   0.733  0.00  0.00    +0.002 A 
ATOM      6  C   UNL     1      -2.626   4.001   0.520  0.00  0.00    +0.031 A 
ATOM      7  C   UNL     1      -1.417   3.411   0.285  0.00  0.00    +0.131 A 
ATOM      8  S   UNL     1       0.067   4.342   0.001  0.00  0.00    +0.084 S 
ATOM      9  O   UNL     1       0.326   5.033   1.215  0.00  0.00    -0.149 OA
ATOM     10  O   UNL     1      -0.146   5.037  -1.220  0.00  0.00    -0.149 OA
ATOM     11  N   UNL     1       1.406   3.361  -0.260  0.00  0.00    -0.120 N 
ATOM     12  C   UNL     1       1.155   2.032  -0.215  0.00  0.00    +0.334 C 
ATOM     13  O   UNL     1       2.099   1.289  -0.400  0.00  0.00    -0.250 OA
ENDROOT
BRANCH  11  14
ATOM     14  C   UNL     1       2.684   3.880  -0.506  0.00  0.00    +0.099 A 
ATOM     15  C   UNL     1       3.132   4.037  -1.810  0.00  0.00    +0.066 A 
ATOM     16  C   UNL     1       4.393   4.555  -2.049  0.00  0.00    +0.125 A 
ATOM     17  C   UNL     1       5.211   4.905  -0.988  0.00  0.00    +0.041 A 
ATOM     18  C   UNL     1       4.770   4.744   0.312  0.00  0.00    +0.043 A 
ATOM     19  C   UNL     1       3.509   4.232   0.557  0.00  0.00    +0.147 A 
ATOM     20  F   UNL     1       3.078   4.074   1.828  0.00  0.00    -0.203 F 
ATOM     21  F   UNL     1       4.827   4.714  -3.318  0.00  0.00    -0.205 F 
ENDBRANCH  11  14
BRANCH   1  22
ATOM     22  C   UNL     1       0.002  -0.004   0.002  0.00  0.00    +0.211 C 
BRANCH  22  24
ATOM     23  N   UNL     1       0.188  -1.838   1.651  0.00  0.00    -0.314 N 
ATOM     24  C   UNL     1       0.146  -0.512   1.413  0.00  0.00    +0.231 C 
ATOM     25  O   UNL     1       0.225   0.272   2.335  0.00  0.00    -0.274 OA
ATOM     26  H   UNL     1       0.125  -2.465   0.914  0.00  0.00    +0.149 HD
BRANCH  23  27
ATOM     27  C   UNL     1       0.328  -2.332   3.023  0.00  0.00    +0.104 C 
BRANCH  27  28
ATOM     28  C   UNL     1       0.349  -3.862   3.015  0.00  0.00    +0.022 C 
BRANCH  28  30
ATOM     29  C   UNL     1      -0.745  -3.994   5.257  0.00  0.00    +0.007 C 
ATOM     30  C   UNL     1       0.495  -4.378   4.448  0.00  0.00    -0.016 C 
ATOM     31  C   UNL     1       0.641  -5.901   4.429  0.00  0.00    +0.007 C 
ENDBRANCH  28  30
ENDBRANCH  27  28
ENDBRANCH  23  27
ENDBRANCH  22  24
ENDBRANCH   1  22
TORSDOF 6
