REMARK  Name = ZINC58412679
REMARK  10 active torsions:
REMARK  status: ('A' for Active; 'I' for Inactive)
REMARK    1  A    between atoms: C_1  and  C_2
REMARK    2  A    between atoms: C_2  and  C_4
REMARK    3  A    between atoms: C_2  and  N_7
REMARK    4  A    between atoms: N_7  and  C_8
REMARK    5  A    between atoms: C_8  and  C_9
REMARK    6  A    between atoms: C_10  and  C_21
REMARK    7  A    between atoms: N_12  and  C_20
REMARK    8  A    between atoms: C_13  and  N_14
REMARK    9  A    between atoms: C_21  and  C_22
REMARK   10  A    between atoms: C_21  and  C_23
REMARK                            x       y       z     vdW  Elec       q    Type
REMARK                         _______ _______ _______ _____ _____    ______ ____
ROOT
ATOM      1  C   UNL     1       2.909  -0.575   2.313  0.00  0.00    -0.002 A 
ATOM      2  C   UNL     1       3.123   0.159   3.483  0.00  0.00    +0.069 A 
ATOM      3  N   UNL     1       3.712  -0.618   4.355  0.00  0.00    -0.174 NA
ATOM      4  N   UNL     1       3.896  -1.878   3.771  0.00  0.00    -0.253 N 
ATOM      5  C   UNL     1       3.390  -1.833   2.517  0.00  0.00    +0.121 A 
ATOM      6  C   UNL     1       4.519  -3.041   4.407  0.00  0.00    +0.174 C 
ENDROOT
BRANCH   5   7
ATOM      7  N   UNL     1       3.369  -2.880   1.600  0.00  0.00    -0.311 N 
ATOM      8  C   UNL     1       4.497  -3.107   0.683  0.00  0.00    +0.134 C 
ATOM      9  C   UNL     1       4.908  -4.581   0.776  0.00  0.00    +0.178 C 
ATOM     10  O   UNL     1       3.755  -5.404   0.581  0.00  0.00    -0.377 OA
ATOM     11  C   UNL     1       2.740  -5.234   1.573  0.00  0.00    +0.178 C 
ATOM     12  C   UNL     1       2.221  -3.797   1.524  0.00  0.00    +0.134 C 
ENDBRANCH   5   7
BRANCH   2  13
ATOM     13  C   UNL     1       2.741   1.600   3.702  0.00  0.00    +0.034 C 
ATOM     14  C   UNL     1       1.764   1.696   4.876  0.00  0.00    +0.014 C 
ATOM     15  C   UNL     1       3.995   2.419   4.014  0.00  0.00    +0.014 C 
ENDBRANCH   2  13
BRANCH   1  16
ATOM     16  C   UNL     1       2.257  -0.068   1.053  0.00  0.00    -0.040 C 
BRANCH  16  17
ATOM     17  N   UNL     1       0.811  -0.323   1.113  0.00  0.00    +0.389 N 
ATOM     18  H   UNL     1       0.418   0.154   1.911  0.00  0.00    -0.084 HD
ATOM     19  H   UNL     1       0.648  -1.315   1.200  0.00  0.00    -0.084 HD
BRANCH  17  21
ATOM     20  C   UNL     1       0.315   1.694  -0.185  0.00  0.00    -0.004 C 
ATOM     21  C   UNL     1       0.175   0.172  -0.115  0.00  0.00    +0.013 C 
BRANCH  21  22
ATOM     22  C   UNL     1      -1.285  -0.199  -0.109  0.00  0.00    +0.196 C 
ATOM     23  O   UNL     1      -1.751  -0.815   0.827  0.00  0.00    -0.278 OA
ATOM     24  N   UNL     1      -2.075   0.153  -1.143  0.00  0.00    -0.331 N 
ATOM     25  H   UNL     1      -1.702   0.646  -1.891  0.00  0.00    +0.145 HD
ATOM     26  H   UNL     1      -3.015  -0.085  -1.139  0.00  0.00    +0.145 HD
ENDBRANCH  21  22
ENDBRANCH  17  21
ENDBRANCH  16  17
ENDBRANCH   1  16
TORSDOF 6
