REMARK  Name = ZINC21317750
REMARK  7 active torsions:
REMARK  status: ('A' for Active; 'I' for Inactive)
REMARK    1  A    between atoms: C_5  and  N_7
REMARK    2  A    between atoms: C_8  and  C_10
REMARK    3  A    between atoms: C_10  and  S_11
REMARK    4  A    between atoms: S_11  and  C_12
REMARK    5  A    between atoms: N_16  and  N_17
REMARK    6  A    between atoms: N_18  and  N_19
REMARK    7  A    between atoms: C_20  and  C_21
REMARK                            x       y       z     vdW  Elec       q    Type
REMARK                         _______ _______ _______ _____ _____    ______ ____
ROOT
ATOM      1  C   UNL     1      -1.841  -4.220  -0.040  0.00  0.00    +0.210 A 
ATOM      2  N   UNL     1      -0.529  -4.202  -0.057  0.00  0.00    -0.119 NA
ATOM      3  N   UNL     1      -0.115  -2.863  -0.070  0.00  0.00    -0.109 NA
ATOM      4  C   UNL     1      -1.186  -2.107  -0.052  0.00  0.00    +0.254 A 
ATOM      5  N   UNL     1      -2.281  -2.927  -0.037  0.00  0.00    -0.211 N 
ATOM      6  N   UNL     1      -1.206  -0.721  -0.054  0.00  0.00    -0.204 N 
ATOM      7  H   UNL     1      -2.166  -0.184  -0.043  0.00  0.00    +0.177 HD
ENDROOT
BRANCH   5   8
ATOM      8  N   UNL     1      -3.586  -2.523  -0.021  0.00  0.00    -0.294 N 
ATOM      9  H   UNL     1      -3.829  -1.450  -0.019  0.00  0.00    +0.163 HD
ATOM     10  H   UNL     1      -4.393  -3.270  -0.009  0.00  0.00    +0.163 HD
ENDBRANCH   5   8
BRANCH   6  11
ATOM     11  N   UNL     1      -0.002  -0.003  -0.070  0.00  0.00    -0.187 NA
ATOM     12  C   UNL     1      -0.021   1.298  -0.072  0.00  0.00    +0.145 C 
BRANCH  12  13
ATOM     13  C   UNL     1       1.239   2.049  -0.090  0.00  0.00    +0.032 A 
ATOM     14  C   UNL     1       1.439   3.418  -0.094  0.00  0.00    +0.017 A 
ATOM     15  C   UNL     1       2.731   3.890  -0.111  0.00  0.00    +0.008 A 
ATOM     16  C   UNL     1       3.762   3.006  -0.122  0.00  0.00    +0.046 A 
ATOM     17  S   UNL     1       2.916   1.435  -0.102  0.00  0.00    -0.096 S 
ENDBRANCH  12  13
ENDBRANCH   6  11
BRANCH   1  18
ATOM     18  S   UNL     1      -2.856  -5.660  -0.025  0.00  0.00    -0.075 S 
BRANCH  18  19
ATOM     19  C   UNL     1      -1.671  -7.033  -0.037  0.00  0.00    +0.173 C 
BRANCH  19  21
ATOM     20  N   UNL     1      -1.739  -9.505  -0.032  0.00  0.00    -0.284 N 
ATOM     21  C   UNL     1      -2.418  -8.341  -0.026  0.00  0.00    +0.228 C 
ATOM     22  O   UNL     1      -3.631  -8.347  -0.010  0.00  0.00    -0.275 OA
ATOM     23  H   UNL     1      -0.642  -9.502  -0.121  0.00  0.00    +0.155 HD
BRANCH  20  28
ATOM     24  C   UNL     1      -4.358 -12.059  -0.404  0.00  0.00    +0.002 A 
ATOM     25  C   UNL     1      -3.792 -13.117   0.283  0.00  0.00    +0.001 A 
ATOM     26  C   UNL     1      -2.546 -12.980   0.867  0.00  0.00    +0.017 A 
ATOM     27  C   UNL     1      -1.862 -11.783   0.764  0.00  0.00    +0.039 A 
ATOM     28  C   UNL     1      -2.428 -10.719   0.073  0.00  0.00    +0.047 A 
ATOM     29  C   UNL     1      -3.682 -10.860  -0.507  0.00  0.00    +0.024 A 
ATOM     30 BR   UNL     1      -0.159 -11.595   1.562  0.00  0.00    -0.048 Br
ENDBRANCH  20  28
ENDBRANCH  19  21
ENDBRANCH  18  19
ENDBRANCH   1  18
TORSDOF 7
