REMARK  Name = ZINC28680164
REMARK  11 active torsions:
REMARK  status: ('A' for Active; 'I' for Inactive)
REMARK    1  A    between atoms: C_1  and  C_2
REMARK    2  A    between atoms: C_2  and  O_3
REMARK    3  A    between atoms: O_3  and  C_4
REMARK    4  A    between atoms: C_9  and  N_10
REMARK    5  A    between atoms: C_14  and  S_16
REMARK    6  A    between atoms: S_16  and  C_17
REMARK    7  A    between atoms: C_17  and  C_18
REMARK    8  A    between atoms: C_20  and  O_21
REMARK    9  A    between atoms: C_30  and  O_32
REMARK   10  A    between atoms: O_32  and  C_33
REMARK   11  A    between atoms: C_33  and  C_34
REMARK                            x       y       z     vdW  Elec       q    Type
REMARK                         _______ _______ _______ _____ _____    ______ ____
ROOT
ATOM      1  C   UNL     1      -2.254   1.149   0.627  0.00  0.00    -0.020 A 
ATOM      2  C   UNL     1      -3.292   2.024   0.666  0.00  0.00    +0.092 A 
ATOM      3  C   UNL     1      -3.041   3.411   0.711  0.00  0.00    +0.285 A 
ATOM      4  O   UNL     1      -1.791   3.900   0.716  0.00  0.00    -0.425 OA
ATOM      5  C   UNL     1      -0.715   3.086   0.679  0.00  0.00    +0.141 A 
ATOM      6  C   UNL     1      -0.893   1.690   0.627  0.00  0.00    +0.022 A 
ATOM      7  C   UNL     1       0.220   0.842   0.594  0.00  0.00    +0.013 A 
ATOM      8  C   UNL     1       1.477   1.372   0.600  0.00  0.00    +0.024 A 
ATOM      9  C   UNL     1       1.661   2.754   0.645  0.00  0.00    +0.040 A 
ATOM     10  C   UNL     1       0.569   3.608   0.684  0.00  0.00    +0.070 A 
ATOM     11  N   UNL     1       2.953   3.280   0.651  0.00  0.00    -0.251 N 
ATOM     12  C   UNL     1       3.208   4.449   0.029  0.00  0.00    +0.405 C 
ATOM     13  O   UNL     1       2.337   4.993  -0.621  0.00  0.00    -0.226 OA
ATOM     14  H   UNL     1       3.764   2.742   1.164  0.00  0.00    +0.158 HD
ENDROOT
BRANCH   3  15
ATOM     15  O   UNL     1      -3.981   4.184   0.746  0.00  0.00    -0.480 OA
ATOM     16  H   UNL     1      -3.801   5.268   0.781  0.00  0.00    +0.295 HD
ENDBRANCH   3  15
BRANCH   1  17
ATOM     17  C   UNL     1      -2.495  -0.337   0.579  0.00  0.00    +0.112 C 
BRANCH  17  18
ATOM     18  S   UNL     1      -2.608  -0.876  -1.150  0.00  0.00    -0.092 S 
BRANCH  18  23
ATOM     19  N   UNL     1      -3.540  -6.574  -1.678  0.00  0.00    -0.289 N 
ATOM     20  C   UNL     1      -3.320  -5.252  -1.311  0.00  0.00    +0.187 A 
ATOM     21  N   UNL     1      -3.217  -4.725  -0.106  0.00  0.00    -0.125 NA
ATOM     22  N   UNL     1      -2.995  -3.374   0.034  0.00  0.00    -0.133 NA
ATOM     23  C   UNL     1      -2.887  -2.612  -1.038  0.00  0.00    +0.160 A 
ATOM     24  S   UNL     1      -3.108  -3.810  -2.344  0.00  0.00    -0.024 S 
ATOM     25  H   UNL     1      -3.495  -6.865  -2.738  0.00  0.00    +0.154 HD
BRANCH  19  31
ATOM     26  C   UNL     1      -3.897  -8.883  -1.045  0.00  0.00    +0.142 A 
ATOM     27  C   UNL     1      -4.170  -9.829  -0.072  0.00  0.00    +0.047 A 
ATOM     28  C   UNL     1      -4.374  -9.436   1.238  0.00  0.00    +0.004 A 
ATOM     29  C   UNL     1      -4.302  -8.098   1.581  0.00  0.00    +0.002 A 
ATOM     30  C   UNL     1      -4.026  -7.148   0.617  0.00  0.00    +0.027 A 
ATOM     31  C   UNL     1      -3.820  -7.535  -0.700  0.00  0.00    +0.075 A 
BRANCH  26  32
ATOM     32  O   UNL     1      -3.701  -9.268  -2.335  0.00  0.00    -0.490 OA
BRANCH  32  34
ATOM     33  C   UNL     1      -3.548 -10.904  -4.107  0.00  0.00    +0.048 C 
ATOM     34  C   UNL     1      -3.796 -10.665  -2.616  0.00  0.00    +0.226 C 
ENDBRANCH  32  34
ENDBRANCH  26  32
ENDBRANCH  19  31
ENDBRANCH  18  23
ENDBRANCH  17  18
ENDBRANCH   1  17
BRANCH  12  35
ATOM     35  O   UNL     1       4.426   5.012   0.128  0.00  0.00    -0.450 OA
BRANCH  35  36
ATOM     36  C   UNL     1       4.629   6.270  -0.568  0.00  0.00    +0.230 C 
ATOM     37  C   UNL     1       6.063   6.753  -0.342  0.00  0.00    +0.048 C 
ENDBRANCH  35  36
ENDBRANCH  12  35
TORSDOF 9
