REMARK  Name = ZINC14954051
REMARK  11 active torsions:
REMARK  status: ('A' for Active; 'I' for Inactive)
REMARK    1  A    between atoms: C_1  and  C_2
REMARK    2  A    between atoms: C_2  and  C_6
REMARK    3  A    between atoms: C_6  and  O_7
REMARK    4  A    between atoms: O_7  and  C_8
REMARK    5  A    between atoms: C_10  and  C_16
REMARK    6  A    between atoms: C_13  and  O_14
REMARK    7  A    between atoms: O_14  and  C_15
REMARK    8  A    between atoms: C_16  and  N_17
REMARK    9  A    between atoms: N_17  and  C_18
REMARK   10  A    between atoms: C_18  and  C_19
REMARK   11  A    between atoms: C_25  and  C_27
REMARK                            x       y       z     vdW  Elec       q    Type
REMARK                         _______ _______ _______ _____ _____    ______ ____
ROOT
ATOM      1  N   UNL     1       0.153   5.788  -1.096  0.00  0.00    -0.291 N 
ATOM      2  C   UNL     1      -1.013   6.077  -1.706  0.00  0.00    +0.254 C 
ATOM      3  O   UNL     1      -2.033   6.184  -1.050  0.00  0.00    -0.270 OA
ENDROOT
BRANCH   2   4
ATOM      4  C   UNL     1      -1.054   6.264  -3.161  0.00  0.00    +0.120 A 
ATOM      5  C   UNL     1      -0.947   5.168  -4.028  0.00  0.00    +0.131 A 
ATOM      6  N   UNL     1      -0.987   5.357  -5.330  0.00  0.00    -0.237 NA
ATOM      7  C   UNL     1      -1.127   6.575  -5.859  0.00  0.00    +0.140 A 
ATOM      8  C   UNL     1      -1.163   6.717  -7.256  0.00  0.00    +0.047 A 
ATOM      9  C   UNL     1      -1.305   7.960  -7.803  0.00  0.00    +0.005 A 
ATOM     10  C   UNL     1      -1.415   9.075  -6.962  0.00  0.00    +0.018 A 
ATOM     11  C   UNL     1      -1.379   8.917  -5.619  0.00  0.00    +0.096 A 
ATOM     12  N   UNL     1      -1.236   7.682  -5.066  0.00  0.00    -0.268 N 
ATOM     13  C   UNL     1      -1.208   7.555  -3.721  0.00  0.00    +0.271 A 
ATOM     14  O   UNL     1      -1.309   8.535  -3.004  0.00  0.00    -0.266 OA
ENDBRANCH   2   4
BRANCH   1  15
ATOM     15  C   UNL     1       0.177   5.501   0.340  0.00  0.00    +0.143 C 
BRANCH  15  18
ATOM     16  C   UNL     1      -1.235   2.055   0.973  0.00  0.00    +0.162 A 
ATOM     17  C   UNL     1      -1.147   3.424   0.780  0.00  0.00    +0.054 A 
ATOM     18  C   UNL     1       0.084   4.013   0.557  0.00  0.00    -0.026 A 
ATOM     19  C   UNL     1       1.230   3.239   0.531  0.00  0.00    +0.009 A 
ATOM     20  C   UNL     1       1.149   1.873   0.729  0.00  0.00    +0.050 A 
ATOM     21  C   UNL     1      -0.081   1.277   0.953  0.00  0.00    +0.162 A 
BRANCH  21  22
ATOM     22  O   UNL     1      -0.162  -0.067   1.148  0.00  0.00    -0.491 OA
ATOM     23  C   UNL     1       1.062  -0.803   1.108  0.00  0.00    +0.277 C 
ENDBRANCH  21  22
BRANCH  16  24
ATOM     24  O   UNL     1      -2.445   1.473   1.187  0.00  0.00    -0.488 OA
BRANCH  24  25
ATOM     25  C   UNL     1      -3.586   2.334   1.194  0.00  0.00    +0.240 C 
BRANCH  25  27
ATOM     26  C   UNL     1      -4.705   0.546   2.630  0.00  0.00    +0.019 C 
ATOM     27  C   UNL     1      -4.848   1.506   1.448  0.00  0.00    +0.049 C 
ATOM     28  C   UNL     1      -5.428   0.853   0.179  0.00  0.00    +0.172 C 
ATOM     29  O   UNL     1      -6.711   1.274   0.686  0.00  0.00    -0.378 OA
ATOM     30  C   UNL     1      -6.143   2.339   1.475  0.00  0.00    +0.172 C 
ENDBRANCH  25  27
ENDBRANCH  24  25
ENDBRANCH  16  24
ENDBRANCH  15  18
ENDBRANCH   1  15
BRANCH   1  31
ATOM     31  C   UNL     1       1.397   5.760  -1.870  0.00  0.00    +0.140 C 
BRANCH  31  32
ATOM     32  C   UNL     1       2.114   7.105  -1.731  0.00  0.00    +0.136 C 
ATOM     33  C   UNL     1       3.484   7.043  -2.434  0.00  0.00    +0.035 C 
ATOM     34  C   UNL     1       3.419   8.172  -3.491  0.00  0.00    +0.031 C 
ATOM     35  C   UNL     1       2.293   9.077  -2.930  0.00  0.00    +0.160 C 
ATOM     36  O   UNL     1       1.349   8.136  -2.376  0.00  0.00    -0.375 OA
ENDBRANCH  31  32
ENDBRANCH   1  31
TORSDOF 9
