REMARK  Name = ZINC01445690
REMARK  8 active torsions:
REMARK  status: ('A' for Active; 'I' for Inactive)
REMARK    1  A    between atoms: C_1  and  C_2
REMARK    2  A    between atoms: C_5  and  O_9
REMARK    3  A    between atoms: O_9  and  C_10
REMARK    4  A    between atoms: C_10  and  C_11
REMARK    5  A    between atoms: N_13  and  N_14
REMARK    6  A    between atoms: C_15  and  C_16
REMARK    7  A    between atoms: C_15  and  C_17
REMARK    8  A    between atoms: C_20  and  N_23
REMARK                            x       y       z     vdW  Elec       q    Type
REMARK                         _______ _______ _______ _____ _____    ______ ____
ROOT
ATOM      1  C   UNL     1      -0.666   1.625  -1.758  0.00  0.00    +0.270 C 
ATOM      2  O   UNL     1      -0.558   2.815  -1.970  0.00  0.00    -0.270 OA
ATOM      3  N   UNL     1       0.269   0.983  -1.028  0.00  0.00    -0.204 N 
ATOM      4  H   UNL     1       0.169  -0.095  -0.832  0.00  0.00    +0.177 HD
ENDROOT
BRANCH   3   5
ATOM      5  N   UNL     1       1.367   1.688  -0.520  0.00  0.00    -0.184 NA
ATOM      6  C   UNL     1       2.324   1.052   0.084  0.00  0.00    +0.063 C 
ATOM      7  C   UNL     1       3.410   1.820   0.792  0.00  0.00    +0.068 C 
BRANCH   6   8
ATOM      8  C   UNL     1       2.349  -0.421   0.076  0.00  0.00    -0.002 A 
ATOM      9  C   UNL     1       2.791  -1.121   1.202  0.00  0.00    +0.011 A 
ATOM     10  C   UNL     1       2.807  -2.498   1.193  0.00  0.00    +0.023 A 
ATOM     11  C   UNL     1       2.396  -3.193   0.061  0.00  0.00    +0.025 A 
ATOM     12  C   UNL     1       1.961  -2.500  -1.065  0.00  0.00    +0.023 A 
ATOM     13  C   UNL     1       1.936  -1.123  -1.061  0.00  0.00    +0.011 A 
BRANCH  11  14
ATOM     14  N   UNL     1       2.419  -4.587   0.053  0.00  0.00    -0.358 N 
ATOM     15  H   UNL     1       2.094  -5.138  -0.842  0.00  0.00    +0.142 HD
ATOM     16  H   UNL     1       2.763  -5.136   0.942  0.00  0.00    +0.142 HD
ENDBRANCH  11  14
ENDBRANCH   6   8
ENDBRANCH   3   5
BRANCH   1  17
ATOM     17  C   UNL     1      -1.844   0.865  -2.310  0.00  0.00    +0.326 C 
BRANCH  17  18
ATOM     18  O   UNL     1      -2.686   1.758  -3.041  0.00  0.00    -0.480 OA
BRANCH  18  23
ATOM     19  C   UNL     1      -7.311  -0.440  -5.392  0.00  0.00    +0.044 C 
ATOM     20  C   UNL     1      -6.074   0.149  -4.764  0.00  0.00    -0.048 A 
ATOM     21  C   UNL     1      -6.127   0.652  -3.477  0.00  0.00    +0.022 A 
ATOM     22  C   UNL     1      -4.993   1.191  -2.897  0.00  0.00    +0.061 A 
ATOM     23  C   UNL     1      -3.802   1.228  -3.608  0.00  0.00    +0.149 A 
ATOM     24  C   UNL     1      -3.754   0.728  -4.902  0.00  0.00    +0.061 A 
ATOM     25  C   UNL     1      -4.888   0.184  -5.474  0.00  0.00    +0.022 A 
ATOM     26 BR   UNL     1      -2.135   0.782  -5.878  0.00  0.00    -0.046 Br
ATOM     27 BR   UNL     1      -5.066   1.879  -1.137  0.00  0.00    -0.046 Br
ENDBRANCH  18  23
ENDBRANCH  17  18
ENDBRANCH   1  17
TORSDOF 6
