REMARK  Name = ZINC40142045
REMARK  7 active torsions:
REMARK  status: ('A' for Active; 'I' for Inactive)
REMARK    1  A    between atoms: C_1  and  C_2
REMARK    2  A    between atoms: C_2  and  S_3
REMARK    3  A    between atoms: S_3  and  N_6
REMARK    4  A    between atoms: N_6  and  C_7
REMARK    5  A    between atoms: C_11  and  C_13
REMARK    6  A    between atoms: C_16  and  C_19
REMARK    7  A    between atoms: C_27  and  C_29
REMARK                            x       y       z     vdW  Elec       q    Type
REMARK                         _______ _______ _______ _____ _____    ______ ____
ROOT
ATOM      1  C   UNL     1       3.725  -5.811  -0.524  0.00  0.00    +0.069 C 
ATOM      2  N   UNL     1       3.736  -6.508   0.559  0.00  0.00    -0.181 NA
ATOM      3  N   UNL     1       4.491  -7.676   0.476  0.00  0.00    -0.181 N 
ATOM      4  C   UNL     1       5.074  -7.772  -0.872  0.00  0.00    +0.141 C 
ATOM      5  C   UNL     1       4.556  -6.504  -1.580  0.00  0.00    +0.087 C 
ATOM      6  C   UNL     1       4.661  -8.572   1.468  0.00  0.00    +0.273 C 
ATOM      7  O   UNL     1       5.346  -9.562   1.285  0.00  0.00    -0.268 OA
ENDROOT
BRANCH   4   8
ATOM      8  C   UNL     1       4.580  -9.009  -1.576  0.00  0.00    +0.029 A 
ATOM      9  C   UNL     1       3.241  -9.356  -1.512  0.00  0.00    +0.130 A 
ATOM     10  C   UNL     1       2.790 -10.493  -2.160  0.00  0.00    +0.039 A 
ATOM     11  C   UNL     1       3.675 -11.282  -2.869  0.00  0.00    +0.004 A 
ATOM     12  C   UNL     1       5.012 -10.937  -2.933  0.00  0.00    +0.020 A 
ATOM     13  C   UNL     1       5.464  -9.797  -2.292  0.00  0.00    +0.049 A 
ATOM     14 CL   UNL     1       7.142  -9.360  -2.378  0.00  0.00    -0.083 Cl
ATOM     15  F   UNL     1       2.376  -8.584  -0.818  0.00  0.00    -0.205 F 
ENDBRANCH   4   8
BRANCH   1  20
ATOM     16  C   UNL     1       1.596  -2.791   0.163  0.00  0.00    +0.048 A 
ATOM     17  C   UNL     1       1.658  -2.137  -1.063  0.00  0.00    +0.024 A 
ATOM     18  C   UNL     1       2.389  -2.677  -2.104  0.00  0.00    +0.002 A 
ATOM     19  C   UNL     1       3.062  -3.870  -1.935  0.00  0.00    +0.010 A 
ATOM     20  C   UNL     1       3.006  -4.536  -0.708  0.00  0.00    -0.000 A 
ATOM     21  C   UNL     1       2.272  -3.987   0.345  0.00  0.00    +0.034 A 
BRANCH  16  22
ATOM     22  N   UNL     1       0.856  -2.240   1.212  0.00  0.00    -0.221 N 
ATOM     23  H   UNL     1      -0.003  -2.622   1.452  0.00  0.00    +0.173 HD
BRANCH  22  24
ATOM     24  S   UNL     1       1.446  -0.936   2.045  0.00  0.00    +0.043 S 
ATOM     25  O   UNL     1       0.455  -0.654   3.024  0.00  0.00    -0.155 OA
ATOM     26  O   UNL     1       1.767   0.019   1.043  0.00  0.00    -0.155 OA
BRANCH  24  28
ATOM     27  C   UNL     1       3.555  -0.427   3.709  0.00  0.00    +0.030 C 
ATOM     28  C   UNL     1       2.960  -1.538   2.842  0.00  0.00    +0.185 C 
ENDBRANCH  24  28
ENDBRANCH  22  24
ENDBRANCH  16  22
ENDBRANCH   1  20
BRANCH   6  29
ATOM     29  C   UNL     1       4.022  -8.354   2.769  0.00  0.00    +0.076 A 
ATOM     30  C   UNL     1       4.073  -9.140   3.911  0.00  0.00    +0.021 A 
ATOM     31  C   UNL     1       3.363  -8.672   4.990  0.00  0.00    +0.008 A 
ATOM     32  C   UNL     1       2.678  -7.508   4.873  0.00  0.00    +0.046 A 
ATOM     33  S   UNL     1       2.982  -7.007   3.299  0.00  0.00    -0.092 S 
ENDBRANCH   6  29
TORSDOF 6
