REMARK  Name = ZINC38003187
REMARK  7 active torsions:
REMARK  status: ('A' for Active; 'I' for Inactive)
REMARK    1  A    between atoms: C_1  and  C_2
REMARK    2  A    between atoms: C_2  and  C_4
REMARK    3  A    between atoms: C_2  and  N_10
REMARK    4  A    between atoms: N_10  and  C_11
REMARK    5  A    between atoms: C_14  and  C_17
REMARK    6  A    between atoms: C_17  and  S_18
REMARK    7  A    between atoms: S_18  and  N_21
REMARK                            x       y       z     vdW  Elec       q    Type
REMARK                         _______ _______ _______ _____ _____    ______ ____
ROOT
ATOM      1  C   UNL     1      -2.075  -0.647  -1.187  0.00  0.00    +0.028 A 
ATOM      2  C   UNL     1      -1.471  -0.308  -2.390  0.00  0.00    +0.023 A 
ATOM      3  C   UNL     1      -2.169  -0.445  -3.574  0.00  0.00    +0.007 A 
ATOM      4  C   UNL     1      -3.468  -0.918  -3.562  0.00  0.00    -0.025 A 
ATOM      5  C   UNL     1      -4.073  -1.257  -2.366  0.00  0.00    +0.007 A 
ATOM      6  C   UNL     1      -3.379  -1.128  -1.179  0.00  0.00    +0.023 A 
ENDROOT
BRANCH   1   7
ATOM      7  N   UNL     1      -1.372  -0.511   0.012  0.00  0.00    -0.337 N 
ATOM      8  H   UNL     1      -1.794  -0.752   0.852  0.00  0.00    +0.147 HD
BRANCH   7  10
ATOM      9  C   UNL     1      -0.019   1.526   0.010  0.00  0.00    +0.033 C 
ATOM     10  C   UNL     1       0.002  -0.004   0.002  0.00  0.00    +0.104 C 
BRANCH  10  11
ATOM     11  C   UNL     1       0.731  -0.503   1.223  0.00  0.00    +0.011 A 
ATOM     12  C   UNL     1       2.010  -0.938   1.335  0.00  0.00    +0.014 A 
ATOM     13  C   UNL     1       2.470  -1.355   2.570  0.00  0.00    +0.023 A 
ATOM     14  C   UNL     1       1.629  -1.315   3.633  0.00  0.00    +0.055 A 
ATOM     15  S   UNL     1       0.136  -0.668   2.898  0.00  0.00    -0.085 S 
ATOM     16 BR   UNL     1       1.954  -1.810   5.429  0.00  0.00    -0.043 Br
ENDBRANCH  10  11
ENDBRANCH   7  10
ENDBRANCH   1   7
BRANCH   4  17
ATOM     17  C   UNL     1      -4.227  -1.065  -4.856  0.00  0.00    +0.219 C 
BRANCH  17  18
ATOM     18  S   UNL     1      -3.950  -2.724  -5.535  0.00  0.00    +0.031 S 
ATOM     19  O   UNL     1      -2.598  -2.864  -5.947  0.00  0.00    -0.158 OA
ATOM     20  O   UNL     1      -4.559  -3.701  -4.702  0.00  0.00    -0.158 OA
BRANCH  18  21
ATOM     21  N   UNL     1      -4.826  -2.761  -6.939  0.00  0.00    -0.208 NA
ATOM     22  H   UNL     1      -5.334  -1.982  -7.215  0.00  0.00    +0.144 HD
ATOM     23  H   UNL     1      -4.832  -3.562  -7.487  0.00  0.00    +0.144 HD
ENDBRANCH  18  21
ENDBRANCH  17  18
ENDBRANCH   4  17
TORSDOF 6
