REMARK  Name = ZINC43934381
REMARK  14 active torsions:
REMARK  status: ('A' for Active; 'I' for Inactive)
REMARK    1  A    between atoms: C_1  and  C_2
REMARK    2  A    between atoms: C_2  and  C_4
REMARK    3  A    between atoms: C_2  and  N_24
REMARK    4  A    between atoms: N_6  and  C_7
REMARK    5  A    between atoms: C_7  and  C_8
REMARK    6  A    between atoms: C_8  and  C_10
REMARK    7  A    between atoms: C_8  and  N_18
REMARK    8  A    between atoms: C_13  and  O_16
REMARK    9  A    between atoms: O_16  and  C_17
REMARK   10  A    between atoms: C_25  and  O_27
REMARK   11  A    between atoms: O_27  and  C_28
REMARK   12  A    between atoms: C_28  and  C_29
REMARK   13  A    between atoms: C_28  and  C_30
REMARK   14  A    between atoms: C_28  and  C_31
REMARK                            x       y       z     vdW  Elec       q    Type
REMARK                         _______ _______ _______ _____ _____    ______ ____
ROOT
ATOM      1  C   UNL     1       1.044  -0.831   3.729  0.00  0.00    +0.093 C 
ENDROOT
BRANCH   1   4
ATOM      2  C   UNL     1       3.260  -0.668   2.729  0.00  0.00    +0.233 C 
ATOM      3  O   UNL     1       2.931  -1.522   1.932  0.00  0.00    -0.274 OA
ATOM      4  N   UNL     1       2.389  -0.253   3.669  0.00  0.00    -0.315 N 
ATOM      5  H   UNL     1       2.652   0.430   4.306  0.00  0.00    +0.149 HD
BRANCH   2   7
ATOM      6  C   UNL     1       5.371  -0.336   3.987  0.00  0.00    +0.038 C 
ATOM      7  C   UNL     1       4.643  -0.073   2.667  0.00  0.00    +0.159 C 
BRANCH   7   8
ATOM      8  N   UNL     1       5.391  -0.687   1.567  0.00  0.00    -0.270 N 
ATOM      9  C   UNL     1       6.409  -0.020   0.989  0.00  0.00    +0.401 C 
ATOM     10  O   UNL     1       6.707   1.091   1.380  0.00  0.00    -0.226 OA
ATOM     11  H   UNL     1       5.152  -1.574   1.254  0.00  0.00    +0.153 HD
BRANCH   9  12
ATOM     12  O   UNL     1       7.096  -0.584  -0.023  0.00  0.00    -0.445 OA
BRANCH  12  13
ATOM     13  C   UNL     1       8.163   0.180  -0.588  0.00  0.00    +0.107 C 
ATOM     14  C   UNL     1       9.201   0.485   0.494  0.00  0.00    +0.055 C 
ATOM     15  C   UNL     1       8.820  -0.619  -1.715  0.00  0.00    +0.055 C 
ATOM     16  C   UNL     1       7.609   1.491  -1.149  0.00  0.00    +0.055 C 
ENDBRANCH  12  13
ENDBRANCH   9  12
ENDBRANCH   7   8
ENDBRANCH   2   7
ENDBRANCH   1   4
BRANCH   1  17
ATOM     17  C   UNL     1       0.309  -0.287   4.956  0.00  0.00    -0.020 C 
BRANCH  17  18
ATOM     18  N   UNL     1      -1.069  -0.796   4.966  0.00  0.00    +0.385 N 
ATOM     19  C   UNL     1      -1.775  -0.316   3.772  0.00  0.00    -0.078 C 
ATOM     20  C   UNL     1      -3.185  -0.909   3.736  0.00  0.00    -0.019 C 
ATOM     21  C   UNL     1      -3.947  -0.474   4.991  0.00  0.00    -0.004 C 
ATOM     22  C   UNL     1      -3.164  -0.914   6.231  0.00  0.00    -0.019 C 
ATOM     23  C   UNL     1      -1.754  -0.322   6.175  0.00  0.00    -0.078 C 
ATOM     24  H   UNL     1      -1.054  -1.805   4.963  0.00  0.00    -0.081 HD
ENDBRANCH  17  18
BRANCH  17  25
ATOM     25  C   UNL     1       1.020  -0.736   6.207  0.00  0.00    -0.059 A 
ATOM     26  C   UNL     1       0.822  -2.016   6.692  0.00  0.00    +0.005 A 
ATOM     27  C   UNL     1       1.472  -2.429   7.839  0.00  0.00    +0.046 A 
ATOM     28  C   UNL     1       2.324  -1.559   8.504  0.00  0.00    +0.120 A 
ATOM     29  C   UNL     1       2.521  -0.276   8.015  0.00  0.00    +0.046 A 
ATOM     30  C   UNL     1       1.873   0.131   6.865  0.00  0.00    +0.005 A 
BRANCH  28  31
ATOM     31  O   UNL     1       2.963  -1.964   9.633  0.00  0.00    -0.495 OA
ATOM     32  C   UNL     1       3.825  -1.015  10.265  0.00  0.00    +0.277 C 
ENDBRANCH  28  31
ENDBRANCH  17  25
ENDBRANCH   1  17
TORSDOF 9
