REMARK  Name = ZINC36505515
REMARK  17 active torsions:
REMARK  status: ('A' for Active; 'I' for Inactive)
REMARK    1  A    between atoms: C_1  and  C_2
REMARK    2  A    between atoms: C_2  and  C_3
REMARK    3  A    between atoms: C_2  and  C_4
REMARK    4  A    between atoms: C_2  and  C_5
REMARK    5  A    between atoms: C_5  and  C_6
REMARK    6  A    between atoms: C_6  and  C_7
REMARK    7  A    between atoms: C_6  and  C_8
REMARK    8  A    between atoms: C_6  and  N_9
REMARK    9  A    between atoms: C_10  and  C_12
REMARK   10  A    between atoms: C_12  and  C_14
REMARK   11  A    between atoms: C_12  and  N_24
REMARK   12  A    between atoms: C_16  and  N_21
REMARK   13  A    between atoms: N_24  and  C_25
REMARK   14  A    between atoms: C_25  and  C_26
REMARK   15  A    between atoms: C_31  and  C_33
REMARK   16  A    between atoms: C_33  and  O_34
REMARK   17  A    between atoms: O_34  and  C_35
REMARK                            x       y       z     vdW  Elec       q    Type
REMARK                         _______ _______ _______ _____ _____    ______ ____
ROOT
ATOM      1  C   UNL     1       5.313  -0.506  -4.394  0.00  0.00    +0.194 C 
ENDROOT
BRANCH   1   2
ATOM      2  C   UNL     1       4.780   0.434  -5.445  0.00  0.00    +0.002 A 
ATOM      3  C   UNL     1       4.083   1.567  -5.069  0.00  0.00    +0.040 A 
ATOM      4  C   UNL     1       3.594   2.429  -6.032  0.00  0.00    +0.127 A 
ATOM      5  C   UNL     1       3.802   2.159  -7.372  0.00  0.00    +0.034 A 
ATOM      6  C   UNL     1       4.500   1.028  -7.749  0.00  0.00    +0.022 A 
ATOM      7  C   UNL     1       4.995   0.167  -6.785  0.00  0.00    +0.047 A 
ATOM      8 CL   UNL     1       5.877  -1.251  -7.257  0.00  0.00    -0.083 Cl
BRANCH   4   9
ATOM      9  N   UNL     1       2.847   3.642  -5.630  0.00  0.00    +0.056 N 
ATOM     10  O   UNL     1       2.664   3.878  -4.458  0.00  0.00    -0.126 OA
ATOM     11  O   UNL     1       2.419   4.396  -6.472  0.00  0.00    -0.126 OA
ENDBRANCH   4   9
ENDBRANCH   1   2
BRANCH   1  13
ATOM     12  N   UNL     1       3.248  -0.992  -3.122  0.00  0.00    -0.308 N 
ATOM     13  C   UNL     1       4.462  -0.407  -3.154  0.00  0.00    +0.239 C 
ATOM     14  O   UNL     1       4.870   0.198  -2.186  0.00  0.00    -0.273 OA
ATOM     15  H   UNL     1       2.950  -1.531  -3.870  0.00  0.00    +0.149 HD
BRANCH  12  16
ATOM     16  C   UNL     1       2.380  -0.813  -1.955  0.00  0.00    +0.030 C 
ATOM     17  C   UNL     1       2.224   0.680  -1.659  0.00  0.00    +0.031 C 
ATOM     18  C   UNL     1       3.004  -1.510  -0.744  0.00  0.00    +0.031 C 
BRANCH  16  19
ATOM     19  C   UNL     1       1.007  -1.423  -2.243  0.00  0.00    +0.031 C 
BRANCH  19  21
ATOM     20  C   UNL     1       1.241  -1.977  -4.668  0.00  0.00    +0.010 C 
ATOM     21  C   UNL     1       0.568  -1.044  -3.659  0.00  0.00    -0.036 C 
ATOM     22  C   UNL     1       0.976   0.402  -3.950  0.00  0.00    +0.010 C 
ATOM     23  C   UNL     1      -0.952  -1.179  -3.776  0.00  0.00    +0.010 C 
ENDBRANCH  19  21
ENDBRANCH  16  19
ENDBRANCH  12  16
ENDBRANCH   1  13
BRANCH   1  24
ATOM     24  N   UNL     1       6.694  -0.142  -4.069  0.00  0.00    -0.277 N 
ATOM     25  C   UNL     1       7.436  -0.948  -3.284  0.00  0.00    +0.243 C 
ATOM     26  O   UNL     1       8.604  -0.691  -3.081  0.00  0.00    -0.273 OA
BRANCH  24  27
ATOM     27  C   UNL     1       7.270   1.097  -4.597  0.00  0.00    +0.183 C 
BRANCH  27  28
ATOM     28  C   UNL     1       7.012   2.223  -3.629  0.00  0.00    +0.122 A 
ATOM     29  C   UNL     1       7.820   2.594  -2.620  0.00  0.00    +0.046 A 
ATOM     30  C   UNL     1       7.195   3.684  -1.972  0.00  0.00    +0.041 A 
ATOM     31  C   UNL     1       6.041   3.914  -2.625  0.00  0.00    +0.195 A 
ATOM     32  O   UNL     1       5.938   3.030  -3.631  0.00  0.00    -0.466 OA
ENDBRANCH  27  28
ENDBRANCH  24  27
BRANCH  25  33
ATOM     33  C   UNL     1       6.814  -2.170  -2.657  0.00  0.00    +0.255 C 
BRANCH  33  34
ATOM     34  O   UNL     1       7.763  -2.796  -1.790  0.00  0.00    -0.374 OA
ATOM     35  C   UNL     1       7.271  -3.970  -1.142  0.00  0.00    +0.194 C 
ENDBRANCH  33  34
ENDBRANCH  25  33
ENDBRANCH   1  24
TORSDOF 11
