REMARK  Name = ZINC63121482
REMARK  6 active torsions:
REMARK  status: ('A' for Active; 'I' for Inactive)
REMARK    1  A    between atoms: C_1  and  C_2
REMARK    2  A    between atoms: C_7  and  S_12
REMARK    3  A    between atoms: S_12  and  C_13
REMARK    4  A    between atoms: C_13  and  C_14
REMARK    5  A    between atoms: N_16  and  C_17
REMARK    6  A    between atoms: C_19  and  C_28
REMARK                            x       y       z     vdW  Elec       q    Type
REMARK                         _______ _______ _______ _____ _____    ______ ____
ROOT
ATOM      1  C   UNL     1      -4.091  -4.910   1.844  0.00  0.00    +0.224 C 
ATOM      2  O   UNL     1      -4.084  -5.978   2.419  0.00  0.00    -0.275 OA
ATOM      3  N   UNL     1      -5.261  -4.324   1.526  0.00  0.00    -0.298 N 
ATOM      4  H   UNL     1      -5.267  -3.470   1.066  0.00  0.00    +0.150 HD
ENDROOT
BRANCH   3   5
ATOM      5  C   UNL     1      -6.526  -4.976   1.875  0.00  0.00    +0.172 C 
ATOM      6  C   UNL     1      -7.535  -3.969   2.395  0.00  0.00    +0.060 C 
ATOM      7  C   UNL     1      -8.505  -3.581   1.606  0.00  0.00    -0.041 C 
ATOM      8  C   UNL     1      -9.661  -2.666   2.012  0.00  0.00    +0.033 C 
ATOM      9  C   UNL     1     -10.366  -2.257   0.716  0.00  0.00    +0.004 C 
ATOM     10  C   UNL     1     -10.917  -3.459  -0.036  0.00  0.00    +0.002 C 
ATOM     11  C   UNL     1      -9.964  -4.652  -0.031  0.00  0.00    +0.019 C 
ATOM     12  C   UNL     1      -8.532  -4.161   0.184  0.00  0.00    +0.075 C 
ATOM     13  S   UNL     1      -7.394  -5.594   0.367  0.00  0.00    -0.125 S 
BRANCH   6  14
ATOM     14  C   UNL     1      -7.428  -3.452   3.727  0.00  0.00    +0.098 C 
ATOM     15  N   UNL     1      -7.344  -3.043   4.783  0.00  0.00    -0.191 NA
ENDBRANCH   6  14
ENDBRANCH   3   5
BRANCH   1  16
ATOM     16  C   UNL     1      -2.790  -4.240   1.485  0.00  0.00    +0.168 C 
BRANCH  16  17
ATOM     17  S   UNL     1      -1.405  -5.270   2.043  0.00  0.00    -0.106 S 
BRANCH  17  24
ATOM     18  C   UNL     1      -0.018   1.503   0.010  0.00  0.00    +0.044 C 
ATOM     19  C   UNL     1       0.002  -0.004   0.002  0.00  0.00    -0.048 A 
ATOM     20  C   UNL     1       0.005  -0.672  -1.235  0.00  0.00    +0.005 A 
ATOM     21  C   UNL     1       0.022  -2.017  -1.335  0.00  0.00    +0.028 A 
ATOM     22  C   UNL     1       0.040  -2.834  -0.114  0.00  0.00    +0.061 A 
ATOM     23  N   UNL     1       0.057  -4.120   0.090  0.00  0.00    -0.355 N 
ATOM     24  C   UNL     1       0.067  -4.335   1.542  0.00  0.00    +0.236 C 
ATOM     25  N   UNL     1       0.053  -3.002   2.159  0.00  0.00    -0.355 N 
ATOM     26  C   UNL     1       0.037  -2.127   1.195  0.00  0.00    +0.061 A 
ATOM     27  C   UNL     1       0.022  -0.657   1.181  0.00  0.00    +0.030 A 
ATOM     28  H   UNL     1       0.062  -4.809  -0.593  0.00  0.00    +0.162 HD
ATOM     29  H   UNL     1       0.055  -2.810   3.109  0.00  0.00    +0.162 HD
ENDBRANCH  17  24
ENDBRANCH  16  17
ENDBRANCH   1  16
TORSDOF 5
