REMARK  Name = ZINC41021558
REMARK  11 active torsions:
REMARK  status: ('A' for Active; 'I' for Inactive)
REMARK    1  A    between atoms: C_1  and  C_2
REMARK    2  A    between atoms: C_2  and  O_3
REMARK    3  A    between atoms: O_3  and  C_4
REMARK    4  A    between atoms: C_9  and  N_10
REMARK    5  A    between atoms: C_11  and  C_13
REMARK    6  A    between atoms: C_14  and  C_34
REMARK    7  A    between atoms: C_18  and  S_31
REMARK    8  A    between atoms: C_21  and  C_23
REMARK    9  A    between atoms: C_24  and  C_25
REMARK   10  A    between atoms: S_31  and  C_32
REMARK   11  A    between atoms: C_32  and  C_33
REMARK                            x       y       z     vdW  Elec       q    Type
REMARK                         _______ _______ _______ _____ _____    ______ ____
ROOT
ATOM      1  C   UNL     1       3.151  -1.267  -5.606  0.00  0.00    +0.060 C 
ATOM      2  C   UNL     1       3.686  -1.893  -6.664  0.00  0.00    +0.018 C 
ATOM      3  N   UNL     1       4.243  -1.206  -7.715  0.00  0.00    -0.287 N 
ATOM      4  C   UNL     1       4.007   0.160  -7.783  0.00  0.00    +0.219 A 
ATOM      5  N   UNL     1       4.217   1.001  -8.759  0.00  0.00    -0.187 NA
ATOM      6  C   UNL     1       3.832   2.229  -8.382  0.00  0.00    +0.210 A 
ATOM      7  N   UNL     1       3.371   2.175  -7.151  0.00  0.00    -0.141 NA
ATOM      8  N   UNL     1       3.478   0.847  -6.741  0.00  0.00    -0.220 N 
ATOM      9  C   UNL     1       3.116   0.232  -5.468  0.00  0.00    +0.170 C 
ATOM     10  C   UNL     1       3.676  -3.399  -6.701  0.00  0.00    +0.061 C 
ATOM     11  H   UNL     1       4.780  -1.659  -8.384  0.00  0.00    +0.155 HD
ENDROOT
BRANCH   1  13
ATOM     12  N   UNL     1       3.375  -2.546  -3.596  0.00  0.00    -0.279 N 
ATOM     13  C   UNL     1       2.588  -2.052  -4.572  0.00  0.00    +0.248 C 
ATOM     14  O   UNL     1       1.392  -2.281  -4.564  0.00  0.00    -0.270 OA
ATOM     15  H   UNL     1       4.312  -2.298  -3.556  0.00  0.00    +0.155 HD
BRANCH  12  21
ATOM     16  C   UNL     1       3.440  -3.535  -1.387  0.00  0.00    +0.142 A 
ATOM     17  C   UNL     1       2.903  -4.395  -0.443  0.00  0.00    +0.047 A 
ATOM     18  C   UNL     1       1.779  -5.141  -0.747  0.00  0.00    +0.004 A 
ATOM     19  C   UNL     1       1.188  -5.031  -1.992  0.00  0.00    +0.002 A 
ATOM     20  C   UNL     1       1.717  -4.175  -2.939  0.00  0.00    +0.027 A 
ATOM     21  C   UNL     1       2.841  -3.419  -2.640  0.00  0.00    +0.076 A 
BRANCH  16  22
ATOM     22  O   UNL     1       4.545  -2.800  -1.090  0.00  0.00    -0.490 OA
BRANCH  22  24
ATOM     23  C   UNL     1       6.333  -2.070   0.362  0.00  0.00    +0.048 C 
ATOM     24  C   UNL     1       5.106  -2.970   0.213  0.00  0.00    +0.226 C 
ENDBRANCH  22  24
ENDBRANCH  16  22
ENDBRANCH  12  21
ENDBRANCH   1  13
BRANCH   9  25
ATOM     25  C   UNL     1       4.100   0.662  -4.410  0.00  0.00    +0.005 C 
ATOM     26  C   UNL     1       3.676   1.320  -3.340  0.00  0.00    +0.006 C 
BRANCH  26  27
ATOM     27  C   UNL     1       4.641   1.742  -2.303  0.00  0.00    -0.025 A 
ATOM     28  C   UNL     1       5.999   1.455  -2.450  0.00  0.00    +0.008 A 
ATOM     29  C   UNL     1       6.894   1.852  -1.478  0.00  0.00    +0.001 A 
ATOM     30  C   UNL     1       6.448   2.533  -0.359  0.00  0.00    +0.000 A 
ATOM     31  C   UNL     1       5.104   2.820  -0.207  0.00  0.00    +0.001 A 
ATOM     32  C   UNL     1       4.199   2.434  -1.175  0.00  0.00    +0.008 A 
ENDBRANCH  26  27
ENDBRANCH   9  25
BRANCH   6  33
ATOM     33  S   UNL     1       3.927   3.681  -9.376  0.00  0.00    -0.085 S 
BRANCH  33  34
ATOM     34  C   UNL     1       4.639   3.097 -10.939  0.00  0.00    +0.074 C 
ATOM     35  C   UNL     1       4.779   4.274 -11.907  0.00  0.00    +0.016 C 
ENDBRANCH  33  34
ENDBRANCH   6  33
TORSDOF 8
