REMARK  Name = ZINC39482262
REMARK  9 active torsions:
REMARK  status: ('A' for Active; 'I' for Inactive)
REMARK    1  A    between atoms: C_4  and  C_7
REMARK    2  A    between atoms: C_7  and  C_8
REMARK    3  A    between atoms: N_11  and  C_15
REMARK    4  A    between atoms: C_17  and  C_32
REMARK    5  A    between atoms: C_20  and  N_21
REMARK    6  A    between atoms: N_21  and  S_22
REMARK    7  A    between atoms: S_22  and  C_25
REMARK    8  A    between atoms: C_30  and  O_31
REMARK    9  A    between atoms: C_37  and  O_38
REMARK                            x       y       z     vdW  Elec       q    Type
REMARK                         _______ _______ _______ _____ _____    ______ ____
ROOT
ATOM      1  C   UNL     1       6.847  -2.278   3.813  0.00  0.00    +0.053 A 
ATOM      2  C   UNL     1       6.779  -1.236   4.722  0.00  0.00    +0.033 A 
ATOM      3  C   UNL     1       7.938  -0.792   5.358  0.00  0.00    -0.013 A 
ATOM      4  C   UNL     1       9.161  -1.399   5.077  0.00  0.00    +0.010 A 
ATOM      5  C   UNL     1       9.226  -2.438   4.171  0.00  0.00    +0.027 A 
ATOM      6  C   UNL     1       8.074  -2.885   3.540  0.00  0.00    +0.069 A 
ENDROOT
BRANCH   1   9
ATOM      7  C   UNL     1       3.782  -1.748   2.005  0.00  0.00    -0.050 C 
ATOM      8  C   UNL     1       5.257  -2.145   1.890  0.00  0.00    +0.089 C 
ATOM      9  N   UNL     1       5.686  -2.726   3.172  0.00  0.00    -0.332 N 
ATOM     10  C   UNL     1       4.859  -3.791   3.762  0.00  0.00    +0.086 C 
ATOM     11  C   UNL     1       3.402  -3.316   3.789  0.00  0.00    -0.063 C 
ATOM     12  N   UNL     1       2.995  -2.911   2.437  0.00  0.00    +0.383 N 
ATOM     13  H   UNL     1       2.016  -2.670   2.440  0.00  0.00    -0.085 HD
ATOM     14  H   UNL     1       3.149  -3.676   1.798  0.00  0.00    -0.085 HD
BRANCH   7  15
ATOM     15  C   UNL     1       3.275  -1.267   0.644  0.00  0.00    +0.021 C 
BRANCH  15  19
ATOM     16  C   UNL     1      -0.730   0.164   1.039  0.00  0.00    +0.000 A 
ATOM     17  C   UNL     1       0.333   1.031   1.210  0.00  0.00    +0.000 A 
ATOM     18  C   UNL     1       1.629   0.567   1.082  0.00  0.00    +0.003 A 
ATOM     19  C   UNL     1       1.862  -0.762   0.784  0.00  0.00    -0.049 A 
ATOM     20  C   UNL     1       0.798  -1.629   0.614  0.00  0.00    +0.003 A 
ATOM     21  C   UNL     1      -0.498  -1.165   0.740  0.00  0.00    +0.000 A 
ENDBRANCH  15  19
ENDBRANCH   7  15
ENDBRANCH   1   9
BRANCH   3  22
ATOM     22  C   UNL     1       7.869   0.324   6.332  0.00  0.00    +0.024 A 
ATOM     23  C   UNL     1       7.211   1.505   5.996  0.00  0.00    +0.012 A 
ATOM     24  C   UNL     1       7.150   2.541   6.906  0.00  0.00    +0.001 A 
ATOM     25  C   UNL     1       7.740   2.411   8.151  0.00  0.00    +0.004 A 
ATOM     26  C   UNL     1       8.396   1.244   8.494  0.00  0.00    +0.046 A 
ATOM     27  C   UNL     1       8.460   0.193   7.592  0.00  0.00    +0.125 A 
BRANCH  27  28
ATOM     28  O   UNL     1       9.099  -0.957   7.930  0.00  0.00    -0.506 OA
ATOM     29  H   UNL     1      10.040  -0.964   7.707  0.00  0.00    +0.292 HD
ENDBRANCH  27  28
ENDBRANCH   3  22
BRANCH   6  30
ATOM     30  N   UNL     1       8.143  -3.943   2.626  0.00  0.00    -0.214 N 
ATOM     31  H   UNL     1       7.564  -3.950   1.848  0.00  0.00    +0.174 HD
BRANCH  30  32
ATOM     32  S   UNL     1       9.212  -5.183   2.874  0.00  0.00    +0.076 S 
ATOM     33  O   UNL     1       9.090  -5.558   4.239  0.00  0.00    -0.150 OA
ATOM     34  O   UNL     1       9.018  -6.105   1.810  0.00  0.00    -0.150 OA
BRANCH  32  35
ATOM     35  C   UNL     1      10.833  -4.520   2.676  0.00  0.00    +0.150 A 
ATOM     36  C   UNL     1      11.709  -4.508   3.744  0.00  0.00    +0.032 A 
ATOM     37  C   UNL     1      12.981  -3.987   3.590  0.00  0.00    +0.002 A 
ATOM     38  C   UNL     1      13.379  -3.479   2.368  0.00  0.00    +0.004 A 
ATOM     39  C   UNL     1      12.507  -3.489   1.297  0.00  0.00    +0.047 A 
ATOM     40  C   UNL     1      11.232  -4.015   1.447  0.00  0.00    +0.143 A 
BRANCH  40  41
ATOM     41  O   UNL     1      10.373  -4.032   0.394  0.00  0.00    -0.505 OA
ATOM     42  H   UNL     1       9.841  -3.229   0.307  0.00  0.00    +0.292 HD
ENDBRANCH  40  41
ENDBRANCH  32  35
ENDBRANCH  30  32
ENDBRANCH   6  30
TORSDOF 9
