REMARK  Name = ZINC57313930
REMARK  6 active torsions:
REMARK  status: ('A' for Active; 'I' for Inactive)
REMARK    1  A    between atoms: C_4  and  C_7
REMARK    2  A    between atoms: C_10  and  C_12
REMARK    3  A    between atoms: C_13  and  C_14
REMARK    4  A    between atoms: N_16  and  C_17
REMARK    5  A    between atoms: C_17  and  N_19
REMARK    6  A    between atoms: C_22  and  C_25
REMARK                            x       y       z     vdW  Elec       q    Type
REMARK                         _______ _______ _______ _____ _____    ______ ____
ROOT
ATOM      1  C   UNL     1       9.144   0.626  -0.049  0.00  0.00    +0.242 C 
ATOM      2  O   UNL     1       9.906  -0.324  -0.065  0.00  0.00    -0.270 OA
ATOM      3  N   UNL     1       9.633   1.882  -0.045  0.00  0.00    -0.263 N 
ATOM      4  H   UNL     1       9.026   2.639  -0.032  0.00  0.00    +0.157 HD
ENDROOT
BRANCH   1   6
ATOM      5  C   UNL     1       7.255  -0.854  -0.037  0.00  0.00    +0.051 C 
ATOM      6  C   UNL     1       7.747   0.412  -0.034  0.00  0.00    +0.071 C 
BRANCH   5  10
ATOM      7  C   UNL     1       3.693  -0.681   0.008  0.00  0.00    +0.136 A 
ATOM      8  C   UNL     1       3.852  -2.048  -0.005  0.00  0.00    +0.050 A 
ATOM      9  C   UNL     1       5.227  -2.299  -0.024  0.00  0.00    +0.050 A 
ATOM     10  C   UNL     1       5.858  -1.069  -0.022  0.00  0.00    +0.129 A 
ATOM     11  O   UNL     1       4.910  -0.108  -0.009  0.00  0.00    -0.455 OA
BRANCH   7  15
ATOM     12  C   UNL     1      -0.017   1.383   0.069  0.00  0.00    +0.000 A 
ATOM     13  C   UNL     1       1.168   2.097   0.054  0.00  0.00    +0.001 A 
ATOM     14  C   UNL     1       2.377   1.433   0.035  0.00  0.00    +0.011 A 
ATOM     15  C   UNL     1       2.403   0.037   0.029  0.00  0.00    +0.017 A 
ATOM     16  C   UNL     1       1.203  -0.678   0.044  0.00  0.00    +0.011 A 
ATOM     17  C   UNL     1       0.002  -0.001   0.064  0.00  0.00    +0.001 A 
ENDBRANCH   7  15
ENDBRANCH   5  10
ENDBRANCH   1   6
BRANCH   3  18
ATOM     18  C   UNL     1      10.965   2.087  -0.060  0.00  0.00    +0.163 C 
ATOM     19  S   UNL     1      12.036   0.752  -0.083  0.00  0.00    -0.016 S 
BRANCH  18  20
ATOM     20  N   UNL     1      11.450   3.332  -0.056  0.00  0.00    -0.169 NA
ATOM     21  C   UNL     1      12.761   3.534   0.037  0.00  0.00    +0.162 A 
ATOM     22  N   UNL     1      13.425   4.718   0.159  0.00  0.00    -0.335 N 
ATOM     23  C   UNL     1      14.790   4.701   0.240  0.00  0.00    +0.055 A 
ATOM     24  C   UNL     1      15.389   3.490   0.193  0.00  0.00    +0.074 A 
ATOM     25  S   UNL     1      13.993   2.391   0.039  0.00  0.00    -0.060 S 
ATOM     26  H   UNL     1      12.938   5.556   0.187  0.00  0.00    +0.168 HD
BRANCH  23  27
ATOM     27  C   UNL     1      15.573   5.948   0.374  0.00  0.00    -0.001 A 
ATOM     28  C   UNL     1      14.924   7.182   0.425  0.00  0.00    +0.010 A 
ATOM     29  C   UNL     1      15.660   8.342   0.550  0.00  0.00    +0.001 A 
ATOM     30  C   UNL     1      17.041   8.284   0.624  0.00  0.00    +0.000 A 
ATOM     31  C   UNL     1      17.691   7.063   0.574  0.00  0.00    +0.001 A 
ATOM     32  C   UNL     1      16.966   5.896   0.455  0.00  0.00    +0.010 A 
ENDBRANCH  23  27
ENDBRANCH  18  20
ENDBRANCH   3  18
TORSDOF 6
