REMARK  Name = ZINC58209309
REMARK  7 active torsions:
REMARK  status: ('A' for Active; 'I' for Inactive)
REMARK    1  A    between atoms: C_1  and  C_2
REMARK    2  A    between atoms: C_2  and  C_4
REMARK    3  A    between atoms: C_2  and  N_11
REMARK    4  A    between atoms: C_12  and  C_14
REMARK    5  A    between atoms: C_14  and  N_15
REMARK    6  A    between atoms: C_19  and  C_22
REMARK    7  A    between atoms: C_24  and  C_27
REMARK                            x       y       z     vdW  Elec       q    Type
REMARK                         _______ _______ _______ _____ _____    ______ ____
ROOT
ATOM      1  N   UNL     1      -0.494  -1.368   4.640  0.00  0.00    +0.386 N 
ATOM      2  C   UNL     1      -1.039  -0.047   4.978  0.00  0.00    -0.078 C 
ATOM      3  C   UNL     1      -2.159  -0.202   6.009  0.00  0.00    -0.018 C 
ATOM      4  C   UNL     1      -1.596  -0.862   7.271  0.00  0.00    +0.009 C 
ATOM      5  C   UNL     1      -0.964  -2.205   6.894  0.00  0.00    +0.061 C 
ATOM      6  C   UNL     1       0.111  -1.977   5.830  0.00  0.00    -0.065 C 
ATOM      7  H   UNL     1      -1.239  -1.960   4.302  0.00  0.00    -0.081 HD
ENDROOT
BRANCH   5   8
ATOM      8  C   UNL     1      -0.340  -2.829   8.116  0.00  0.00    +0.229 A 
ATOM      9  N   UNL     1      -0.658  -3.984   8.628  0.00  0.00    -0.191 NA
ATOM     10  C   UNL     1       0.097  -4.229   9.714  0.00  0.00    +0.202 A 
ATOM     11  N   UNL     1       0.907  -3.216   9.898  0.00  0.00    -0.056 NA
ATOM     12  O   UNL     1       0.638  -2.291   8.856  0.00  0.00    -0.337 OA
BRANCH  10  13
ATOM     13  C   UNL     1       0.024  -5.445  10.562  0.00  0.00    +0.023 A 
ATOM     14  C   UNL     1      -0.882  -6.458  10.254  0.00  0.00    +0.014 A 
ATOM     15  C   UNL     1      -0.947  -7.587  11.045  0.00  0.00    +0.039 A 
ATOM     16  C   UNL     1      -0.113  -7.713  12.144  0.00  0.00    +0.123 A 
ATOM     17  C   UNL     1       0.789  -6.708  12.454  0.00  0.00    +0.039 A 
ATOM     18  C   UNL     1       0.864  -5.579  11.665  0.00  0.00    +0.014 A 
ATOM     19  F   UNL     1      -0.179  -8.820  12.916  0.00  0.00    -0.205 F 
ENDBRANCH  10  13
ENDBRANCH   5   8
BRANCH   1  20
ATOM     20  C   UNL     1       0.526  -1.222   3.593  0.00  0.00    +0.019 C 
BRANCH  20  22
ATOM     21  N   UNL     1       0.629  -0.500   1.230  0.00  0.00    -0.310 N 
ATOM     22  C   UNL     1      -0.119  -0.712   2.330  0.00  0.00    +0.197 C 
ATOM     23  O   UNL     1      -1.311  -0.491   2.305  0.00  0.00    -0.278 OA
ATOM     24  H   UNL     1       1.583  -0.676   1.250  0.00  0.00    +0.149 HD
BRANCH  21  26
ATOM     25  C   UNL     1      -0.038   1.525   0.032  0.00  0.00    +0.033 C 
ATOM     26  C   UNL     1       0.002  -0.004   0.002  0.00  0.00    +0.101 C 
BRANCH  26  27
ATOM     27  C   UNL     1       0.801  -0.463  -1.191  0.00  0.00    -0.009 A 
ATOM     28  C   UNL     1       2.154  -0.715  -1.061  0.00  0.00    +0.007 A 
ATOM     29  C   UNL     1       2.886  -1.136  -2.155  0.00  0.00    +0.000 A 
ATOM     30  C   UNL     1       2.267  -1.305  -3.380  0.00  0.00    +0.001 A 
ATOM     31  C   UNL     1       0.914  -1.053  -3.510  0.00  0.00    +0.020 A 
ATOM     32  C   UNL     1       0.179  -0.637  -2.414  0.00  0.00    +0.046 A 
ATOM     33 CL   UNL     1      -1.521  -0.326  -2.576  0.00  0.00    -0.083 Cl
ENDBRANCH  26  27
ENDBRANCH  21  26
ENDBRANCH  20  22
ENDBRANCH   1  20
TORSDOF 6
