REMARK  Name = ZINC35671239
REMARK  6 active torsions:
REMARK  status: ('A' for Active; 'I' for Inactive)
REMARK    1  A    between atoms: C_1  and  C_2
REMARK    2  A    between atoms: C_5  and  C_8
REMARK    3  A    between atoms: N_10  and  C_11
REMARK    4  A    between atoms: C_12  and  N_25
REMARK    5  A    between atoms: N_17  and  C_18
REMARK    6  A    between atoms: C_21  and  C_24
REMARK                            x       y       z     vdW  Elec       q    Type
REMARK                         _______ _______ _______ _____ _____    ______ ____
ROOT
ATOM      1  C   UNL     1       0.320  -6.335   1.107  0.00  0.00    +0.115 A 
ATOM      2  C   UNL     1       0.258  -7.143   0.009  0.00  0.00    +0.135 A 
ATOM      3  N   UNL     1       0.506  -8.415   0.423  0.00  0.00    -0.261 N 
ATOM      4  H   UNL     1       0.527  -9.204  -0.141  0.00  0.00    +0.190 HD
ATOM      5  N   UNL     1       0.725  -8.386   1.806  0.00  0.00    -0.155 NA
ATOM      6  C   UNL     1       0.621  -7.144   2.217  0.00  0.00    +0.168 A 
ATOM      7  N   UNL     1       0.778  -6.701   3.537  0.00  0.00    -0.296 N 
ATOM      8  H   UNL     1       0.743  -5.752   3.737  0.00  0.00    +0.154 HD
ENDROOT
BRANCH   7   9
ATOM      9  C   UNL     1       0.987  -7.624   4.563  0.00  0.00    +0.032 A 
ATOM     10  C   UNL     1       1.720  -7.263   5.687  0.00  0.00    +0.023 A 
ATOM     11  C   UNL     1       1.925  -8.178   6.700  0.00  0.00    +0.005 A 
ATOM     12  C   UNL     1       1.401  -9.454   6.597  0.00  0.00    -0.050 A 
ATOM     13  C   UNL     1       0.671  -9.818   5.480  0.00  0.00    +0.005 A 
ATOM     14  C   UNL     1       0.457  -8.905   4.466  0.00  0.00    +0.023 A 
ATOM     15  C   UNL     1       1.627 -10.451   7.705  0.00  0.00    +0.044 C 
ENDBRANCH   7   9
BRANCH   1  18
ATOM     16  C   UNL     1      -0.361  -4.338   2.230  0.00  0.00    +0.248 C 
ATOM     17  O   UNL     1      -0.719  -5.011   3.178  0.00  0.00    -0.270 OA
ATOM     18  N   UNL     1       0.123  -4.937   1.124  0.00  0.00    -0.276 N 
ATOM     19  H   UNL     1       0.337  -4.408   0.340  0.00  0.00    +0.155 HD
BRANCH  16  24
ATOM     20  C   UNL     1      -0.737   1.399   2.465  0.00  0.00    +0.044 C 
ATOM     21  C   UNL     1      -0.639  -0.103   2.404  0.00  0.00    -0.050 A 
ATOM     22  C   UNL     1      -1.047  -0.865   3.484  0.00  0.00    +0.004 A 
ATOM     23  C   UNL     1      -0.960  -2.241   3.434  0.00  0.00    +0.013 A 
ATOM     24  C   UNL     1      -0.458  -2.865   2.290  0.00  0.00    +0.037 A 
ATOM     25  C   UNL     1      -0.048  -2.090   1.204  0.00  0.00    +0.013 A 
ATOM     26  C   UNL     1      -0.146  -0.715   1.265  0.00  0.00    +0.004 A 
ENDBRANCH  16  24
ENDBRANCH   1  18
BRANCH   2  27
ATOM     27  N   UNL     1      -0.012  -6.738  -1.298  0.00  0.00    -0.342 N 
ATOM     28  H   UNL     1      -0.104  -5.795  -1.504  0.00  0.00    +0.144 HD
ATOM     29  H   UNL     1      -0.106  -7.400  -2.001  0.00  0.00    +0.144 HD
ENDBRANCH   2  27
TORSDOF 4
