REMARK  Name = ZINC65081563
REMARK  7 active torsions:
REMARK  status: ('A' for Active; 'I' for Inactive)
REMARK    1  A    between atoms: C_1  and  C_2
REMARK    2  A    between atoms: C_5  and  C_8
REMARK    3  A    between atoms: C_8  and  C_10
REMARK    4  A    between atoms: C_8  and  N_11
REMARK    5  A    between atoms: C_12  and  C_14
REMARK    6  A    between atoms: C_26  and  C_36
REMARK    7  A    between atoms: N_28  and  C_29
REMARK                            x       y       z     vdW  Elec       q    Type
REMARK                         _______ _______ _______ _____ _____    ______ ____
ROOT
ATOM      1  C   UNL     1       2.460  -6.468   1.999  0.00  0.00    +0.092 C 
ATOM      2  C   UNL     1       2.971  -7.864   1.633  0.00  0.00    +0.016 C 
ATOM      3  C   UNL     1       3.937  -8.355   2.713  0.00  0.00    +0.020 C 
ATOM      4  C   UNL     1       3.196  -8.447   4.051  0.00  0.00    +0.107 C 
ATOM      5  N   UNL     1       2.578  -7.146   4.340  0.00  0.00    -0.309 N 
ATOM      6  C   UNL     1       1.702  -6.539   3.329  0.00  0.00    +0.119 C 
ATOM      7  C   UNL     1       2.816  -6.505   5.542  0.00  0.00    +0.164 A 
ATOM      8  N   UNL     1       3.567  -6.890   6.553  0.00  0.00    -0.205 NA
ATOM      9  C   UNL     1       3.703  -6.155   7.664  0.00  0.00    +0.173 A 
ATOM     10  C   UNL     1       3.002  -4.947   7.703  0.00  0.00    +0.082 A 
ATOM     11  S   UNL     1       2.190  -4.935   6.124  0.00  0.00    -0.049 S 
ATOM     12  C   UNL     1       3.248  -4.314   8.911  0.00  0.00    +0.076 A 
ATOM     13  N   UNL     1       4.058  -5.064   9.613  0.00  0.00    -0.169 NA
ATOM     14  N   UNL     1       4.367  -6.215   8.882  0.00  0.00    -0.213 N 
ATOM     15  C   UNL     1       2.680  -2.987   9.342  0.00  0.00    +0.069 C 
ENDROOT
BRANCH  14  16
ATOM     16  C   UNL     1       5.205  -7.254   9.306  0.00  0.00    +0.068 A 
ATOM     17  C   UNL     1       4.927  -8.565   8.942  0.00  0.00    +0.030 A 
ATOM     18  C   UNL     1       5.755  -9.588   9.362  0.00  0.00    +0.040 A 
ATOM     19  C   UNL     1       6.862  -9.307  10.145  0.00  0.00    +0.124 A 
ATOM     20  C   UNL     1       7.141  -8.000  10.509  0.00  0.00    +0.040 A 
ATOM     21  C   UNL     1       6.319  -6.974  10.087  0.00  0.00    +0.030 A 
ATOM     22  F   UNL     1       7.670 -10.309  10.555  0.00  0.00    -0.205 F 
ENDBRANCH  14  16
BRANCH   1  24
ATOM     23  N   UNL     1       0.959  -4.758   1.029  0.00  0.00    -0.308 N 
ATOM     24  C   UNL     1       1.534  -5.972   0.919  0.00  0.00    +0.218 C 
ATOM     25  O   UNL     1       1.306  -6.665  -0.050  0.00  0.00    -0.275 OA
ATOM     26  H   UNL     1       1.142  -4.204   1.804  0.00  0.00    +0.149 HD
BRANCH  23  27
ATOM     27  C   UNL     1       0.059  -4.275  -0.021  0.00  0.00    +0.100 C 
ATOM     28  C   UNL     1      -1.353  -4.805   0.234  0.00  0.00    +0.033 C 
BRANCH  27  33
ATOM     29  C   UNL     1      -0.018   1.503   0.010  0.00  0.00    +0.044 C 
ATOM     30  C   UNL     1       0.002  -0.004   0.002  0.00  0.00    -0.050 A 
ATOM     31  C   UNL     1       0.006  -0.689  -1.199  0.00  0.00    +0.004 A 
ATOM     32  C   UNL     1       0.025  -2.071  -1.206  0.00  0.00    +0.006 A 
ATOM     33  C   UNL     1       0.040  -2.768  -0.013  0.00  0.00    -0.027 A 
ATOM     34  C   UNL     1       0.037  -2.084   1.188  0.00  0.00    +0.006 A 
ATOM     35  C   UNL     1       0.023  -0.702   1.195  0.00  0.00    +0.004 A 
ENDBRANCH  27  33
ENDBRANCH  23  27
ENDBRANCH   1  24
TORSDOF 4
