REMARK  Name = ZINC63514064
REMARK  9 active torsions:
REMARK  status: ('A' for Active; 'I' for Inactive)
REMARK    1  A    between atoms: C_1  and  C_2
REMARK    2  A    between atoms: C_4  and  C_12
REMARK    3  A    between atoms: C_12  and  C_13
REMARK    4  A    between atoms: C_13  and  N_14
REMARK    5  A    between atoms: N_14  and  S_15
REMARK    6  A    between atoms: S_15  and  C_18
REMARK    7  A    between atoms: C_21  and  O_24
REMARK    8  A    between atoms: O_24  and  C_25
REMARK    9  A    between atoms: C_28  and  N_31
REMARK                            x       y       z     vdW  Elec       q    Type
REMARK                         _______ _______ _______ _____ _____    ______ ____
ROOT
ATOM      1  S   UNL     1      -7.270  -2.479  -1.846  0.00  0.00    +0.058 S 
ATOM      2  O   UNL     1      -8.069  -1.779  -2.789  0.00  0.00    -0.153 OA
ATOM      3  O   UNL     1      -7.205  -3.898  -1.806  0.00  0.00    -0.153 OA
ENDROOT
BRANCH   1   4
ATOM      4  C   UNL     1      -7.800  -1.955  -0.249  0.00  0.00    +0.105 A 
ATOM      5  C   UNL     1      -7.587  -2.766   0.850  0.00  0.00    +0.032 A 
ATOM      6  C   UNL     1      -8.002  -2.357   2.103  0.00  0.00    +0.048 A 
ATOM      7  C   UNL     1      -8.632  -1.131   2.257  0.00  0.00    +0.129 A 
ATOM      8  C   UNL     1      -8.844  -0.318   1.153  0.00  0.00    +0.048 A 
ATOM      9  C   UNL     1      -8.423  -0.730  -0.097  0.00  0.00    +0.032 A 
BRANCH   7  10
ATOM     10  O   UNL     1      -9.041  -0.727   3.488  0.00  0.00    -0.456 OA
BRANCH  10  11
ATOM     11  C   UNL     1      -8.806  -1.552   4.542  0.00  0.00    +0.129 A 
ATOM     12  C   UNL     1      -7.624  -1.443   5.260  0.00  0.00    +0.048 A 
ATOM     13  C   UNL     1      -7.387  -2.283   6.330  0.00  0.00    +0.036 A 
ATOM     14  C   UNL     1      -8.326  -3.233   6.686  0.00  0.00    +0.126 A 
ATOM     15  C   UNL     1      -9.505  -3.344   5.972  0.00  0.00    +0.036 A 
ATOM     16  C   UNL     1      -9.750  -2.502   4.905  0.00  0.00    +0.048 A 
BRANCH  14  17
ATOM     17  N   UNL     1      -8.070  -4.132   7.834  0.00  0.00    +0.056 N 
ATOM     18  O   UNL     1      -7.039  -4.036   8.459  0.00  0.00    -0.126 OA
ATOM     19  O   UNL     1      -8.891  -4.963   8.146  0.00  0.00    -0.126 OA
ENDBRANCH  14  17
ENDBRANCH  10  11
ENDBRANCH   7  10
ENDBRANCH   1   4
BRANCH   1  20
ATOM     20  N   UNL     1      -5.717  -1.940  -2.047  0.00  0.00    -0.190 NA
ATOM     21  H   UNL     1      -5.518  -1.281  -2.730  0.00  0.00    +0.148 HD
BRANCH  20  22
ATOM     22  C   UNL     1      -4.645  -2.459  -1.195  0.00  0.00    +0.110 C 
BRANCH  22  23
ATOM     23  C   UNL     1      -3.289  -2.105  -1.808  0.00  0.00    +0.050 C 
BRANCH  23  26
ATOM     24  C   UNL     1      -0.291  -1.038  -1.192  0.00  0.00    +0.035 C 
ATOM     25  C   UNL     1      -0.697  -2.513  -1.164  0.00  0.00    +0.103 C 
ATOM     26  C   UNL     1      -2.186  -2.639  -0.931  0.00  0.00    -0.037 C 
ATOM     27  C   UNL     1      -2.327  -3.327   0.225  0.00  0.00    -0.001 A 
ATOM     28  C   UNL     1      -3.505  -3.768   0.982  0.00  0.00    +0.010 A 
ATOM     29  C   UNL     1      -3.325  -4.457   2.132  0.00  0.00    +0.001 A 
ATOM     30  C   UNL     1      -2.046  -4.758   2.618  0.00  0.00    +0.002 A 
ATOM     31  C   UNL     1      -0.916  -4.387   1.979  0.00  0.00    +0.026 A 
ATOM     32  C   UNL     1      -0.987  -3.659   0.759  0.00  0.00    +0.043 A 
ATOM     33  N   UNL     1      -0.052  -3.193  -0.035  0.00  0.00    -0.378 N 
ATOM     34  H   UNL     1       0.904  -3.284   0.100  0.00  0.00    +0.160 HD
ENDBRANCH  23  26
ENDBRANCH  22  23
ENDBRANCH  20  22
ENDBRANCH   1  20
TORSDOF 8
