REMARK  Name = ZINC15772661
REMARK  6 active torsions:
REMARK  status: ('A' for Active; 'I' for Inactive)
REMARK    1  A    between atoms: C_3  and  N_17
REMARK    2  A    between atoms: C_4  and  N_7
REMARK    3  A    between atoms: C_8  and  C_9
REMARK    4  A    between atoms: C_10  and  O_16
REMARK    5  A    between atoms: C_18  and  C_19
REMARK    6  A    between atoms: C_20  and  O_26
REMARK                            x       y       z     vdW  Elec       q    Type
REMARK                         _______ _______ _______ _____ _____    ______ ____
ROOT
ATOM      1  C   UNL     1      -0.012   1.257  -0.359  0.00  0.00    +0.002 A 
ATOM      2  C   UNL     1       1.132   2.028  -0.390  0.00  0.00    +0.030 A 
ATOM      3  C   UNL     1       2.368   1.454  -0.090  0.00  0.00    +0.089 A 
ATOM      4  C   UNL     1       2.436   0.085   0.243  0.00  0.00    +0.089 A 
ATOM      5  C   UNL     1       1.267  -0.675   0.269  0.00  0.00    +0.030 A 
ATOM      6  C   UNL     1       0.055  -0.088  -0.031  0.00  0.00    +0.002 A 
ENDROOT
BRANCH   4   7
ATOM      7  N   UNL     1       3.638  -0.491   0.539  0.00  0.00    -0.253 NA
ATOM      8  C   UNL     1       3.980  -1.614  -0.030  0.00  0.00    +0.123 C 
BRANCH   8   9
ATOM      9  C   UNL     1       5.218  -2.296   0.375  0.00  0.00    +0.036 A 
ATOM     10  C   UNL     1       6.032  -1.745   1.377  0.00  0.00    +0.125 A 
ATOM     11  C   UNL     1       7.196  -2.396   1.751  0.00  0.00    +0.047 A 
ATOM     12  C   UNL     1       7.554  -3.583   1.139  0.00  0.00    +0.019 A 
ATOM     13  C   UNL     1       6.755  -4.130   0.149  0.00  0.00    +0.019 A 
ATOM     14  C   UNL     1       5.589  -3.500  -0.233  0.00  0.00    +0.028 A 
ATOM     15 BR   UNL     1       7.261  -5.754  -0.679  0.00  0.00    -0.050 Br
BRANCH  10  16
ATOM     16  O   UNL     1       5.680  -0.580   1.977  0.00  0.00    -0.506 OA
ATOM     17  H   UNL     1       5.129  -0.693   2.764  0.00  0.00    +0.292 HD
ENDBRANCH  10  16
ENDBRANCH   8   9
ENDBRANCH   4   7
BRANCH   3  18
ATOM     18  N   UNL     1       3.503   2.212  -0.120  0.00  0.00    -0.253 NA
ATOM     19  C   UNL     1       3.534   3.365   0.491  0.00  0.00    +0.123 C 
BRANCH  19  20
ATOM     20  C   UNL     1       4.778   4.146   0.523  0.00  0.00    +0.036 A 
ATOM     21  C   UNL     1       5.934   3.660  -0.107  0.00  0.00    +0.125 A 
ATOM     22  C   UNL     1       7.101   4.405  -0.071  0.00  0.00    +0.047 A 
ATOM     23  C   UNL     1       7.127   5.622   0.583  0.00  0.00    +0.019 A 
ATOM     24  C   UNL     1       5.989   6.107   1.208  0.00  0.00    +0.019 A 
ATOM     25  C   UNL     1       4.816   5.382   1.177  0.00  0.00    +0.028 A 
ATOM     26 BR   UNL     1       6.043   7.773   2.100  0.00  0.00    -0.050 Br
BRANCH  21  27
ATOM     27  O   UNL     1       5.908   2.464  -0.750  0.00  0.00    -0.506 OA
ATOM     28  H   UNL     1       5.664   2.524  -1.683  0.00  0.00    +0.292 HD
ENDBRANCH  21  27
ENDBRANCH  19  20
ENDBRANCH   3  18
TORSDOF 6
