REMARK  Name = ZINC39725112
REMARK  10 active torsions:
REMARK  status: ('A' for Active; 'I' for Inactive)
REMARK    1  A    between atoms: C_1  and  C_2
REMARK    2  A    between atoms: C_4  and  C_34
REMARK    3  A    between atoms: C_5  and  C_33
REMARK    4  A    between atoms: C_6  and  C_8
REMARK    5  A    between atoms: C_8  and  C_10
REMARK    6  A    between atoms: C_10  and  S_11
REMARK    7  A    between atoms: S_11  and  C_12
REMARK    8  A    between atoms: N_25  and  C_26
REMARK    9  A    between atoms: C_26  and  C_27
REMARK   10  A    between atoms: C_34  and  C_36
REMARK                            x       y       z     vdW  Elec       q    Type
REMARK                         _______ _______ _______ _____ _____    ______ ____
ROOT
ATOM      1  C   UNL     1       3.752  -2.488   5.569  0.00  0.00    +0.198 A 
ATOM      2  N   UNL     1       2.768  -1.822   6.123  0.00  0.00    -0.120 NA
ATOM      3  N   UNL     1       2.916  -1.906   7.512  0.00  0.00    -0.109 NA
ATOM      4  C   UNL     1       3.988  -2.621   7.767  0.00  0.00    +0.240 A 
ATOM      5  N   UNL     1       4.529  -3.005   6.571  0.00  0.00    -0.256 N 
ATOM      6  C   UNL     1       5.682  -3.786   6.532  0.00  0.00    +0.064 A 
ATOM      7  C   UNL     1       6.241  -4.176   5.325  0.00  0.00    +0.027 A 
ATOM      8  C   UNL     1       7.384  -4.950   5.315  0.00  0.00    +0.002 A 
ATOM      9  C   UNL     1       7.980  -5.343   6.503  0.00  0.00    +0.001 A 
ATOM     10  C   UNL     1       7.438  -4.964   7.714  0.00  0.00    +0.015 A 
ATOM     11  C   UNL     1       6.284  -4.182   7.736  0.00  0.00    +0.064 A 
ATOM     12  C   UNL     1       5.674  -3.756   9.009  0.00  0.00    +0.263 A 
ATOM     13  O   UNL     1       6.168  -4.080  10.072  0.00  0.00    -0.267 OA
ATOM     14  N   UNL     1       4.563  -2.992   8.974  0.00  0.00    -0.272 N 
ENDROOT
BRANCH   1  15
ATOM     15  S   UNL     1       4.023  -2.689   3.840  0.00  0.00    -0.078 S 
BRANCH  15  16
ATOM     16  C   UNL     1       2.659  -1.772   3.072  0.00  0.00    +0.158 C 
BRANCH  16  17
ATOM     17  C   UNL     1       2.772  -1.864   1.572  0.00  0.00    +0.191 C 
ATOM     18  O   UNL     1       3.680  -2.485   1.073  0.00  0.00    -0.290 OA
BRANCH  17  23
ATOM     19  C   UNL     1      -0.019   1.526   0.010  0.00  0.00    +0.038 C 
ATOM     20  C   UNL     1       0.002  -0.004   0.002  0.00  0.00    +0.137 C 
ATOM     21  C   UNL     1       0.731  -0.510  -1.223  0.00  0.00    +0.024 C 
ATOM     22  C   UNL     1       1.785  -1.218  -0.759  0.00  0.00    -0.014 C 
ATOM     23  C   UNL     1       1.770  -1.194   0.711  0.00  0.00    +0.106 C 
ATOM     24  N   UNL     1       0.760  -0.507   1.153  0.00  0.00    -0.272 NA
ATOM     25  C   UNL     1       2.810  -1.921  -1.611  0.00  0.00    +0.046 C 
BRANCH  21  26
ATOM     26  C   UNL     1       0.370  -0.280  -2.621  0.00  0.00    +0.159 C 
ATOM     27  O   UNL     1       1.052  -0.750  -3.508  0.00  0.00    -0.293 OA
ATOM     28  C   UNL     1      -0.847   0.540  -2.960  0.00  0.00    +0.091 C 
ENDBRANCH  21  26
ENDBRANCH  17  23
ENDBRANCH  16  17
ENDBRANCH  15  16
ENDBRANCH   1  15
BRANCH  14  29
ATOM     29  C   UNL     1       3.943  -2.562  10.230  0.00  0.00    +0.163 C 
BRANCH  29  30
ATOM     30  C   UNL     1       2.940  -3.596  10.674  0.00  0.00    -0.028 A 
ATOM     31  C   UNL     1       1.625  -3.507  10.257  0.00  0.00    +0.005 A 
ATOM     32  C   UNL     1       0.705  -4.454  10.665  0.00  0.00    +0.000 A 
ATOM     33  C   UNL     1       1.100  -5.492  11.489  0.00  0.00    +0.000 A 
ATOM     34  C   UNL     1       2.416  -5.581  11.905  0.00  0.00    +0.000 A 
ATOM     35  C   UNL     1       3.337  -4.636  11.494  0.00  0.00    +0.005 A 
ENDBRANCH  29  30
ENDBRANCH  14  29
TORSDOF 7
