REMARK  Name = ZINC63251890
REMARK  8 active torsions:
REMARK  status: ('A' for Active; 'I' for Inactive)
REMARK    1  A    between atoms: C_1  and  C_2
REMARK    2  A    between atoms: C_4  and  C_17
REMARK    3  A    between atoms: C_6  and  C_16
REMARK    4  A    between atoms: N_8  and  C_10
REMARK    5  A    between atoms: N_18  and  N_19
REMARK    6  A    between atoms: C_20  and  C_22
REMARK    7  A    between atoms: C_22  and  S_23
REMARK    8  A    between atoms: S_23  and  C_24
REMARK                            x       y       z     vdW  Elec       q    Type
REMARK                         _______ _______ _______ _____ _____    ______ ____
ROOT
ATOM      1  N   UNL     1      -3.048  -3.289  -1.545  0.00  0.00    -0.207 N 
ATOM      2  C   UNL     1      -3.997  -3.463  -2.486  0.00  0.00    +0.242 C 
ATOM      3  O   UNL     1      -4.546  -2.501  -2.979  0.00  0.00    -0.273 OA
ATOM      4  H   UNL     1      -2.608  -4.059  -1.152  0.00  0.00    +0.177 HD
ENDROOT
BRANCH   1   6
ATOM      5  C   UNL     1      -1.795  -1.830  -0.242  0.00  0.00    +0.110 C 
ATOM      6  N   UNL     1      -2.696  -1.996  -1.136  0.00  0.00    -0.192 NA
BRANCH   5   9
ATOM      7  C   UNL     1       0.376   1.332  -0.117  0.00  0.00    +0.026 C 
ATOM      8  C   UNL     1       0.094  -0.170  -0.037  0.00  0.00    +0.080 C 
ATOM      9  C   UNL     1      -1.417  -0.440   0.198  0.00  0.00    +0.072 C 
ATOM     10  C   UNL     1      -1.510  -0.297   1.737  0.00  0.00    +0.098 C 
ATOM     11  N   UNL     1      -0.135  -0.472   2.230  0.00  0.00    -0.263 N 
ATOM     12  N   UNL     1       0.702  -0.761   1.182  0.00  0.00    -0.236 NA
ATOM     13  C   UNL     1      -2.036   1.091   2.109  0.00  0.00    +0.030 C 
ATOM     14  H   UNL     1       0.822  -1.758   1.079  0.00  0.00    +0.145 HD
BRANCH  11  15
ATOM     15  C   UNL     1       0.260  -0.360   3.565  0.00  0.00    +0.045 A 
ATOM     16  C   UNL     1      -0.464  -1.003   4.561  0.00  0.00    +0.024 A 
ATOM     17  C   UNL     1      -0.071  -0.891   5.880  0.00  0.00    +0.002 A 
ATOM     18  C   UNL     1       1.042  -0.139   6.210  0.00  0.00    +0.000 A 
ATOM     19  C   UNL     1       1.764   0.502   5.221  0.00  0.00    +0.002 A 
ATOM     20  C   UNL     1       1.380   0.390   3.899  0.00  0.00    +0.024 A 
ENDBRANCH  11  15
ENDBRANCH   5   9
ENDBRANCH   1   6
BRANCH   2  21
ATOM     21  C   UNL     1      -4.374  -4.854  -2.927  0.00  0.00    +0.170 C 
BRANCH  21  22
ATOM     22  S   UNL     1      -5.669  -4.756  -4.194  0.00  0.00    -0.106 S 
BRANCH  22  23
ATOM     23  C   UNL     1      -6.006  -6.489  -4.612  0.00  0.00    +0.236 C 
ATOM     24  N   UNL     1      -6.391  -7.232  -3.405  0.00  0.00    -0.355 N 
ATOM     25  C   UNL     1      -5.515  -8.181  -3.235  0.00  0.00    +0.061 A 
ATOM     26  C   UNL     1      -5.368  -9.233  -2.220  0.00  0.00    +0.027 A 
ATOM     27  C   UNL     1      -4.335 -10.095  -2.301  0.00  0.00    +0.002 A 
ATOM     28  C   UNL     1      -3.376 -10.035  -3.329  0.00  0.00    +0.002 A 
ATOM     29  C   UNL     1      -3.418  -9.110  -4.309  0.00  0.00    +0.027 A 
ATOM     30  C   UNL     1      -4.500  -8.116  -4.321  0.00  0.00    +0.061 A 
ATOM     31  N   UNL     1      -4.788  -7.131  -5.122  0.00  0.00    -0.355 N 
ATOM     32  H   UNL     1      -7.157  -7.050  -2.839  0.00  0.00    +0.162 HD
ATOM     33  H   UNL     1      -4.289  -6.869  -5.911  0.00  0.00    +0.162 HD
ENDBRANCH  22  23
ENDBRANCH  21  22
ENDBRANCH   2  21
TORSDOF 6
