REMARK  Name = ZINC38904039
REMARK  9 active torsions:
REMARK  status: ('A' for Active; 'I' for Inactive)
REMARK    1  A    between atoms: C_1  and  C_2
REMARK    2  A    between atoms: C_2  and  O_3
REMARK    3  A    between atoms: O_3  and  C_4
REMARK    4  A    between atoms: C_7  and  N_10
REMARK    5  A    between atoms: N_10  and  C_11
REMARK    6  A    between atoms: C_11  and  C_12
REMARK    7  A    between atoms: C_19  and  C_24
REMARK    8  A    between atoms: C_25  and  C_27
REMARK    9  A    between atoms: C_30  and  C_33
REMARK                            x       y       z     vdW  Elec       q    Type
REMARK                         _______ _______ _______ _____ _____    ______ ____
ROOT
ATOM      1  N   UNL     1       0.523  -5.698  -2.111  0.00  0.00    -0.266 N 
ATOM      2  C   UNL     1      -0.026  -6.536  -1.209  0.00  0.00    +0.251 C 
ATOM      3  O   UNL     1      -0.037  -6.238  -0.031  0.00  0.00    -0.270 OA
ENDROOT
BRANCH   2   4
ATOM      4  C   UNL     1      -0.616  -7.816  -1.653  0.00  0.00    +0.037 A 
ATOM      5  C   UNL     1      -0.078  -8.494  -2.748  0.00  0.00    +0.013 A 
ATOM      6  C   UNL     1      -0.634  -9.688  -3.158  0.00  0.00    +0.004 A 
ATOM      7  C   UNL     1      -1.722 -10.215  -2.485  0.00  0.00    -0.050 A 
ATOM      8  C   UNL     1      -2.261  -9.548  -1.399  0.00  0.00    +0.004 A 
ATOM      9  C   UNL     1      -1.711  -8.356  -0.975  0.00  0.00    +0.013 A 
ATOM     10  C   UNL     1      -2.325 -11.520  -2.938  0.00  0.00    +0.044 C 
ENDBRANCH   2   4
BRANCH   1  14
ATOM     11  C   UNL     1       2.519  -2.270  -0.828  0.00  0.00    +0.121 A 
ATOM     12  C   UNL     1       2.168  -3.252   0.088  0.00  0.00    +0.047 A 
ATOM     13  C   UNL     1       1.507  -4.388  -0.337  0.00  0.00    +0.027 A 
ATOM     14  C   UNL     1       1.193  -4.547  -1.680  0.00  0.00    +0.037 A 
ATOM     15  C   UNL     1       1.545  -3.564  -2.596  0.00  0.00    +0.027 A 
ATOM     16  C   UNL     1       2.201  -2.426  -2.169  0.00  0.00    +0.047 A 
BRANCH  11  17
ATOM     17  O   UNL     1       3.171  -1.153  -0.409  0.00  0.00    -0.492 OA
BRANCH  17  19
ATOM     18  C   UNL     1       4.196   0.258   1.264  0.00  0.00    +0.048 C 
ATOM     19  C   UNL     1       3.467  -1.058   0.985  0.00  0.00    +0.225 C 
ENDBRANCH  17  19
ENDBRANCH  11  17
ENDBRANCH   1  14
BRANCH   1  20
ATOM     20  C   UNL     1       0.420  -5.993  -3.542  0.00  0.00    +0.131 C 
BRANCH  20  21
ATOM     21  C   UNL     1       1.823  -6.126  -4.138  0.00  0.00    +0.116 C 
ATOM     22  C   UNL     1       1.682  -6.210  -5.646  0.00  0.00    -0.003 C 
ATOM     23  C   UNL     1       2.192  -7.315  -6.260  0.00  0.00    -0.007 A 
ATOM     24  C   UNL     1       2.099  -7.477  -7.712  0.00  0.00    +0.009 A 
ATOM     25  C   UNL     1       2.621  -8.594  -8.281  0.00  0.00    +0.001 A 
ATOM     26  C   UNL     1       3.238  -9.581  -7.511  0.00  0.00    +0.005 A 
ATOM     27  C   UNL     1       3.356  -9.490  -6.161  0.00  0.00    -0.029 A 
ATOM     28  C   UNL     1       2.850  -8.372  -5.473  0.00  0.00    +0.043 A 
ATOM     29  N   UNL     1       2.972  -8.293  -4.148  0.00  0.00    -0.284 N 
ATOM     30  C   UNL     1       2.517  -7.274  -3.441  0.00  0.00    +0.226 C 
ATOM     31  O   UNL     1       2.658  -7.258  -2.232  0.00  0.00    -0.275 OA
ATOM     32  C   UNL     1       4.035 -10.595  -5.394  0.00  0.00    +0.045 C 
ATOM     33  H   UNL     1       3.415  -9.019  -3.681  0.00  0.00    +0.155 HD
ENDBRANCH  20  21
ENDBRANCH   1  20
TORSDOF 6
