REMARK  Name = ZINC05701509
REMARK  6 active torsions:
REMARK  status: ('A' for Active; 'I' for Inactive)
REMARK    1  A    between atoms: C_1  and  C_2
REMARK    2  A    between atoms: C_12  and  C_14
REMARK    3  A    between atoms: C_14  and  S_15
REMARK    4  A    between atoms: S_15  and  C_16
REMARK    5  A    between atoms: C_19  and  C_27
REMARK    6  A    between atoms: N_20  and  C_21
REMARK                            x       y       z     vdW  Elec       q    Type
REMARK                         _______ _______ _______ _____ _____    ______ ____
ROOT
ATOM      1  C   UNL     1       1.708   2.135  -0.003  0.00  0.00    +0.197 A 
ATOM      2  N   UNL     1       2.672   1.242  -0.011  0.00  0.00    -0.122 NA
ATOM      3  N   UNL     1       3.817   1.824  -0.024  0.00  0.00    -0.125 NA
ATOM      4  C   UNL     1       3.658   3.130  -0.016  0.00  0.00    +0.205 A 
ATOM      5  N   UNL     1       2.300   3.370  -0.002  0.00  0.00    -0.268 N 
ENDROOT
BRANCH   5   6
ATOM      6  C   UNL     1       1.660   4.617   0.010  0.00  0.00    +0.051 A 
ATOM      7  C   UNL     1       1.788   5.475  -1.073  0.00  0.00    +0.026 A 
ATOM      8  C   UNL     1       1.151   6.701  -1.061  0.00  0.00    +0.002 A 
ATOM      9  C   UNL     1       0.396   7.078   0.034  0.00  0.00    +0.000 A 
ATOM     10  C   UNL     1       0.271   6.228   1.117  0.00  0.00    +0.002 A 
ATOM     11  C   UNL     1       0.900   4.998   1.108  0.00  0.00    +0.026 A 
ENDBRANCH   5   6
BRANCH   4  12
ATOM     12  C   UNL     1       4.726   4.141  -0.020  0.00  0.00    +0.172 A 
ATOM     13  C   UNL     1       6.043   3.916   0.253  0.00  0.00    +0.053 A 
ATOM     14  C   UNL     1       6.699   5.157   0.133  0.00  0.00    +0.042 A 
ATOM     15  C   UNL     1       5.764   6.068  -0.202  0.00  0.00    +0.196 A 
ATOM     16  O   UNL     1       4.575   5.451  -0.299  0.00  0.00    -0.460 OA
ENDBRANCH   4  12
BRANCH   1  17
ATOM     17  S   UNL     1      -0.022   1.806   0.012  0.00  0.00    -0.076 S 
BRANCH  17  18
ATOM     18  C   UNL     1       0.002  -0.004   0.002  0.00  0.00    +0.173 C 
BRANCH  18  29
ATOM     19  C   UNL     1      -3.724  -2.084   1.292  0.00  0.00    +0.029 C 
ATOM     20  C   UNL     1      -2.966  -2.479   0.023  0.00  0.00    +0.083 C 
ATOM     21  C   UNL     1      -2.698  -3.993   0.007  0.00  0.00    +0.059 C 
ATOM     22  C   UNL     1      -1.190  -4.112  -0.007  0.00  0.00    -0.024 A 
ATOM     23  C   UNL     1      -0.370  -5.224  -0.020  0.00  0.00    +0.005 A 
ATOM     24  C   UNL     1       1.004  -5.074  -0.032  0.00  0.00    +0.000 A 
ATOM     25  C   UNL     1       1.556  -3.806  -0.031  0.00  0.00    +0.002 A 
ATOM     26  C   UNL     1       0.742  -2.694  -0.019  0.00  0.00    +0.024 A 
ATOM     27  C   UNL     1      -0.647  -2.838  -0.006  0.00  0.00    +0.040 A 
ATOM     28  N   UNL     1      -1.640  -1.854   0.008  0.00  0.00    -0.267 N 
ATOM     29  C   UNL     1      -1.412  -0.526   0.013  0.00  0.00    +0.230 C 
ATOM     30  O   UNL     1      -2.344   0.250   0.026  0.00  0.00    -0.274 OA
ENDBRANCH  18  29
ENDBRANCH  17  18
ENDBRANCH   1  17
TORSDOF 5
