REMARK  Name = ZINC36346015
REMARK  16 active torsions:
REMARK  status: ('A' for Active; 'I' for Inactive)
REMARK    1  A    between atoms: C_1  and  C_2
REMARK    2  A    between atoms: C_2  and  C_3
REMARK    3  A    between atoms: C_3  and  C_4
REMARK    4  A    between atoms: C_4  and  O_5
REMARK    5  A    between atoms: O_5  and  C_6
REMARK    6  A    between atoms: C_6  and  C_7
REMARK    7  A    between atoms: C_7  and  C_9
REMARK    8  A    between atoms: C_7  and  O_35
REMARK    9  A    between atoms: C_9  and  N_10
REMARK   10  A    between atoms: N_10  and  C_11
REMARK   11  A    between atoms: N_10  and  C_32
REMARK   12  A    between atoms: C_11  and  C_12
REMARK   13  A    between atoms: C_13  and  C_31
REMARK   14  A    between atoms: N_15  and  C_25
REMARK   15  A    between atoms: C_16  and  O_17
REMARK   16  A    between atoms: O_17  and  C_18
REMARK                            x       y       z     vdW  Elec       q    Type
REMARK                         _______ _______ _______ _____ _____    ______ ____
ROOT
ATOM      1  C   UNL     1       3.355  -7.958   6.942  0.00  0.00    +0.021 A 
ATOM      2  C   UNL     1       4.686  -8.084   7.352  0.00  0.00    +0.065 A 
ATOM      3  N   UNL     1       4.721  -8.054   8.660  0.00  0.00    -0.168 NA
ATOM      4  N   UNL     1       3.410  -7.907   9.134  0.00  0.00    -0.200 N 
ATOM      5  C   UNL     1       2.583  -7.845   8.056  0.00  0.00    +0.225 A 
ATOM      6  C   UNL     1       5.878  -8.230   6.442  0.00  0.00    +0.068 C 
ENDROOT
BRANCH   4   7
ATOM      7  C   UNL     1       3.022  -7.832  10.478  0.00  0.00    +0.069 A 
ATOM      8  C   UNL     1       2.043  -6.929  10.870  0.00  0.00    +0.028 A 
ATOM      9  C   UNL     1       1.662  -6.858  12.196  0.00  0.00    +0.002 A 
ATOM     10  C   UNL     1       2.255  -7.685  13.133  0.00  0.00    +0.000 A 
ATOM     11  C   UNL     1       3.230  -8.586  12.745  0.00  0.00    +0.002 A 
ATOM     12  C   UNL     1       3.611  -8.666  11.420  0.00  0.00    +0.028 A 
ENDBRANCH   4   7
BRANCH   1  13
ATOM     13  C   UNL     1       2.864  -7.944   5.517  0.00  0.00    -0.035 C 
BRANCH  13  14
ATOM     14  N   UNL     1       2.853  -6.562   5.017  0.00  0.00    +0.386 N 
ATOM     15  H   UNL     1       2.305  -5.985   5.637  0.00  0.00    -0.081 HD
BRANCH  14  16
ATOM     16  C   UNL     1       4.229  -6.051   4.959  0.00  0.00    -0.068 C 
ATOM     17  C   UNL     1       4.652  -5.040   6.025  0.00  0.00    -0.017 C 
ATOM     18  C   UNL     1       4.421  -4.580   4.584  0.00  0.00    -0.017 C 
ENDBRANCH  14  16
BRANCH  14  19
ATOM     19  C   UNL     1       2.262  -6.533   3.672  0.00  0.00    -0.044 C 
BRANCH  19  20
ATOM     20  C   UNL     1       0.784  -6.919   3.756  0.00  0.00    +0.124 C 
BRANCH  20  21
ATOM     21  O   UNL     1       0.095  -5.987   4.592  0.00  0.00    -0.391 OA
ATOM     22  H   UNL     1       0.135  -5.073   4.278  0.00  0.00    +0.210 HD
ENDBRANCH  20  21
BRANCH  20  23
ATOM     23  C   UNL     1       0.171  -6.896   2.354  0.00  0.00    +0.189 C 
BRANCH  23  24
ATOM     24  O   UNL     1      -1.177  -7.367   2.416  0.00  0.00    -0.377 OA
BRANCH  24  25
ATOM     25  C   UNL     1      -1.845  -7.386   1.153  0.00  0.00    +0.160 C 
BRANCH  25  26
ATOM     26  C   UNL     1      -3.272  -7.905   1.338  0.00  0.00    +0.028 C 
BRANCH  26  28
ATOM     27  C   UNL     1      -5.414  -8.445   0.171  0.00  0.00    +0.004 C 
ATOM     28  C   UNL     1      -3.987  -7.926  -0.015  0.00  0.00    -0.001 C 
ENDBRANCH  26  28
ENDBRANCH  25  26
ENDBRANCH  24  25
ENDBRANCH  23  24
ENDBRANCH  20  23
ENDBRANCH  19  20
ENDBRANCH  14  19
ENDBRANCH  13  14
ENDBRANCH   1  13
BRANCH   5  29
ATOM     29  O   UNL     1       1.234  -7.699   8.086  0.00  0.00    -0.435 OA
BRANCH  29  30
ATOM     30  C   UNL     1       0.473  -8.821   8.177  0.00  0.00    +0.165 A 
ATOM     31  C   UNL     1       1.077 -10.059   8.338  0.00  0.00    +0.049 A 
ATOM     32  C   UNL     1       0.301 -11.199   8.431  0.00  0.00    +0.004 A 
ATOM     33  C   UNL     1      -1.077 -11.107   8.363  0.00  0.00    +0.003 A 
ATOM     34  C   UNL     1      -1.683  -9.875   8.202  0.00  0.00    +0.042 A 
ATOM     35  C   UNL     1      -0.912  -8.730   8.114  0.00  0.00    +0.165 A 
ATOM     36  F   UNL     1      -1.504  -7.525   7.962  0.00  0.00    -0.202 F 
ENDBRANCH  29  30
ENDBRANCH   5  29
TORSDOF 14
