REMARK  Name = ZINC24863947
REMARK  10 active torsions:
REMARK  status: ('A' for Active; 'I' for Inactive)
REMARK    1  A    between atoms: C_1  and  C_2
REMARK    2  A    between atoms: C_6  and  N_9
REMARK    3  A    between atoms: C_7  and  C_8
REMARK    4  A    between atoms: C_10  and  C_12
REMARK    5  A    between atoms: C_12  and  N_13
REMARK    6  A    between atoms: N_13  and  C_14
REMARK    7  A    between atoms: C_15  and  C_17
REMARK    8  A    between atoms: C_17  and  S_18
REMARK    9  A    between atoms: S_18  and  C_19
REMARK   10  A    between atoms: N_23  and  C_24
REMARK                            x       y       z     vdW  Elec       q    Type
REMARK                         _______ _______ _______ _____ _____    ______ ____
ROOT
ATOM      1  N   UNL     1       4.999  -4.832  -4.601  0.00  0.00    -0.295 N 
ATOM      2  C   UNL     1       4.647  -6.187  -4.169  0.00  0.00    +0.132 C 
ATOM      3  C   UNL     1       4.479  -3.765  -3.964  0.00  0.00    +0.226 C 
ATOM      4  O   UNL     1       4.770  -2.643  -4.322  0.00  0.00    -0.275 OA
ENDROOT
BRANCH   1   5
ATOM      5  C   UNL     1       5.915  -4.638  -5.728  0.00  0.00    +0.203 C 
BRANCH   5   7
ATOM      6  N   UNL     1       8.351  -4.394  -6.081  0.00  0.00    -0.284 N 
ATOM      7  C   UNL     1       7.331  -4.570  -5.217  0.00  0.00    +0.235 C 
ATOM      8  O   UNL     1       7.553  -4.674  -4.030  0.00  0.00    -0.274 OA
ATOM      9  H   UNL     1       8.160  -4.391  -7.164  0.00  0.00    +0.155 HD
BRANCH   6  15
ATOM     10  C   UNL     1      13.206  -4.718  -6.786  0.00  0.00    +0.044 C 
ATOM     11  C   UNL     1      12.024  -4.365  -5.920  0.00  0.00    -0.046 A 
ATOM     12  C   UNL     1      12.226  -3.863  -4.647  0.00  0.00    +0.004 A 
ATOM     13  C   UNL     1      11.145  -3.537  -3.849  0.00  0.00    +0.002 A 
ATOM     14  C   UNL     1       9.859  -3.712  -4.322  0.00  0.00    +0.023 A 
ATOM     15  C   UNL     1       9.653  -4.216  -5.599  0.00  0.00    +0.037 A 
ATOM     16  C   UNL     1      10.741  -4.547  -6.396  0.00  0.00    -0.026 A 
ATOM     17  C   UNL     1      10.522  -5.101  -7.780  0.00  0.00    +0.046 C 
ENDBRANCH   6  15
ENDBRANCH   5   7
ENDBRANCH   1   5
BRANCH   3  18
ATOM     18  C   UNL     1       3.536  -3.965  -2.805  0.00  0.00    +0.173 C 
BRANCH  18  19
ATOM     19  S   UNL     1       3.015  -2.353  -2.166  0.00  0.00    -0.076 S 
BRANCH  19  20
ATOM     20  C   UNL     1       1.952  -2.872  -0.859  0.00  0.00    +0.196 A 
ATOM     21  N   UNL     1       1.680  -4.110  -0.519  0.00  0.00    -0.122 NA
ATOM     22  N   UNL     1       0.864  -4.122   0.474  0.00  0.00    -0.137 NA
ATOM     23  C   UNL     1       0.572  -2.902   0.829  0.00  0.00    +0.230 A 
ATOM     24  N   UNL     1       1.257  -2.060  -0.005  0.00  0.00    -0.277 N 
BRANCH  24  25
ATOM     25  C   UNL     1       1.244  -0.658   0.009  0.00  0.00    +0.051 A 
ATOM     26  C   UNL     1       2.440   0.049   0.003  0.00  0.00    +0.026 A 
ATOM     27  C   UNL     1       2.425   1.430   0.017  0.00  0.00    +0.003 A 
ATOM     28  C   UNL     1       1.221   2.110   0.036  0.00  0.00    +0.020 A 
ATOM     29  C   UNL     1       0.028   1.409   0.042  0.00  0.00    +0.043 A 
ATOM     30  C   UNL     1       0.037   0.026   0.028  0.00  0.00    +0.046 A 
ATOM     31 CL   UNL     1      -1.482   2.266   0.058  0.00  0.00    -0.083 Cl
ENDBRANCH  24  25
ENDBRANCH  19  20
ENDBRANCH  18  19
ENDBRANCH   3  18
TORSDOF 7
