REMARK  Name = ZINC39673890
REMARK  9 active torsions:
REMARK  status: ('A' for Active; 'I' for Inactive)
REMARK    1  A    between atoms: C_1  and  C_2
REMARK    2  A    between atoms: C_2  and  C_3
REMARK    3  A    between atoms: C_3  and  C_4
REMARK    4  A    between atoms: C_4  and  C_6
REMARK    5  A    between atoms: C_4  and  N_7
REMARK    6  A    between atoms: C_8  and  C_10
REMARK    7  A    between atoms: C_21  and  C_23
REMARK    8  A    between atoms: C_23  and  C_24
REMARK    9  A    between atoms: C_29  and  C_30
REMARK                            x       y       z     vdW  Elec       q    Type
REMARK                         _______ _______ _______ _____ _____    ______ ____
ROOT
ATOM      1  C   UNL     1       0.343  -4.238  -2.611  0.00  0.00    +0.100 C 
ATOM      2  C   UNL     1      -0.770  -4.497  -3.651  0.00  0.00    +0.121 C 
ATOM      3  N   UNL     1      -0.323  -5.704  -4.385  0.00  0.00    -0.300 N 
ATOM      4  C   UNL     1       0.267  -6.575  -3.340  0.00  0.00    +0.115 C 
ATOM      5  C   UNL     1       1.021  -5.604  -2.410  0.00  0.00    -0.004 C 
ATOM      6  C   UNL     1       0.884  -6.052  -0.958  0.00  0.00    -0.010 C 
ATOM      7  C   UNL     1       1.616  -7.384  -0.768  0.00  0.00    -0.082 C 
ATOM      8  N   UNL     1       3.032  -7.221  -1.120  0.00  0.00    +0.379 N 
ATOM      9  C   UNL     1       3.158  -6.881  -2.542  0.00  0.00    -0.082 C 
ATOM     10  C   UNL     1       2.492  -5.528  -2.807  0.00  0.00    -0.010 C 
ATOM     11  C   UNL     1      -0.429  -5.954  -5.705  0.00  0.00    +0.220 C 
ATOM     12  O   UNL     1      -0.012  -6.998  -6.160  0.00  0.00    -0.275 OA
ATOM     13  H   UNL     1       3.433  -6.482  -0.562  0.00  0.00    -0.086 HD
ATOM     14  H   UNL     1       3.524  -8.083  -0.937  0.00  0.00    -0.086 HD
ENDROOT
BRANCH   1  16
ATOM     15  N   UNL     1       0.460  -2.935  -0.512  0.00  0.00    -0.312 N 
ATOM     16  C   UNL     1      -0.252  -3.751  -1.315  0.00  0.00    +0.218 C 
ATOM     17  O   UNL     1      -1.370  -4.093  -0.995  0.00  0.00    -0.275 OA
ATOM     18  H   UNL     1       1.354  -2.662  -0.768  0.00  0.00    +0.149 HD
BRANCH  15  19
ATOM     19  C   UNL     1      -0.119  -2.462   0.748  0.00  0.00    +0.070 C 
ATOM     20  C   UNL     1      -0.969  -1.218   0.483  0.00  0.00    +0.028 C 
BRANCH  19  21
ATOM     21  C   UNL     1       1.005  -2.112   1.726  0.00  0.00    +0.022 C 
BRANCH  21  23
ATOM     22  C   UNL     1       2.903  -3.032   3.065  0.00  0.00    +0.004 C 
ATOM     23  C   UNL     1       1.779  -3.381   2.087  0.00  0.00    -0.002 C 
ENDBRANCH  21  23
ENDBRANCH  19  21
ENDBRANCH  15  19
ENDBRANCH   1  16
BRANCH  11  24
ATOM     24  C   UNL     1      -1.065  -4.936  -6.617  0.00  0.00    +0.131 C 
BRANCH  24  25
ATOM     25  C   UNL     1      -1.059  -5.455  -8.031  0.00  0.00    -0.036 A 
ATOM     26  C   UNL     1      -0.035  -5.106  -8.892  0.00  0.00    +0.004 A 
ATOM     27  C   UNL     1      -0.030  -5.582 -10.189  0.00  0.00    +0.000 A 
ATOM     28  C   UNL     1      -1.049  -6.408 -10.627  0.00  0.00    +0.000 A 
ATOM     29  C   UNL     1      -2.072  -6.757  -9.766  0.00  0.00    +0.003 A 
ATOM     30  C   UNL     1      -2.075  -6.285  -8.467  0.00  0.00    -0.047 A 
ATOM     31  C   UNL     1      -3.189  -6.670  -7.528  0.00  0.00    +0.044 C 
ENDBRANCH  24  25
ENDBRANCH  11  24
TORSDOF 6
