REMARK  Name = ZINC15860515
REMARK  9 active torsions:
REMARK  status: ('A' for Active; 'I' for Inactive)
REMARK    1  A    between atoms: C_1  and  C_2
REMARK    2  A    between atoms: C_5  and  C_7
REMARK    3  A    between atoms: C_7  and  C_9
REMARK    4  A    between atoms: C_7  and  N_61
REMARK    5  A    between atoms: C_9  and  N_10
REMARK    6  A    between atoms: C_11  and  C_13
REMARK    7  A    between atoms: C_19  and  C_25
REMARK    8  A    between atoms: C_21  and  C_24
REMARK    9  A    between atoms: C_28  and  C_31
REMARK                            x       y       z     vdW  Elec       q    Type
REMARK                         _______ _______ _______ _____ _____    ______ ____
ROOT
ATOM      1  N   UNL     1       0.563   3.713   1.328  0.00  0.00    -0.310 N 
ATOM      2  C   UNL     1      -0.692   3.284   1.565  0.00  0.00    +0.279 C 
ATOM      3  O   UNL     1      -1.349   2.800   0.665  0.00  0.00    -0.267 OA
ATOM      4  H   UNL     1       1.089   4.095   2.048  0.00  0.00    +0.149 HD
ENDROOT
BRANCH   2   5
ATOM      5  C   UNL     1      -1.270   3.396   2.926  0.00  0.00    +0.193 A 
ATOM      6  C   UNL     1      -2.535   2.961   3.133  0.00  0.00    +0.103 A 
ATOM      7  C   UNL     1      -3.108   3.068   4.484  0.00  0.00    +0.193 A 
ATOM      8  O   UNL     1      -4.239   2.688   4.729  0.00  0.00    -0.287 OA
ATOM      9  C   UNL     1      -2.248   3.660   5.526  0.00  0.00    +0.064 A 
ATOM     10  C   UNL     1      -2.697   3.811   6.838  0.00  0.00    +0.018 A 
ATOM     11  C   UNL     1      -1.871   4.365   7.776  0.00  0.00    -0.049 A 
ATOM     12  C   UNL     1      -0.592   4.776   7.431  0.00  0.00    +0.010 A 
ATOM     13  C   UNL     1      -0.131   4.635   6.140  0.00  0.00    -0.007 A 
ATOM     14  C   UNL     1      -0.954   4.074   5.168  0.00  0.00    +0.142 A 
ATOM     15  O   UNL     1      -0.520   3.929   3.902  0.00  0.00    -0.450 OA
ATOM     16  C   UNL     1       1.262   5.087   5.782  0.00  0.00    +0.047 C 
ATOM     17  C   UNL     1      -2.354   4.531   9.194  0.00  0.00    +0.044 C 
ENDBRANCH   2   5
BRANCH   1  18
ATOM     18  C   UNL     1       1.134   3.602  -0.017  0.00  0.00    +0.097 C 
BRANCH  18  19
ATOM     19  C   UNL     1       2.509   4.271  -0.044  0.00  0.00    +0.016 C 
BRANCH  19  26
ATOM     20  C   UNL     1       3.413   2.237   0.910  0.00  0.00    -0.078 C 
ATOM     21  C   UNL     1       4.176   1.669   2.108  0.00  0.00    -0.015 C 
ATOM     22  C   UNL     1       5.589   2.257   2.133  0.00  0.00    -0.018 C 
ATOM     23  C   UNL     1       5.497   3.784   2.195  0.00  0.00    -0.015 C 
ATOM     24  C   UNL     1       4.697   4.291   0.994  0.00  0.00    -0.078 C 
ATOM     25  C   UNL     1       6.337   1.739   3.364  0.00  0.00    +0.007 C 
ATOM     26  N   UNL     1       3.339   3.708   1.042  0.00  0.00    +0.387 N 
ATOM     27  H   UNL     1       2.908   3.940   1.945  0.00  0.00    -0.081 HD
ENDBRANCH  19  26
BRANCH  19  32
ATOM     28  C   UNL     1       1.871   8.700   2.282  0.00  0.00    +0.086 C 
ATOM     29  C   UNL     1       2.075   7.679   1.194  0.00  0.00    +0.102 A 
ATOM     30  C   UNL     1       2.184   7.941  -0.121  0.00  0.00    +0.044 A 
ATOM     31  C   UNL     1       2.363   6.699  -0.773  0.00  0.00    +0.043 A 
ATOM     32  C   UNL     1       2.352   5.752   0.182  0.00  0.00    +0.093 A 
ATOM     33  O   UNL     1       2.171   6.351   1.371  0.00  0.00    -0.466 OA
ENDBRANCH  19  32
ENDBRANCH  18  19
ENDBRANCH   1  18
TORSDOF 5
