REMARK  Name = ZINC52345125
REMARK  6 active torsions:
REMARK  status: ('A' for Active; 'I' for Inactive)
REMARK    1  A    between atoms: C_1  and  C_2
REMARK    2  A    between atoms: C_2  and  C_3
REMARK    3  A    between atoms: C_3  and  C_5
REMARK    4  A    between atoms: C_3  and  N_11
REMARK    5  A    between atoms: C_12  and  C_14
REMARK    6  A    between atoms: N_20  and  N_21
REMARK                            x       y       z     vdW  Elec       q    Type
REMARK                         _______ _______ _______ _____ _____    ______ ____
ROOT
ATOM      1  N   UNL     1      -0.055  -0.114  -2.441  0.00  0.00    -0.308 N 
ATOM      2  C   UNL     1       0.107   1.109  -2.984  0.00  0.00    +0.246 C 
ATOM      3  O   UNL     1       0.895   1.893  -2.492  0.00  0.00    -0.270 OA
ATOM      4  H   UNL     1      -0.683  -0.740  -2.833  0.00  0.00    +0.149 HD
ENDROOT
BRANCH   2   5
ATOM      5  C   UNL     1      -0.672   1.495  -4.176  0.00  0.00    +0.056 A 
ATOM      6  C   UNL     1      -0.506   2.764  -4.754  0.00  0.00    +0.038 A 
ATOM      7  C   UNL     1      -1.250   3.079  -5.860  0.00  0.00    +0.083 A 
ATOM      8  C   UNL     1      -2.142   2.139  -6.376  0.00  0.00    +0.151 A 
ATOM      9  N   UNL     1      -2.278   0.948  -5.810  0.00  0.00    -0.237 NA
ATOM     10  C   UNL     1      -1.578   0.603  -4.749  0.00  0.00    +0.126 A 
ATOM     11  N   UNL     1      -2.895   2.454  -7.494  0.00  0.00    -0.266 N 
ATOM     12 CL   UNL     1      -1.084   4.635  -6.612  0.00  0.00    -0.080 Cl
ATOM     13  H   UNL     1      -2.801   3.324  -7.913  0.00  0.00    +0.167 HD
BRANCH  11  14
ATOM     14  N   UNL     1      -3.772   1.540  -8.007  0.00  0.00    -0.255 NA
ATOM     15  H   UNL     1      -4.432   1.240  -7.306  0.00  0.00    +0.140 HD
ATOM     16  H   UNL     1      -4.247   1.910  -8.817  0.00  0.00    +0.140 HD
ENDBRANCH  11  14
ENDBRANCH   2   5
BRANCH   1  17
ATOM     17  C   UNL     1       0.718  -0.497  -1.257  0.00  0.00    +0.076 C 
BRANCH  17  18
ATOM     18  C   UNL     1       0.849  -2.021  -1.205  0.00  0.00    +0.009 C 
ATOM     19  C   UNL     1       1.657  -2.422   0.031  0.00  0.00    +0.005 C 
ATOM     20  C   UNL     1       1.788  -3.945   0.083  0.00  0.00    +0.000 C 
ATOM     21  C   UNL     1       2.504  -4.439  -1.176  0.00  0.00    +0.000 C 
ATOM     22  C   UNL     1       1.696  -4.038  -2.412  0.00  0.00    +0.000 C 
ATOM     23  C   UNL     1       1.565  -2.514  -2.464  0.00  0.00    +0.005 C 
ENDBRANCH  17  18
BRANCH  17  25
ATOM     24  C   UNL     1      -0.019   1.526   0.010  0.00  0.00    +0.006 C 
ATOM     25  C   UNL     1       0.002  -0.004   0.002  0.00  0.00    +0.019 C 
ENDBRANCH  17  25
ENDBRANCH   1  17
TORSDOF 5
