REMARK  Name = ZINC12191088
REMARK  12 active torsions:
REMARK  status: ('A' for Active; 'I' for Inactive)
REMARK    1  A    between atoms: C_1  and  C_2
REMARK    2  A    between atoms: C_4  and  C_35
REMARK    3  A    between atoms: C_6  and  C_8
REMARK    4  A    between atoms: C_13  and  C_16
REMARK    5  A    between atoms: C_16  and  C_27
REMARK    6  A    between atoms: N_19  and  C_23
REMARK    7  A    between atoms: C_23  and  C_24
REMARK    8  A    between atoms: C_24  and  N_74
REMARK    9  A    between atoms: C_25  and  N_74
REMARK   10  A    between atoms: C_26  and  N_74
REMARK   11  A    between atoms: C_27  and  C_28
REMARK   12  A    between atoms: C_28  and  C_29
REMARK                            x       y       z     vdW  Elec       q    Type
REMARK                         _______ _______ _______ _____ _____    ______ ____
ROOT
ATOM      1  C   UNL     1       2.889  -1.406   1.572  0.00  0.00    +0.116 C 
ATOM      2  C   UNL     1       3.607  -2.215   2.634  0.00  0.00    +0.247 C 
ATOM      3  O   UNL     1       4.755  -2.086   3.002  0.00  0.00    -0.273 OA
ATOM      4  N   UNL     1       2.703  -3.108   3.084  0.00  0.00    -0.226 N 
ATOM      5  C   UNL     1       1.526  -2.977   2.461  0.00  0.00    +0.309 C 
ATOM      6  O   UNL     1       0.556  -3.670   2.696  0.00  0.00    -0.252 OA
ATOM      7  N   UNL     1       1.538  -1.992   1.545  0.00  0.00    -0.285 N 
ATOM      8  H   UNL     1       0.800  -1.723   0.974  0.00  0.00    +0.151 HD
ENDROOT
BRANCH   1  14
ATOM      9  C   UNL     1       4.126   2.985   4.557  0.00  0.00    +0.247 C 
ATOM     10  O   UNL     1       3.558   3.147   5.619  0.00  0.00    -0.270 OA
ATOM     11  N   UNL     1       3.520   2.299   3.567  0.00  0.00    -0.298 N 
ATOM     12  C   UNL     1       2.210   1.672   3.784  0.00  0.00    +0.108 C 
ATOM     13  C   UNL     1       2.302   0.191   3.402  0.00  0.00    +0.025 C 
ATOM     14  C   UNL     1       2.827   0.070   1.970  0.00  0.00    +0.024 C 
ATOM     15  C   UNL     1       4.229   0.680   1.885  0.00  0.00    +0.025 C 
ATOM     16  C   UNL     1       4.158   2.166   2.250  0.00  0.00    +0.108 C 
BRANCH   9  22
ATOM     17  C   UNL     1       7.323   5.668   1.822  0.00  0.00    +0.044 C 
ATOM     18  C   UNL     1       7.024   4.829   3.038  0.00  0.00    -0.049 A 
ATOM     19  C   UNL     1       8.020   4.575   3.964  0.00  0.00    +0.006 A 
ATOM     20  C   UNL     1       7.753   3.805   5.082  0.00  0.00    -0.049 A 
ATOM     21  C   UNL     1       6.490   3.286   5.281  0.00  0.00    +0.016 A 
ATOM     22  C   UNL     1       5.481   3.539   4.351  0.00  0.00    +0.037 A 
ATOM     23  C   UNL     1       5.758   4.311   3.222  0.00  0.00    +0.016 A 
ATOM     24  C   UNL     1       8.844   3.534   6.086  0.00  0.00    +0.044 C 
ENDBRANCH   9  22
ENDBRANCH   1  14
BRANCH   4  25
ATOM     25  C   UNL     1       2.976  -4.100   4.127  0.00  0.00    +0.099 C 
BRANCH  25  26
ATOM     26  C   UNL     1       3.499  -5.386   3.484  0.00  0.00    -0.060 C 
BRANCH  26  29
ATOM     27  C   UNL     1       2.531  -6.802   5.193  0.00  0.00    -0.097 C 
ATOM     28  C   UNL     1       4.494  -7.536   3.981  0.00  0.00    -0.097 C 
ATOM     29  N   UNL     1       3.789  -6.368   4.549  0.00  0.00    +0.377 N 
ATOM     30  H   UNL     1       4.390  -5.927   5.255  0.00  0.00    -0.083 HD
ENDBRANCH  26  29
ENDBRANCH  25  26
ENDBRANCH   4  25
BRANCH   1  31
ATOM     31  C   UNL     1       3.575  -1.571   0.214  0.00  0.00    +0.040 C 
BRANCH  31  32
ATOM     32  C   UNL     1       3.559  -3.047  -0.189  0.00  0.00    +0.038 C 
BRANCH  32  33
ATOM     33  C   UNL     1       4.235  -3.210  -1.526  0.00  0.00    -0.047 A 
ATOM     34  C   UNL     1       3.493  -3.129  -2.689  0.00  0.00    +0.003 A 
ATOM     35  C   UNL     1       4.114  -3.273  -3.916  0.00  0.00    +0.000 A 
ATOM     36  C   UNL     1       5.474  -3.509  -3.979  0.00  0.00    +0.000 A 
ATOM     37  C   UNL     1       6.215  -3.595  -2.815  0.00  0.00    +0.000 A 
ATOM     38  C   UNL     1       5.596  -3.445  -1.588  0.00  0.00    +0.003 A 
ENDBRANCH  32  33
ENDBRANCH  31  32
ENDBRANCH   1  31
TORSDOF 8
