REMARK  Name = ZINC63098945
REMARK  7 active torsions:
REMARK  status: ('A' for Active; 'I' for Inactive)
REMARK    1  A    between atoms: C_1  and  C_2
REMARK    2  A    between atoms: C_2  and  C_3
REMARK    3  A    between atoms: C_3  and  C_29
REMARK    4  A    between atoms: N_6  and  N_10
REMARK    5  A    between atoms: C_11  and  C_13
REMARK    6  A    between atoms: C_13  and  N_14
REMARK    7  A    between atoms: C_17  and  C_20
REMARK                            x       y       z     vdW  Elec       q    Type
REMARK                         _______ _______ _______ _____ _____    ______ ____
ROOT
ATOM      1  N   UNL     1       4.373  -5.766  -3.688  0.00  0.00    +0.385 N 
ATOM      2  C   UNL     1       3.255  -5.827  -4.636  0.00  0.00    -0.078 C 
ATOM      3  C   UNL     1       3.789  -6.084  -6.046  0.00  0.00    -0.011 C 
ATOM      4  C   UNL     1       4.548  -7.414  -6.063  0.00  0.00    +0.014 C 
ATOM      5  C   UNL     1       5.666  -7.366  -5.018  0.00  0.00    -0.011 C 
ATOM      6  C   UNL     1       5.062  -7.061  -3.646  0.00  0.00    -0.078 C 
ATOM      7  H   UNL     1       5.022  -5.051  -3.982  0.00  0.00    -0.081 HD
ENDROOT
BRANCH   4   8
ATOM      8  C   UNL     1       5.144  -7.637  -7.429  0.00  0.00    -0.039 C 
ATOM      9  C   UNL     1       4.889  -8.665  -8.270  0.00  0.00    -0.001 A 
ATOM     10  C   UNL     1       4.016  -9.840  -8.168  0.00  0.00    +0.010 A 
ATOM     11  C   UNL     1       3.972 -10.717  -9.197  0.00  0.00    +0.001 A 
ATOM     12  C   UNL     1       4.738 -10.531 -10.356  0.00  0.00    +0.002 A 
ATOM     13  C   UNL     1       5.564  -9.477 -10.524  0.00  0.00    +0.026 A 
ATOM     14  C   UNL     1       5.688  -8.492  -9.505  0.00  0.00    +0.043 A 
ATOM     15  N   UNL     1       6.408  -7.399  -9.430  0.00  0.00    -0.380 N 
ATOM     16  C   UNL     1       6.143  -6.752  -8.141  0.00  0.00    +0.145 C 
ATOM     17  H   UNL     1       7.012  -7.072 -10.115  0.00  0.00    +0.160 HD
ENDBRANCH   4   8
BRANCH   1  18
ATOM     18  C   UNL     1       3.862  -5.441  -2.349  0.00  0.00    +0.020 C 
BRANCH  18  20
ATOM     19  N   UNL     1       2.729  -3.545  -1.236  0.00  0.00    -0.225 N 
ATOM     20  C   UNL     1       3.264  -4.058  -2.362  0.00  0.00    +0.213 C 
ATOM     21  O   UNL     1       3.263  -3.407  -3.385  0.00  0.00    -0.276 OA
ATOM     22  H   UNL     1       2.730  -4.066  -0.418  0.00  0.00    +0.173 HD
BRANCH  19  26
ATOM     23  C   UNL     1       0.718  -0.497  -1.257  0.00  0.00    +0.111 C 
ATOM     24  C   UNL     1       0.848  -2.008  -1.239  0.00  0.00    +0.263 C 
ATOM     25  O   UNL     1      -0.051  -2.820  -1.221  0.00  0.00    -0.271 OA
ATOM     26  N   UNL     1       2.172  -2.259  -1.248  0.00  0.00    -0.137 N 
ATOM     27  C   UNL     1       2.889  -1.130  -1.269  0.00  0.00    +0.326 C 
ATOM     28  O   UNL     1       4.104  -1.101  -1.280  0.00  0.00    -0.251 OA
ATOM     29  N   UNL     1       2.115  -0.030  -1.275  0.00  0.00    -0.284 N 
ATOM     30  C   UNL     1      -0.022  -0.032  -2.513  0.00  0.00    +0.041 C 
ATOM     31  H   UNL     1       2.418   0.892  -1.290  0.00  0.00    +0.151 HD
BRANCH  23  33
ATOM     32  C   UNL     1      -0.019   1.526   0.010  0.00  0.00    +0.006 C 
ATOM     33  C   UNL     1       0.002  -0.004   0.002  0.00  0.00    +0.032 C 
ENDBRANCH  23  33
ENDBRANCH  19  26
ENDBRANCH  18  20
ENDBRANCH   1  18
TORSDOF 5
