REMARK  Name = ZINC58847319
REMARK  8 active torsions:
REMARK  status: ('A' for Active; 'I' for Inactive)
REMARK    1  A    between atoms: C_1  and  C_2
REMARK    2  A    between atoms: C_2  and  C_3
REMARK    3  A    between atoms: C_2  and  O_4
REMARK    4  A    between atoms: O_4  and  C_5
REMARK    5  A    between atoms: C_8  and  C_11
REMARK    6  A    between atoms: C_22  and  S_27
REMARK    7  A    between atoms: S_27  and  N_30
REMARK    8  A    between atoms: N_30  and  C_31
REMARK                            x       y       z     vdW  Elec       q    Type
REMARK                         _______ _______ _______ _____ _____    ______ ____
ROOT
ATOM      1  C   UNL     1      -1.811  -6.142  -1.381  0.00  0.00    +0.105 C 
ATOM      2  C   UNL     1      -2.086  -5.900  -2.835  0.00  0.00    +0.029 C 
ATOM      3  C   UNL     1      -2.968  -4.656  -3.065  0.00  0.00    +0.033 C 
ATOM      4  C   UNL     1      -3.687  -4.959  -4.363  0.00  0.00    -0.030 C 
ATOM      5  C   UNL     1      -3.633  -6.235  -4.640  0.00  0.00    -0.023 C 
ATOM      6  C   UNL     1      -2.897  -6.976  -3.552  0.00  0.00    +0.049 C 
ATOM      7  C   UNL     1      -3.917  -7.635  -2.666  0.00  0.00    -0.018 A 
ATOM      8  C   UNL     1      -4.911  -8.398  -3.262  0.00  0.00    +0.034 A 
ATOM      9  C   UNL     1      -5.877  -9.014  -2.492  0.00  0.00    +0.109 A 
ATOM     10  C   UNL     1      -5.862  -8.873  -1.116  0.00  0.00    +0.030 A 
ATOM     11  C   UNL     1      -4.876  -8.118  -0.515  0.00  0.00    +0.025 A 
ATOM     12  C   UNL     1      -3.897  -7.502  -1.290  0.00  0.00    +0.031 A 
ATOM     13  N   UNL     1      -2.891  -6.790  -0.666  0.00  0.00    -0.336 N 
ATOM     14  H   UNL     1      -2.928  -6.701   0.299  0.00  0.00    +0.147 HD
ENDROOT
BRANCH   1  18
ATOM     15  C   UNL     1      -1.015  -2.383   0.489  0.00  0.00    +0.121 A 
ATOM     16  C   UNL     1       0.035  -3.193   0.083  0.00  0.00    +0.046 A 
ATOM     17  C   UNL     1      -0.225  -4.408  -0.520  0.00  0.00    +0.009 A 
ATOM     18  C   UNL     1      -1.530  -4.816  -0.721  0.00  0.00    -0.027 A 
ATOM     19  C   UNL     1      -2.579  -4.010  -0.318  0.00  0.00    +0.009 A 
ATOM     20  C   UNL     1      -2.325  -2.797   0.292  0.00  0.00    +0.046 A 
BRANCH  15  21
ATOM     21  O   UNL     1      -0.762  -1.187   1.084  0.00  0.00    -0.489 OA
BRANCH  21  23
ATOM     22  C   UNL     1      -1.467   0.328   2.830  0.00  0.00    +0.051 C 
ATOM     23  C   UNL     1      -1.886  -0.463   1.589  0.00  0.00    +0.167 C 
ATOM     24  C   UNL     1      -2.394   0.502   0.516  0.00  0.00    +0.051 C 
ENDBRANCH  21  23
ENDBRANCH  15  21
ENDBRANCH   1  18
BRANCH   9  25
ATOM     25  S   UNL     1      -7.132  -9.981  -3.264  0.00  0.00    +0.072 S 
ATOM     26  O   UNL     1      -8.235 -10.004  -2.368  0.00  0.00    -0.150 OA
ATOM     27  O   UNL     1      -7.244  -9.510  -4.599  0.00  0.00    -0.150 OA
BRANCH  25  28
ATOM     28  N   UNL     1      -6.565 -11.534  -3.356  0.00  0.00    -0.215 N 
ATOM     29  H   UNL     1      -6.468 -11.965  -4.220  0.00  0.00    +0.174 HD
BRANCH  28  30
ATOM     30  C   UNL     1      -6.227 -12.226  -2.189  0.00  0.00    +0.066 A 
ATOM     31  C   UNL     1      -6.966 -12.035  -1.029  0.00  0.00    +0.026 A 
ATOM     32  C   UNL     1      -6.629 -12.720   0.123  0.00  0.00    +0.002 A 
ATOM     33  C   UNL     1      -5.558 -13.595   0.121  0.00  0.00    +0.002 A 
ATOM     34  C   UNL     1      -4.820 -13.787  -1.032  0.00  0.00    +0.022 A 
ATOM     35  C   UNL     1      -5.154 -13.109  -2.189  0.00  0.00    +0.063 A 
ATOM     36 CL   UNL     1      -4.231 -13.356  -3.639  0.00  0.00    -0.082 Cl
ENDBRANCH  28  30
ENDBRANCH  25  28
ENDBRANCH   9  25
TORSDOF 6
