REMARK  Name = ZINC11840861
REMARK  13 active torsions:
REMARK  status: ('A' for Active; 'I' for Inactive)
REMARK    1  A    between atoms: C_1  and  N_2
REMARK    2  A    between atoms: C_5  and  C_7
REMARK    3  A    between atoms: N_9  and  C_10
REMARK    4  A    between atoms: N_9  and  C_11
REMARK    5  A    between atoms: C_11  and  C_13
REMARK    6  A    between atoms: C_11  and  C_20
REMARK    7  A    between atoms: C_13  and  C_14
REMARK    8  A    between atoms: C_25  and  C_26
REMARK    9  A    between atoms: C_25  and  N_72
REMARK   10  A    between atoms: C_27  and  C_28
REMARK   11  A    between atoms: C_31  and  O_36
REMARK   12  A    between atoms: C_32  and  O_34
REMARK   13  A    between atoms: O_34  and  C_35
REMARK                            x       y       z     vdW  Elec       q    Type
REMARK                         _______ _______ _______ _____ _____    ______ ____
ROOT
ATOM      1  C   UNL     1      -0.923   2.842   3.792  0.00  0.00    +0.006 C 
ATOM      2  C   UNL     1      -0.962   1.321   3.618  0.00  0.00    -0.013 C 
ATOM      3  C   UNL     1      -0.137   0.933   2.389  0.00  0.00    -0.078 C 
ATOM      4  C   UNL     1      -0.618   3.055   1.324  0.00  0.00    -0.078 C 
ATOM      5  C   UNL     1      -1.457   3.507   2.521  0.00  0.00    -0.013 C 
ATOM      6  N   UNL     1      -0.716   1.586   1.196  0.00  0.00    +0.382 N 
ATOM      7  H   UNL     1      -1.706   1.324   1.121  0.00  0.00    -0.081 HD
ENDROOT
BRANCH   1   8
ATOM      8  C   UNL     1      -1.796   3.242   4.984  0.00  0.00    +0.083 C 
BRANCH   8  11
ATOM      9  C   UNL     1      -2.797   5.450   5.223  0.00  0.00    +0.267 C 
ATOM     10  O   UNL     1      -3.877   4.961   4.956  0.00  0.00    -0.268 OA
ATOM     11  N   UNL     1      -1.687   4.686   5.206  0.00  0.00    -0.296 N 
ATOM     12  C   UNL     1      -0.372   5.299   5.408  0.00  0.00    +0.132 C 
BRANCH   9  17
ATOM     13  C   UNL     1      -0.890   9.829   6.360  0.00  0.00    +0.172 C 
ATOM     14  N   UNL     1      -1.877   8.788   6.063  0.00  0.00    -0.274 N 
ATOM     15  C   UNL     1      -3.214   8.975   6.039  0.00  0.00    +0.109 A 
ATOM     16  C   UNL     1      -3.779   7.787   5.721  0.00  0.00    +0.054 A 
ATOM     17  C   UNL     1      -2.701   6.884   5.569  0.00  0.00    +0.147 A 
ATOM     18  N   UNL     1      -1.594   7.565   5.787  0.00  0.00    -0.167 NA
ENDBRANCH   9  17
ENDBRANCH   8  11
BRANCH   8  19
ATOM     19  C   UNL     1      -1.325   2.497   6.234  0.00  0.00    +0.058 C 
BRANCH  19  20
ATOM     20  C   UNL     1      -2.259   2.796   7.379  0.00  0.00    -0.046 A 
ATOM     21  C   UNL     1      -2.008   3.869   8.213  0.00  0.00    +0.004 A 
ATOM     22  C   UNL     1      -2.867   4.146   9.259  0.00  0.00    +0.000 A 
ATOM     23  C   UNL     1      -3.971   3.344   9.479  0.00  0.00    +0.000 A 
ATOM     24  C   UNL     1      -4.219   2.267   8.648  0.00  0.00    +0.000 A 
ATOM     25  C   UNL     1      -3.362   1.993   7.598  0.00  0.00    +0.004 A 
ENDBRANCH  19  20
ENDBRANCH   8  19
ENDBRANCH   1   8
BRANCH   6  26
ATOM     26  C   UNL     1      -0.007   1.137  -0.020  0.00  0.00    -0.051 C 
BRANCH  26  27
ATOM     27  C   UNL     1      -0.750   1.641  -1.230  0.00  0.00    -0.045 C 
ATOM     28  C   UNL     1      -0.113   2.347  -2.153  0.00  0.00    +0.002 C 
BRANCH  28  29
ATOM     29  C   UNL     1      -0.842   2.841  -3.340  0.00  0.00    -0.022 A 
ATOM     30  C   UNL     1      -2.202   2.566  -3.490  0.00  0.00    +0.012 A 
ATOM     31  C   UNL     1      -2.881   3.029  -4.597  0.00  0.00    +0.050 A 
ATOM     32  C   UNL     1      -2.216   3.768  -5.564  0.00  0.00    +0.158 A 
ATOM     33  C   UNL     1      -0.858   4.045  -5.421  0.00  0.00    +0.162 A 
ATOM     34  C   UNL     1      -0.173   3.589  -4.310  0.00  0.00    +0.057 A 
BRANCH  33  35
ATOM     35  O   UNL     1      -0.208   4.770  -6.371  0.00  0.00    -0.491 OA
ATOM     36  C   UNL     1       1.183   5.017  -6.159  0.00  0.00    +0.277 C 
ENDBRANCH  33  35
BRANCH  32  37
ATOM     37  O   UNL     1      -2.890   4.222  -6.654  0.00  0.00    -0.503 OA
ATOM     38  H   UNL     1      -3.282   5.098  -6.536  0.00  0.00    +0.292 HD
ENDBRANCH  32  37
ENDBRANCH  28  29
ENDBRANCH  26  27
ENDBRANCH   6  26
TORSDOF 10
