REMARK  Name = ZINC13174289
REMARK  8 active torsions:
REMARK  status: ('A' for Active; 'I' for Inactive)
REMARK    1  A    between atoms: C_1  and  C_2
REMARK    2  A    between atoms: C_2  and  C_4
REMARK    3  A    between atoms: C_8  and  N_10
REMARK    4  A    between atoms: C_11  and  C_13
REMARK    5  A    between atoms: C_13  and  S_14
REMARK    6  A    between atoms: S_14  and  C_15
REMARK    7  A    between atoms: C_16  and  C_34
REMARK    8  A    between atoms: C_17  and  C_27
REMARK                            x       y       z     vdW  Elec       q    Type
REMARK                         _______ _______ _______ _____ _____    ______ ____
ROOT
ATOM      1  C   UNL     1      -0.419  -8.710  -5.248  0.00  0.00    +0.112 C 
ATOM      2  C   UNL     1      -0.524  -9.478  -6.395  0.00  0.00    +0.073 C 
ATOM      3  C   UNL     1      -0.615 -10.983  -6.218  0.00  0.00    +0.097 C 
ATOM      4  C   UNL     1      -0.579 -11.484  -4.787  0.00  0.00    +0.029 C 
ATOM      5  C   UNL     1      -0.650 -12.801  -4.535  0.00  0.00    +0.162 C 
ATOM      6  C   UNL     1      -0.618 -13.332  -3.127  0.00  0.00    +0.080 C 
ATOM      7  C   UNL     1       0.195 -12.379  -2.246  0.00  0.00    +0.014 C 
ATOM      8  C   UNL     1      -0.431 -10.983  -2.318  0.00  0.00    +0.056 C 
ATOM      9  C   UNL     1      -0.468 -10.530  -3.759  0.00  0.00    +0.050 C 
ATOM     10  N   UNL     1      -0.391  -9.251  -4.028  0.00  0.00    -0.244 NA
ATOM     11  O   UNL     1      -0.752 -13.666  -5.565  0.00  0.00    -0.292 OA
ENDROOT
BRANCH   3  12
ATOM     12  C   UNL     1      -1.901 -11.455  -6.846  0.00  0.00    -0.035 A 
ATOM     13  C   UNL     1      -3.112 -10.968  -6.389  0.00  0.00    +0.006 A 
ATOM     14  C   UNL     1      -4.292 -11.399  -6.964  0.00  0.00    +0.020 A 
ATOM     15  C   UNL     1      -4.262 -12.319  -7.997  0.00  0.00    +0.041 A 
ATOM     16  C   UNL     1      -3.050 -12.806  -8.454  0.00  0.00    +0.020 A 
ATOM     17  C   UNL     1      -1.870 -12.370  -7.882  0.00  0.00    +0.006 A 
ATOM     18 CL   UNL     1      -5.744 -12.863  -8.720  0.00  0.00    -0.084 Cl
ENDBRANCH   3  12
BRANCH   2  19
ATOM     19  C   UNL     1      -0.547  -8.877  -7.695  0.00  0.00    +0.098 C 
ATOM     20  N   UNL     1      -0.565  -8.401  -8.726  0.00  0.00    -0.191 NA
ENDBRANCH   2  19
BRANCH   1  21
ATOM     21  S   UNL     1      -0.311  -6.959  -5.404  0.00  0.00    -0.096 S 
BRANCH  21  22
ATOM     22  C   UNL     1      -0.183  -6.372  -3.692  0.00  0.00    +0.172 C 
BRANCH  22  24
ATOM     23  N   UNL     1       0.022  -4.208  -2.513  0.00  0.00    -0.285 N 
ATOM     24  C   UNL     1      -0.082  -4.869  -3.683  0.00  0.00    +0.227 C 
ATOM     25  O   UNL     1      -0.096  -4.253  -4.728  0.00  0.00    -0.275 OA
ATOM     26  H   UNL     1       0.110  -4.702  -1.683  0.00  0.00    +0.155 HD
BRANCH  23  31
ATOM     27  C   UNL     1      -0.770  -0.717  -3.401  0.00  0.00    +0.019 A 
ATOM     28  C   UNL     1      -0.015  -0.030  -2.444  0.00  0.00    +0.011 A 
ATOM     29  C   UNL     1       0.738  -0.733  -1.526  0.00  0.00    +0.002 A 
ATOM     30  C   UNL     1       0.750  -2.116  -1.549  0.00  0.00    +0.023 A 
ATOM     31  C   UNL     1       0.005  -2.808  -2.495  0.00  0.00    +0.034 A 
ATOM     32  C   UNL     1      -0.761  -2.114  -3.419  0.00  0.00    +0.034 A 
BRANCH  27  34
ATOM     33  C   UNL     1      -1.582   1.536  -4.360  0.00  0.00    +0.091 C 
ATOM     34  C   UNL     1      -1.575   0.029  -4.382  0.00  0.00    +0.160 C 
ATOM     35  O   UNL     1      -2.232  -0.568  -5.207  0.00  0.00    -0.292 OA
ENDBRANCH  27  34
ENDBRANCH  23  31
ENDBRANCH  22  24
ENDBRANCH  21  22
ENDBRANCH   1  21
TORSDOF 7
