REMARK  Name = ZINC16012389
REMARK  2 active torsions:
REMARK  status: ('A' for Active; 'I' for Inactive)
REMARK    1  A    between atoms: C_1  and  C_2
REMARK    2  A    between atoms: N_24  and  C_27
REMARK                            x       y       z     vdW  Elec       q    Type
REMARK                         _______ _______ _______ _____ _____    ______ ____
ROOT
ATOM      1  C   UNL     1      -5.961  -0.426   5.670  0.00  0.00    +0.046 C 
ATOM      2  C   UNL     1      -4.951  -0.006   4.633  0.00  0.00    -0.028 A 
ATOM      3  C   UNL     1      -4.016   0.962   4.936  0.00  0.00    +0.025 A 
ATOM      4  C   UNL     1      -3.084   1.354   3.991  0.00  0.00    +0.042 A 
ATOM      5  C   UNL     1      -3.092   0.771   2.735  0.00  0.00    +0.024 A 
ATOM      6  C   UNL     1      -4.023  -0.196   2.430  0.00  0.00    -0.026 A 
ATOM      7  C   UNL     1      -4.964  -0.597   3.373  0.00  0.00    +0.039 A 
ATOM      8  N   UNL     1      -5.795  -1.583   2.835  0.00  0.00    -0.286 N 
ATOM      9  C   UNL     1      -5.472  -1.882   1.562  0.00  0.00    +0.212 C 
ATOM     10  O   UNL     1      -6.019  -2.695   0.848  0.00  0.00    -0.277 OA
ATOM     11  C   UNL     1      -4.301  -1.010   1.197  0.00  0.00    +0.053 C 
ATOM     12  C   UNL     1      -3.082  -1.849   0.797  0.00  0.00    +0.089 C 
ATOM     13  C   UNL     1      -3.093  -1.845  -0.756  0.00  0.00    +0.074 C 
ATOM     14  C   UNL     1      -4.323  -1.012  -1.163  0.00  0.00    -0.054 C 
ATOM     15  N   UNL     1      -4.609  -0.150   0.042  0.00  0.00    +0.395 N 
ATOM     16  C   UNL     1      -3.622   0.953  -0.041  0.00  0.00    -0.076 C 
ATOM     17  C   UNL     1      -3.492   1.268  -1.545  0.00  0.00    -0.020 C 
ATOM     18  C   UNL     1      -3.933  -0.021  -2.266  0.00  0.00    -0.016 C 
ATOM     19  C   UNL     1      -1.834  -1.088  -1.113  0.00  0.00    +0.228 C 
ATOM     20  O   UNL     1      -1.455  -0.850  -2.239  0.00  0.00    -0.275 OA
ATOM     21  N   UNL     1      -1.202  -0.723   0.009  0.00  0.00    -0.209 N 
ATOM     22  C   UNL     1      -1.811  -1.105   1.138  0.00  0.00    +0.229 C 
ATOM     23  O   UNL     1      -1.407  -0.885   2.260  0.00  0.00    -0.275 OA
ATOM     24 CL   UNL     1      -1.911   2.573   4.378  0.00  0.00    -0.084 Cl
ATOM     25  H   UNL     1      -6.601  -2.017   3.446  0.00  0.00    +0.155 HD
ATOM     26  H   UNL     1      -5.630   0.251   0.129  0.00  0.00    -0.079 HD
ENDROOT
BRANCH  21  27
ATOM     27  C   UNL     1       0.002  -0.004   0.002  0.00  0.00    +0.062 A 
ATOM     28  C   UNL     1      -0.017   1.384   0.010  0.00  0.00    +0.027 A 
ATOM     29  C   UNL     1       1.170   2.090   0.002  0.00  0.00    +0.022 A 
ATOM     30  C   UNL     1       2.378   1.415  -0.013  0.00  0.00    +0.042 A 
ATOM     31  C   UNL     1       2.401   0.032  -0.021  0.00  0.00    +0.042 A 
ATOM     32  C   UNL     1       1.216  -0.680  -0.013  0.00  0.00    +0.064 A 
ATOM     33 CL   UNL     1       1.244  -2.416  -0.023  0.00  0.00    -0.082 Cl
ATOM     34 CL   UNL     1       3.869   2.306  -0.022  0.00  0.00    -0.083 Cl
ENDBRANCH  21  27
TORSDOF 1
