REMARK  Name = ZINC09261269
REMARK  6 active torsions:
REMARK  status: ('A' for Active; 'I' for Inactive)
REMARK    1  A    between atoms: C_1  and  C_2
REMARK    2  A    between atoms: C_3  and  C_20
REMARK    3  A    between atoms: N_10  and  C_11
REMARK    4  A    between atoms: C_11  and  C_12
REMARK    5  A    between atoms: C_25  and  N_27
REMARK    6  A    between atoms: N_27  and  C_28
REMARK                            x       y       z     vdW  Elec       q    Type
REMARK                         _______ _______ _______ _____ _____    ______ ____
ROOT
ATOM      1  C   UNL     1      -1.246   0.547  -0.306  0.00  0.00    +0.064 C 
ATOM      2  C   UNL     1      -0.909  -0.921  -0.331  0.00  0.00    +0.024 A 
ATOM      3  C   UNL     1      -0.632  -1.647  -1.457  0.00  0.00    +0.004 A 
ATOM      4  C   UNL     1      -0.363  -3.027  -1.008  0.00  0.00    +0.007 A 
ATOM      5  C   UNL     1      -0.029  -4.209  -1.663  0.00  0.00    +0.010 A 
ATOM      6  C   UNL     1       0.162  -5.362  -0.935  0.00  0.00    +0.001 A 
ATOM      7  C   UNL     1       0.021  -5.350   0.445  0.00  0.00    +0.002 A 
ATOM      8  C   UNL     1      -0.309  -4.188   1.107  0.00  0.00    +0.026 A 
ATOM      9  C   UNL     1      -0.505  -3.012   0.389  0.00  0.00    +0.050 A 
ATOM     10  N   UNL     1      -0.830  -1.723   0.760  0.00  0.00    -0.339 N 
ENDROOT
BRANCH   3  11
ATOM     11  C   UNL     1      -0.608  -1.154  -2.833  0.00  0.00    +0.030 C 
ATOM     12  C   UNL     1       0.462  -1.418  -3.632  0.00  0.00    +0.080 C 
ATOM     13  C   UNL     1       1.696  -2.176  -3.341  0.00  0.00    +0.276 C 
ATOM     14  O   UNL     1       1.894  -2.688  -2.249  0.00  0.00    -0.267 OA
ATOM     15  N   UNL     1       2.570  -2.271  -4.319  0.00  0.00    -0.152 NA
ATOM     16  C   UNL     1       2.368  -1.722  -5.506  0.00  0.00    +0.175 C 
ATOM     17  S   UNL     1       0.766  -0.952  -5.332  0.00  0.00    -0.050 S 
BRANCH  16  18
ATOM     18  N   UNL     1       3.188  -1.743  -6.606  0.00  0.00    -0.192 NA
BRANCH  18  19
ATOM     19  C   UNL     1       4.315  -2.572  -6.623  0.00  0.00    +0.056 A 
ATOM     20  C   UNL     1       4.363  -3.696  -5.809  0.00  0.00    +0.028 A 
ATOM     21  C   UNL     1       5.476  -4.513  -5.827  0.00  0.00    +0.040 A 
ATOM     22  C   UNL     1       6.544  -4.212  -6.655  0.00  0.00    +0.124 A 
ATOM     23  C   UNL     1       6.498  -3.091  -7.468  0.00  0.00    +0.040 A 
ATOM     24  C   UNL     1       5.385  -2.275  -7.457  0.00  0.00    +0.028 A 
ATOM     25  F   UNL     1       7.632  -5.012  -6.671  0.00  0.00    -0.205 F 
ENDBRANCH  18  19
ENDBRANCH  16  18
ENDBRANCH   3  11
BRANCH  10  26
ATOM     26  C   UNL     1      -1.060  -1.284   2.139  0.00  0.00    +0.157 C 
BRANCH  26  27
ATOM     27  C   UNL     1      -2.518  -1.447   2.481  0.00  0.00    -0.026 A 
ATOM     28  C   UNL     1      -3.404  -0.413   2.243  0.00  0.00    +0.007 A 
ATOM     29  C   UNL     1      -4.742  -0.561   2.557  0.00  0.00    +0.022 A 
ATOM     30  C   UNL     1      -5.195  -1.745   3.110  0.00  0.00    +0.059 A 
ATOM     31  C   UNL     1      -4.308  -2.781   3.349  0.00  0.00    +0.060 A 
ATOM     32  C   UNL     1      -2.970  -2.633   3.029  0.00  0.00    +0.026 A 
ATOM     33 CL   UNL     1      -4.875  -4.268   4.043  0.00  0.00    -0.082 Cl
ATOM     34 CL   UNL     1      -6.875  -1.932   3.505  0.00  0.00    -0.082 Cl
ENDBRANCH  26  27
ENDBRANCH  10  26
TORSDOF 5
