REMARK  Name = ZINC64392144
REMARK  6 active torsions:
REMARK  status: ('A' for Active; 'I' for Inactive)
REMARK    1  A    between atoms: C_1  and  S_2
REMARK    2  A    between atoms: S_2  and  C_3
REMARK    3  A    between atoms: C_6  and  C_9
REMARK    4  A    between atoms: C_11  and  C_15
REMARK    5  A    between atoms: N_25  and  C_28
REMARK    6  A    between atoms: C_28  and  C_29
REMARK                            x       y       z     vdW  Elec       q    Type
REMARK                         _______ _______ _______ _____ _____    ______ ____
ROOT
ATOM      1  C   UNL     1       3.818  -3.743   7.258  0.00  0.00    +0.006 A 
ATOM      2  C   UNL     1       2.583  -4.300   6.964  0.00  0.00    +0.009 A 
ATOM      3  C   UNL     1       2.142  -5.418   7.641  0.00  0.00    +0.016 A 
ATOM      4  C   UNL     1       2.947  -5.986   8.625  0.00  0.00    +0.063 A 
ATOM      5  C   UNL     1       4.199  -5.420   8.922  0.00  0.00    +0.056 A 
ATOM      6  C   UNL     1       4.628  -4.300   8.227  0.00  0.00    +0.034 A 
ATOM      7  N   UNL     1       4.980  -6.008   9.907  0.00  0.00    -0.307 N 
ATOM      8  H   UNL     1       5.846  -5.628  10.123  0.00  0.00    +0.170 HD
ATOM      9  C   UNL     1       4.548  -7.097  10.565  0.00  0.00    +0.330 A 
ATOM     10  O   UNL     1       5.263  -7.582  11.421  0.00  0.00    -0.246 OA
ATOM     11  N   UNL     1       3.362  -7.674  10.317  0.00  0.00    -0.256 N 
ATOM     12  C   UNL     1       2.525  -7.181   9.378  0.00  0.00    +0.265 A 
ATOM     13  O   UNL     1       1.452  -7.709   9.159  0.00  0.00    -0.267 OA
ENDROOT
BRANCH   1  16
ATOM     14  C   UNL     1       2.985  -1.446   5.018  0.00  0.00    +0.134 C 
ATOM     15  N   UNL     1       3.716  -2.510   5.154  0.00  0.00    -0.339 N 
ATOM     16  C   UNL     1       4.283  -2.521   6.508  0.00  0.00    +0.274 C 
ATOM     17  O   UNL     1       3.789  -1.331   7.140  0.00  0.00    -0.243 OA
ATOM     18  N   UNL     1       2.985  -0.688   6.163  0.00  0.00    -0.247 N 
ATOM     19  H   UNL     1       2.511   0.149   6.286  0.00  0.00    +0.196 HD
ATOM     20  H   UNL     1       3.863  -3.186   4.474  0.00  0.00    +0.164 HD
BRANCH  14  24
ATOM     21  C   UNL     1       0.877  -0.427   1.472  0.00  0.00    +0.008 A 
ATOM     22  C   UNL     1       1.349   0.578   2.313  0.00  0.00    +0.015 A 
ATOM     23  C   UNL     1       2.032   0.250   3.462  0.00  0.00    +0.012 A 
ATOM     24  C   UNL     1       2.251  -1.091   3.784  0.00  0.00    +0.017 A 
ATOM     25  C   UNL     1       1.777  -2.097   2.940  0.00  0.00    +0.012 A 
ATOM     26  C   UNL     1       1.089  -1.764   1.794  0.00  0.00    +0.015 A 
BRANCH  21  28
ATOM     27  C   UNL     1      -0.022   1.810   0.012  0.00  0.00    +0.090 C 
ATOM     28  S   UNL     1       0.002  -0.004   0.002  0.00  0.00    -0.129 S 
ENDBRANCH  21  28
ENDBRANCH  14  24
ENDBRANCH   1  16
BRANCH  11  29
ATOM     29  C   UNL     1       2.966  -8.860  11.080  0.00  0.00    +0.165 C 
BRANCH  29  30
ATOM     30  C   UNL     1       2.222  -8.435  12.320  0.00  0.00    -0.024 A 
ATOM     31  C   UNL     1       2.916  -8.191  13.491  0.00  0.00    +0.009 A 
ATOM     32  C   UNL     1       2.238  -7.801  14.630  0.00  0.00    +0.050 A 
ATOM     33  C   UNL     1       0.861  -7.654  14.602  0.00  0.00    +0.166 A 
ATOM     34  C   UNL     1       0.162  -7.900  13.422  0.00  0.00    +0.167 A 
ATOM     35  C   UNL     1       0.849  -8.285  12.283  0.00  0.00    +0.055 A 
ATOM     36  O   UNL     1      -1.167  -7.688  13.650  0.00  0.00    -0.453 OA
ATOM     37  C   UNL     1      -1.319  -7.707  15.082  0.00  0.00    +0.466 C 
ATOM     38  O   UNL     1      -0.031  -7.287  15.569  0.00  0.00    -0.453 OA
ENDBRANCH  29  30
ENDBRANCH  11  29
TORSDOF 5
