REMARK  Name = ZINC15546081
REMARK  5 active torsions:
REMARK  status: ('A' for Active; 'I' for Inactive)
REMARK    1  A    between atoms: N_7  and  C_20
REMARK    2  A    between atoms: C_9  and  C_12
REMARK    3  A    between atoms: C_20  and  C_21
REMARK    4  A    between atoms: N_26  and  C_27
REMARK    5  A    between atoms: C_27  and  C_28
REMARK                            x       y       z     vdW  Elec       q    Type
REMARK                         _______ _______ _______ _____ _____    ______ ____
ROOT
ATOM      1  C   UNL     1       9.225   2.676   1.413  0.00  0.00    +0.002 A 
ATOM      2  C   UNL     1      10.411   3.365   1.587  0.00  0.00    +0.004 A 
ATOM      3  C   UNL     1      11.204   3.108   2.689  0.00  0.00    +0.047 A 
ATOM      4  C   UNL     1      10.815   2.159   3.623  0.00  0.00    +0.143 A 
ATOM      5  C   UNL     1       9.626   1.462   3.448  0.00  0.00    +0.073 A 
ATOM      6  C   UNL     1       8.832   1.728   2.336  0.00  0.00    +0.027 A 
ATOM      7  N   UNL     1       9.196   0.492   4.360  0.00  0.00    -0.314 N 
ATOM      8  C   UNL     1       9.846   0.637   5.668  0.00  0.00    +0.160 C 
ATOM      9  C   UNL     1      11.361   0.742   5.453  0.00  0.00    +0.276 C 
ATOM     10  O   UNL     1      11.617   1.932   4.700  0.00  0.00    -0.476 OA
ENDROOT
BRANCH   9  11
ATOM     11  C   UNL     1      12.061   0.821   6.785  0.00  0.00    +0.258 C 
ATOM     12  O   UNL     1      12.665   1.826   7.094  0.00  0.00    -0.271 OA
ATOM     13  N   UNL     1      12.015  -0.225   7.634  0.00  0.00    -0.298 N 
ATOM     14  C   UNL     1      11.281  -1.447   7.277  0.00  0.00    +0.108 C 
ATOM     15  C   UNL     1      12.229  -2.647   7.425  0.00  0.00    +0.019 C 
ATOM     16  C   UNL     1      12.814  -2.656   8.839  0.00  0.00    +0.003 C 
ATOM     17  C   UNL     1      13.619  -1.375   9.068  0.00  0.00    +0.019 C 
ATOM     18  C   UNL     1      12.692  -0.163   8.936  0.00  0.00    +0.108 C 
ENDBRANCH   9  11
BRANCH   7  19
ATOM     19  C   UNL     1       7.734   0.506   4.494  0.00  0.00    +0.201 C 
BRANCH  19  20
ATOM     20  C   UNL     1       7.278   1.890   4.878  0.00  0.00    +0.238 C 
ATOM     21  O   UNL     1       8.095   2.752   5.120  0.00  0.00    -0.274 OA
ATOM     22  N   UNL     1       5.961   2.169   4.952  0.00  0.00    -0.239 N 
ATOM     23  C   UNL     1       5.553   3.407   5.296  0.00  0.00    +0.306 C 
ATOM     24  O   UNL     1       6.373   4.271   5.539  0.00  0.00    -0.252 OA
ATOM     25  N   UNL     1       4.237   3.687   5.371  0.00  0.00    -0.292 N 
ATOM     26  H   UNL     1       5.307   1.480   4.759  0.00  0.00    +0.159 HD
ATOM     27  H   UNL     1       3.583   2.997   5.177  0.00  0.00    +0.151 HD
BRANCH  25  28
ATOM     28  C   UNL     1       3.794   5.032   5.745  0.00  0.00    +0.180 C 
BRANCH  28  29
ATOM     29  C   UNL     1       2.288   5.080   5.754  0.00  0.00    +0.122 A 
ATOM     30  C   UNL     1       1.499   4.813   6.810  0.00  0.00    +0.046 A 
ATOM     31  C   UNL     1       0.163   4.979   6.377  0.00  0.00    +0.041 A 
ATOM     32  C   UNL     1       0.216   5.338   5.081  0.00  0.00    +0.195 A 
ATOM     33  O   UNL     1       1.505   5.398   4.710  0.00  0.00    -0.466 OA
ENDBRANCH  28  29
ENDBRANCH  25  28
ENDBRANCH  19  20
ENDBRANCH   7  19
TORSDOF 5
