REMARK  Name = ZINC07947407
REMARK  9 active torsions:
REMARK  status: ('A' for Active; 'I' for Inactive)
REMARK    1  A    between atoms: C_1  and  C_2
REMARK    2  A    between atoms: C_5  and  C_8
REMARK    3  A    between atoms: C_8  and  C_18
REMARK    4  A    between atoms: N_9  and  N_10
REMARK    5  A    between atoms: C_11  and  O_13
REMARK    6  A    between atoms: O_13  and  C_14
REMARK    7  A    between atoms: C_14  and  C_15
REMARK    8  A    between atoms: C_14  and  C_16
REMARK    9  A    between atoms: C_14  and  C_17
REMARK                            x       y       z     vdW  Elec       q    Type
REMARK                         _______ _______ _______ _____ _____    ______ ____
ROOT
ATOM      1  C   UNL     1      -3.528   1.917   0.029  0.00  0.00    +0.063 C 
ATOM      2  N   UNL     1      -2.396   1.284   0.020  0.00  0.00    -0.182 NA
ATOM      3  C   UNL     1      -3.549   3.424   0.037  0.00  0.00    +0.068 C 
ENDROOT
BRANCH   1   8
ATOM      4  C   UNL     1      -8.470  -1.026   0.037  0.00  0.00    +0.044 C 
ATOM      5  C   UNL     1      -7.175  -0.255   0.035  0.00  0.00    -0.050 A 
ATOM      6  C   UNL     1      -5.969  -0.934   0.026  0.00  0.00    +0.004 A 
ATOM      7  C   UNL     1      -4.780  -0.235   0.023  0.00  0.00    +0.010 A 
ATOM      8  C   UNL     1      -4.795   1.162   0.031  0.00  0.00    -0.003 A 
ATOM      9  C   UNL     1      -6.016   1.841   0.046  0.00  0.00    +0.010 A 
ATOM     10  C   UNL     1      -7.197   1.128   0.043  0.00  0.00    +0.004 A 
ENDBRANCH   1   8
BRANCH   2  11
ATOM     11  N   UNL     1      -1.192   2.001   0.019  0.00  0.00    -0.172 N 
ATOM     12  C   UNL     1      -0.016   1.343   0.009  0.00  0.00    +0.420 C 
ATOM     13  O   UNL     1       1.028   1.964   0.003  0.00  0.00    -0.225 OA
ATOM     14  H   UNL     1      -1.206   2.970   0.024  0.00  0.00    +0.181 HD
BRANCH  12  15
ATOM     15  O   UNL     1       0.002  -0.004   0.002  0.00  0.00    -0.444 OA
BRANCH  15  16
ATOM     16  C   UNL     1       1.305  -0.646  -0.014  0.00  0.00    +0.107 C 
ATOM     17  C   UNL     1       2.093  -0.231   1.230  0.00  0.00    +0.055 C 
ATOM     18  C   UNL     1       1.125  -2.165  -0.020  0.00  0.00    +0.055 C 
ATOM     19  C   UNL     1       2.069  -0.217  -1.268  0.00  0.00    +0.055 C 
ENDBRANCH  15  16
ENDBRANCH  12  15
ENDBRANCH   2  11
TORSDOF 4
