REMARK  Name = ZINC24833043
REMARK  11 active torsions:
REMARK  status: ('A' for Active; 'I' for Inactive)
REMARK    1  A    between atoms: C_1  and  C_2
REMARK    2  A    between atoms: C_2  and  C_3
REMARK    3  A    between atoms: C_6  and  C_8
REMARK    4  A    between atoms: C_8  and  S_9
REMARK    5  A    between atoms: S_9  and  C_10
REMARK    6  A    between atoms: C_13  and  C_14
REMARK    7  A    between atoms: C_17  and  O_20
REMARK    8  A    between atoms: O_20  and  C_21
REMARK    9  A    between atoms: N_24  and  C_25
REMARK   10  A    between atoms: C_28  and  O_31
REMARK   11  A    between atoms: O_31  and  C_32
REMARK                            x       y       z     vdW  Elec       q    Type
REMARK                         _______ _______ _______ _____ _____    ______ ____
ROOT
ATOM      1  C   UNL     1      -2.833  -2.031   1.250  0.00  0.00    +0.169 C 
ATOM      2  N   UNL     1      -3.349  -2.451   0.124  0.00  0.00    -0.220 NA
ATOM      3  C   UNL     1      -4.374  -3.314   0.393  0.00  0.00    +0.129 C 
ATOM      4  C   UNL     1      -5.162  -3.965  -0.514  0.00  0.00    +0.041 C 
ATOM      5  C   UNL     1      -4.456  -3.399   1.863  0.00  0.00    +0.275 C 
ATOM      6  O   UNL     1      -5.238  -4.062   2.521  0.00  0.00    -0.268 OA
ATOM      7  N   UNL     1      -3.478  -2.591   2.326  0.00  0.00    -0.214 N 
ENDROOT
BRANCH   4   8
ATOM      8  C   UNL     1      -5.022  -3.679  -1.945  0.00  0.00    -0.023 A 
ATOM      9  C   UNL     1      -5.912  -4.247  -2.866  0.00  0.00    +0.011 A 
ATOM     10  C   UNL     1      -5.778  -3.970  -4.208  0.00  0.00    +0.046 A 
ATOM     11  C   UNL     1      -4.756  -3.138  -4.651  0.00  0.00    +0.120 A 
ATOM     12  C   UNL     1      -3.867  -2.576  -3.742  0.00  0.00    +0.046 A 
ATOM     13  C   UNL     1      -3.993  -2.841  -2.397  0.00  0.00    +0.011 A 
BRANCH  11  14
ATOM     14  O   UNL     1      -4.626  -2.873  -5.976  0.00  0.00    -0.495 OA
ATOM     15  C   UNL     1      -5.574  -3.483  -6.855  0.00  0.00    +0.277 C 
ENDBRANCH  11  14
ENDBRANCH   4   8
BRANCH   7  16
ATOM     16  C   UNL     1      -3.174  -2.359   3.677  0.00  0.00    +0.044 A 
ATOM     17  C   UNL     1      -1.894  -2.605   4.152  0.00  0.00    +0.027 A 
ATOM     18  C   UNL     1      -1.594  -2.372   5.480  0.00  0.00    +0.048 A 
ATOM     19  C   UNL     1      -2.575  -1.902   6.341  0.00  0.00    +0.127 A 
ATOM     20  C   UNL     1      -3.857  -1.661   5.867  0.00  0.00    +0.048 A 
ATOM     21  C   UNL     1      -4.156  -1.889   4.538  0.00  0.00    +0.027 A 
BRANCH  19  22
ATOM     22  O   UNL     1      -2.281  -1.677   7.649  0.00  0.00    -0.434 OA
BRANCH  22  23
ATOM     23  C   UNL     1      -0.942  -1.947   8.068  0.00  0.00    +0.541 C 
ATOM     24  F   UNL     1      -0.645  -3.295   7.842  0.00  0.00    -0.166 F 
ATOM     25  F   UNL     1      -0.055  -1.146   7.341  0.00  0.00    -0.166 F 
ENDBRANCH  22  23
ENDBRANCH  19  22
ENDBRANCH   7  16
BRANCH   1  26
ATOM     26  S   UNL     1      -1.486  -0.903   1.370  0.00  0.00    -0.080 S 
BRANCH  26  27
ATOM     27  C   UNL     1      -1.161  -0.612  -0.387  0.00  0.00    +0.174 C 
BRANCH  27  31
ATOM     28  C   UNL     1       1.155   2.150  -0.726  0.00  0.00    +0.217 A 
ATOM     29  N   UNL     1       1.948   1.116  -0.731  0.00  0.00    -0.112 NA
ATOM     30  N   UNL     1       1.250   0.041  -0.616  0.00  0.00    -0.112 NA
ATOM     31  C   UNL     1      -0.013   0.353  -0.533  0.00  0.00    +0.227 A 
ATOM     32  O   UNL     1      -0.102   1.692  -0.601  0.00  0.00    -0.424 OA
BRANCH  28  34
ATOM     33  C   UNL     1       1.598   4.001  -2.315  0.00  0.00    +0.013 C 
ATOM     34  C   UNL     1       1.571   3.593  -0.840  0.00  0.00    +0.094 C 
ENDBRANCH  28  34
ENDBRANCH  27  31
ENDBRANCH  26  27
ENDBRANCH   1  26
TORSDOF 9
