REMARK  Name = ZINC10002171
REMARK  9 active torsions:
REMARK  status: ('A' for Active; 'I' for Inactive)
REMARK    1  A    between atoms: C_1  and  C_2
REMARK    2  A    between atoms: C_2  and  C_3
REMARK    3  A    between atoms: C_2  and  C_4
REMARK    4  A    between atoms: C_4  and  C_6
REMARK    5  A    between atoms: C_4  and  N_18
REMARK    6  A    between atoms: N_8  and  N_9
REMARK    7  A    between atoms: C_10  and  C_11
REMARK    8  A    between atoms: C_15  and  O_17
REMARK    9  A    between atoms: C_19  and  C_21
REMARK                            x       y       z     vdW  Elec       q    Type
REMARK                         _______ _______ _______ _____ _____    ______ ____
ROOT
ATOM      1  C   UNL     1      -2.409   9.505   0.198  0.00  0.00    +0.163 C 
ENDROOT
BRANCH   1   2
ATOM      2  C   UNL     1      -2.479   8.009   0.026  0.00  0.00    +0.253 C 
ATOM      3  O   UNL     1      -3.520   7.486  -0.313  0.00  0.00    -0.272 OA
ATOM      4  N   UNL     1      -1.386   7.253   0.249  0.00  0.00    -0.205 N 
ATOM      5  H   UNL     1      -0.536   7.677   0.449  0.00  0.00    +0.177 HD
BRANCH   4   6
ATOM      6  N   UNL     1      -1.477   5.857   0.192  0.00  0.00    -0.188 NA
ATOM      7  C   UNL     1      -0.424   5.129   0.406  0.00  0.00    +0.138 C 
BRANCH   7   8
ATOM      8  C   UNL     1      -0.519   3.658   0.346  0.00  0.00    -0.002 A 
ATOM      9  C   UNL     1      -1.742   3.046   0.059  0.00  0.00    +0.010 A 
ATOM     10  C   UNL     1      -1.826   1.670  -0.002  0.00  0.00    +0.004 A 
ATOM     11  C   UNL     1      -0.706   0.894   0.232  0.00  0.00    +0.045 A 
ATOM     12  C   UNL     1       0.514   1.493   0.519  0.00  0.00    +0.117 A 
ATOM     13  C   UNL     1       0.611   2.873   0.577  0.00  0.00    +0.054 A 
BRANCH  12  14
ATOM     14  O   UNL     1       1.612   0.724   0.742  0.00  0.00    -0.507 OA
ATOM     15  H   UNL     1       2.121   0.525  -0.055  0.00  0.00    +0.292 HD
ENDBRANCH  12  14
ENDBRANCH   7   8
ENDBRANCH   4   6
ENDBRANCH   1   2
BRANCH   1  16
ATOM     16  N   UNL     1      -3.760  10.037   0.399  0.00  0.00    -0.300 N 
ATOM     17  C   UNL     1      -3.934  11.201   1.055  0.00  0.00    +0.245 C 
ATOM     18  O   UNL     1      -2.971  11.810   1.480  0.00  0.00    -0.270 OA
ATOM     19  H   UNL     1      -4.528   9.552   0.059  0.00  0.00    +0.150 HD
BRANCH  17  20
ATOM     20  C   UNL     1      -5.295  11.738   1.258  0.00  0.00    +0.037 A 
ATOM     21  C   UNL     1      -6.403  11.044   0.765  0.00  0.00    +0.016 A 
ATOM     22  C   UNL     1      -7.671  11.546   0.963  0.00  0.00    +0.039 A 
ATOM     23  C   UNL     1      -7.848  12.744   1.638  0.00  0.00    +0.123 A 
ATOM     24  C   UNL     1      -6.752  13.440   2.124  0.00  0.00    +0.039 A 
ATOM     25  C   UNL     1      -5.479  12.944   1.937  0.00  0.00    +0.016 A 
ATOM     26  F   UNL     1      -9.093  13.235   1.823  0.00  0.00    -0.205 F 
ENDBRANCH  17  20
ENDBRANCH   1  16
BRANCH   1  28
ATOM     27  C   UNL     1      -2.731   9.920  -2.245  0.00  0.00    +0.009 C 
ATOM     28  C   UNL     1      -1.794  10.134  -1.054  0.00  0.00    +0.012 C 
ATOM     29  C   UNL     1      -1.594  11.633  -0.825  0.00  0.00    +0.009 C 
ENDBRANCH   1  28
TORSDOF 7
