REMARK  Name = ZINC39896540
REMARK  9 active torsions:
REMARK  status: ('A' for Active; 'I' for Inactive)
REMARK    1  A    between atoms: C_1  and  C_2
REMARK    2  A    between atoms: C_5  and  N_9
REMARK    3  A    between atoms: C_7  and  C_8
REMARK    4  A    between atoms: C_12  and  C_28
REMARK    5  A    between atoms: C_16  and  C_17
REMARK    6  A    between atoms: C_16  and  C_19
REMARK    7  A    between atoms: N_21  and  C_22
REMARK    8  A    between atoms: C_22  and  C_23
REMARK    9  A    between atoms: C_28  and  C_29
REMARK                            x       y       z     vdW  Elec       q    Type
REMARK                         _______ _______ _______ _____ _____    ______ ____
ROOT
ATOM      1  N   UNL     1      -0.024  -4.171  -0.015  0.00  0.00    -0.232 N 
ATOM      2  C   UNL     1       0.075  -4.810   1.139  0.00  0.00    +0.238 C 
ATOM      3  O   UNL     1       0.104  -4.224   2.200  0.00  0.00    -0.274 OA
ATOM      4  C   UNL     1       0.152  -6.326   1.049  0.00  0.00    +0.143 C 
ATOM      5  S   UNL     1       0.060  -6.550  -0.775  0.00  0.00    -0.095 S 
ATOM      6  C   UNL     1      -0.063  -4.825  -1.222  0.00  0.00    +0.098 C 
ATOM      7  C   UNL     1      -0.171  -4.271  -2.499  0.00  0.00    +0.141 C 
ENDROOT
BRANCH   1  12
ATOM      8  C   UNL     1      -0.328   1.496   0.024  0.00  0.00    +0.044 C 
ATOM      9  C   UNL     1      -0.247  -0.009   0.014  0.00  0.00    -0.047 A 
ATOM     10  C   UNL     1       0.984  -0.635   0.090  0.00  0.00    +0.005 A 
ATOM     11  C   UNL     1       1.061  -2.014   0.080  0.00  0.00    +0.024 A 
ATOM     12  C   UNL     1      -0.099  -2.772  -0.005  0.00  0.00    +0.042 A 
ATOM     13  C   UNL     1      -1.333  -2.141  -0.080  0.00  0.00    +0.027 A 
ATOM     14  C   UNL     1      -1.404  -0.761  -0.065  0.00  0.00    -0.046 A 
ATOM     15  C   UNL     1      -2.744  -0.076  -0.140  0.00  0.00    +0.044 C 
ENDBRANCH   1  12
BRANCH   7  16
ATOM     16  C   UNL     1      -0.096  -2.821  -2.676  0.00  0.00    +0.257 C 
ATOM     17  O   UNL     1      -1.117  -2.158  -2.707  0.00  0.00    -0.269 OA
ATOM     18  N   UNL     1       1.102  -2.219  -2.804  0.00  0.00    -0.304 N 
ATOM     19  H   UNL     1       1.916  -2.747  -2.779  0.00  0.00    +0.149 HD
BRANCH  18  20
ATOM     20  C   UNL     1       1.177  -0.767  -2.981  0.00  0.00    +0.179 C 
BRANCH  20  21
ATOM     21  C   UNL     1       2.620  -0.349  -3.099  0.00  0.00    +0.122 A 
ATOM     22  C   UNL     1       3.321  -0.255  -4.244  0.00  0.00    +0.046 A 
ATOM     23  C   UNL     1       4.624   0.168  -3.893  0.00  0.00    +0.041 A 
ATOM     24  C   UNL     1       4.641   0.307  -2.555  0.00  0.00    +0.195 A 
ATOM     25  O   UNL     1       3.423  -0.002  -2.080  0.00  0.00    -0.466 OA
ENDBRANCH  20  21
ENDBRANCH  18  20
ENDBRANCH   7  16
BRANCH   7  26
ATOM     26  C   UNL     1      -0.356  -5.123  -3.635  0.00  0.00    +0.107 C 
ATOM     27  N   UNL     1      -0.502  -5.798  -4.537  0.00  0.00    -0.191 NA
ENDBRANCH   7  26
BRANCH   4  28
ATOM     28  C   UNL     1       1.477  -6.849   1.608  0.00  0.00    +0.062 C 
BRANCH  28  29
ATOM     29  C   UNL     1       1.460  -8.355   1.614  0.00  0.00    -0.011 A 
ATOM     30  C   UNL     1       1.083  -9.038   2.755  0.00  0.00    +0.006 A 
ATOM     31  C   UNL     1       1.067 -10.421   2.760  0.00  0.00    +0.000 A 
ATOM     32  C   UNL     1       1.429 -11.122   1.625  0.00  0.00    +0.003 A 
ATOM     33  C   UNL     1       1.806 -10.441   0.483  0.00  0.00    +0.038 A 
ATOM     34  C   UNL     1       1.817  -9.056   0.474  0.00  0.00    +0.127 A 
ATOM     35  F   UNL     1       2.180  -8.390  -0.643  0.00  0.00    -0.205 F 
ENDBRANCH  28  29
ENDBRANCH   4  28
TORSDOF 7
