REMARK  Name = ZINC35288813
REMARK  10 active torsions:
REMARK  status: ('A' for Active; 'I' for Inactive)
REMARK    1  A    between atoms: C_1  and  C_2
REMARK    2  A    between atoms: C_2  and  C_4
REMARK    3  A    between atoms: C_7  and  N_10
REMARK    4  A    between atoms: C_11  and  S_15
REMARK    5  A    between atoms: S_15  and  C_16
REMARK    6  A    between atoms: C_16  and  C_17
REMARK    7  A    between atoms: C_22  and  C_25
REMARK    8  A    between atoms: C_25  and  C_26
REMARK    9  A    between atoms: C_25  and  C_27
REMARK   10  A    between atoms: C_25  and  C_28
REMARK                            x       y       z     vdW  Elec       q    Type
REMARK                         _______ _______ _______ _____ _____    ______ ____
ROOT
ATOM      1  S   UNL     1      -3.981  -5.023  -1.558  0.00  0.00    -0.075 S 
ENDROOT
BRANCH   1   3
ATOM      2  N   UNL     1      -4.842  -2.890   0.033  0.00  0.00    -0.187 N 
ATOM      3  C   UNL     1      -5.104  -4.077  -0.583  0.00  0.00    +0.214 A 
ATOM      4  N   UNL     1      -6.354  -4.383  -0.311  0.00  0.00    -0.101 NA
ATOM      5  N   UNL     1      -6.889  -3.477   0.425  0.00  0.00    -0.022 NA
ATOM      6  N   UNL     1      -6.040  -2.543   0.682  0.00  0.00    -0.038 NA
BRANCH   2  10
ATOM      7  C   UNL     1      -1.260  -0.756   0.010  0.00  0.00    +0.017 A 
ATOM      8  C   UNL     1      -2.483  -0.075   0.020  0.00  0.00    +0.013 A 
ATOM      9  C   UNL     1      -3.663  -0.783   0.027  0.00  0.00    +0.028 A 
ATOM     10  C   UNL     1      -3.642  -2.174   0.025  0.00  0.00    +0.070 A 
ATOM     11  C   UNL     1      -2.429  -2.856   0.016  0.00  0.00    +0.028 A 
ATOM     12  C   UNL     1      -1.244  -2.156   0.002  0.00  0.00    +0.013 A 
BRANCH   7  14
ATOM     13  C   UNL     1      -0.018   1.503   0.010  0.00  0.00    +0.091 C 
ATOM     14  C   UNL     1       0.002  -0.004   0.002  0.00  0.00    +0.160 C 
ATOM     15  O   UNL     1       1.060  -0.596  -0.011  0.00  0.00    -0.292 OA
ENDBRANCH   7  14
ENDBRANCH   2  10
ENDBRANCH   1   3
BRANCH   1  16
ATOM     16  C   UNL     1      -4.953  -6.468  -2.068  0.00  0.00    +0.173 C 
BRANCH  16  17
ATOM     17  C   UNL     1      -4.099  -7.371  -2.920  0.00  0.00    +0.229 C 
ATOM     18  O   UNL     1      -2.949  -7.071  -3.159  0.00  0.00    -0.275 OA
ATOM     19  N   UNL     1      -4.614  -8.514  -3.416  0.00  0.00    -0.264 N 
ATOM     20  C   UNL     1      -3.827  -9.348  -4.202  0.00  0.00    +0.165 A 
ATOM     21  N   UNL     1      -4.157 -10.487  -4.770  0.00  0.00    -0.229 NA
ATOM     22  C   UNL     1      -3.286 -11.167  -5.493  0.00  0.00    +0.056 A 
ATOM     23  C   UNL     1      -2.045 -10.637  -5.620  0.00  0.00    +0.072 A 
ATOM     24  S   UNL     1      -2.221  -9.140  -4.663  0.00  0.00    -0.060 S 
ATOM     25  H   UNL     1      -5.534  -8.754  -3.225  0.00  0.00    +0.157 HD
BRANCH  22  26
ATOM     26  C   UNL     1      -3.656 -12.473  -6.147  0.00  0.00    +0.005 C 
ATOM     27  C   UNL     1      -3.026 -13.630  -5.368  0.00  0.00    +0.017 C 
ATOM     28  C   UNL     1      -5.178 -12.629  -6.151  0.00  0.00    +0.017 C 
ATOM     29  C   UNL     1      -3.139 -12.487  -7.587  0.00  0.00    +0.017 C 
ENDBRANCH  22  26
ENDBRANCH  16  17
ENDBRANCH   1  16
TORSDOF 6
