REMARK  Name = ZINC59862569
REMARK  9 active torsions:
REMARK  status: ('A' for Active; 'I' for Inactive)
REMARK    1  A    between atoms: C_1  and  C_2
REMARK    2  A    between atoms: C_2  and  C_3
REMARK    3  A    between atoms: C_3  and  O_4
REMARK    4  A    between atoms: O_4  and  C_5
REMARK    5  A    between atoms: C_5  and  C_7
REMARK    6  A    between atoms: C_9  and  C_14
REMARK    7  A    between atoms: C_17  and  C_19
REMARK    8  A    between atoms: N_23  and  C_30
REMARK    9  A    between atoms: N_26  and  C_29
REMARK                            x       y       z     vdW  Elec       q    Type
REMARK                         _______ _______ _______ _____ _____    ______ ____
ROOT
ATOM      1  C   UNL     1      -0.010  -6.933   0.462  0.00  0.00    +0.136 A 
ATOM      2  C   UNL     1       0.285  -8.271   0.292  0.00  0.00    +0.050 A 
ATOM      3  C   UNL     1      -0.223  -8.648  -0.948  0.00  0.00    +0.050 A 
ATOM      4  C   UNL     1      -0.816  -7.518  -1.499  0.00  0.00    +0.129 A 
ATOM      5  O   UNL     1      -0.677  -6.500  -0.622  0.00  0.00    -0.455 OA
ENDROOT
BRANCH   4   6
ATOM      6  C   UNL     1      -1.453  -7.448  -2.745  0.00  0.00    +0.064 C 
ATOM      7  C   UNL     1      -1.331  -6.301  -3.526  0.00  0.00    +0.103 C 
ATOM      8  C   UNL     1      -0.388  -5.228  -3.172  0.00  0.00    +0.259 C 
ATOM      9  O   UNL     1       0.315  -5.315  -2.183  0.00  0.00    -0.269 OA
ATOM     10  N   UNL     1      -0.323  -4.146  -3.975  0.00  0.00    -0.225 N 
ATOM     11  C   UNL     1      -1.091  -4.037  -5.068  0.00  0.00    +0.317 C 
ATOM     12  O   UNL     1      -0.985  -3.037  -5.750  0.00  0.00    -0.252 OA
ATOM     13  N   UNL     1      -1.970  -4.975  -5.449  0.00  0.00    -0.225 N 
ATOM     14  C   UNL     1      -2.136  -6.113  -4.745  0.00  0.00    +0.259 C 
ATOM     15  O   UNL     1      -2.933  -6.960  -5.104  0.00  0.00    -0.269 OA
ATOM     16  C   UNL     1      -2.764  -4.762  -6.662  0.00  0.00    +0.143 C 
ATOM     17  C   UNL     1       0.608  -3.064  -3.644  0.00  0.00    +0.143 C 
ENDBRANCH   4   6
BRANCH   1  20
ATOM     18  C   UNL     1       0.315  -4.007   2.806  0.00  0.00    +0.078 A 
ATOM     19  C   UNL     1      -0.021  -4.771   1.690  0.00  0.00    +0.028 A 
ATOM     20  C   UNL     1       0.342  -6.117   1.639  0.00  0.00    +0.018 A 
ATOM     21  C   UNL     1       1.040  -6.691   2.706  0.00  0.00    +0.013 A 
ATOM     22  C   UNL     1       1.370  -5.929   3.808  0.00  0.00    +0.021 A 
ATOM     23  C   UNL     1       1.018  -4.593   3.864  0.00  0.00    +0.055 A 
ATOM     24 CL   UNL     1       1.445  -3.641   5.252  0.00  0.00    -0.083 Cl
BRANCH  18  25
ATOM     25  C   UNL     1      -0.066  -2.582   2.869  0.00  0.00    +0.341 C 
ATOM     26  O   UNL     1       0.232  -1.916   3.840  0.00  0.00    -0.245 OA
BRANCH  25  27
ATOM     27  O   UNL     1      -0.743  -2.020   1.849  0.00  0.00    -0.461 OA
BRANCH  27  28
ATOM     28  C   UNL     1      -1.079  -0.636   1.977  0.00  0.00    +0.232 C 
BRANCH  28  30
ATOM     29  C   UNL     1      -2.199   1.302   0.869  0.00  0.00    +0.007 C 
ATOM     30  C   UNL     1      -1.840  -0.179   0.731  0.00  0.00    +0.038 C 
ENDBRANCH  28  30
ENDBRANCH  27  28
ENDBRANCH  25  27
ENDBRANCH  18  25
ENDBRANCH   1  20
TORSDOF 6
