REMARK  Name = ZINC35842642
REMARK  20 active torsions:
REMARK  status: ('A' for Active; 'I' for Inactive)
REMARK    1  A    between atoms: C_1  and  C_2
REMARK    2  A    between atoms: C_2  and  C_3
REMARK    3  A    between atoms: C_2  and  C_4
REMARK    4  A    between atoms: C_4  and  C_6
REMARK    5  A    between atoms: C_4  and  O_38
REMARK    6  A    between atoms: C_6  and  N_7
REMARK    7  A    between atoms: N_7  and  C_8
REMARK    8  A    between atoms: N_7  and  C_35
REMARK    9  A    between atoms: C_8  and  C_9
REMARK   10  A    between atoms: N_11  and  C_12
REMARK   11  A    between atoms: N_11  and  C_24
REMARK   12  A    between atoms: C_12  and  C_13
REMARK   13  A    between atoms: C_13  and  C_14
REMARK   14  A    between atoms: C_24  and  C_25
REMARK   15  A    between atoms: C_28  and  C_31
REMARK   16  A    between atoms: C_31  and  C_32
REMARK   17  A    between atoms: C_31  and  C_33
REMARK   18  A    between atoms: C_31  and  C_34
REMARK   19  A    between atoms: C_35  and  C_36
REMARK   20  A    between atoms: C_35  and  C_37
REMARK                            x       y       z     vdW  Elec       q    Type
REMARK                         _______ _______ _______ _____ _____    ______ ____
ROOT
ATOM      1  C   UNL     1       4.989  -0.382  -3.653  0.00  0.00    +0.199 C 
ATOM      2  O   UNL     1       4.391  -0.994  -4.513  0.00  0.00    -0.278 OA
ATOM      3  N   UNL     1       6.306  -0.135  -3.794  0.00  0.00    -0.298 N 
ENDROOT
BRANCH   1   4
ATOM      4  C   UNL     1       4.258   0.102  -2.428  0.00  0.00    +0.019 C 
BRANCH   4   5
ATOM      5  N   UNL     1       2.890  -0.434  -2.429  0.00  0.00    +0.389 N 
ATOM      6  H   UNL     1       2.533  -0.442  -3.373  0.00  0.00    -0.081 HD
BRANCH   5   7
ATOM      7  C   UNL     1       2.900  -1.803  -1.897  0.00  0.00    -0.074 C 
ATOM      8  C   UNL     1       3.863  -2.662  -2.718  0.00  0.00    -0.014 C 
ATOM      9  C   UNL     1       3.356  -1.779  -0.437  0.00  0.00    -0.014 C 
ENDBRANCH   5   7
BRANCH   5  10
ATOM     10  C   UNL     1       2.031   0.412  -1.589  0.00  0.00    -0.046 C 
BRANCH  10  11
ATOM     11  C   UNL     1       0.575  -0.030  -1.741  0.00  0.00    +0.101 C 
BRANCH  11  13
ATOM     12  C   UNL     1      -0.161   2.356  -1.627  0.00  0.00    +0.010 C 
ATOM     13  C   UNL     1      -0.338   0.963  -1.018  0.00  0.00    +0.010 C 
ATOM     14  C   UNL     1      -1.795   0.521  -1.170  0.00  0.00    +0.010 C 
ENDBRANCH  11  13
BRANCH  11  15
ATOM     15  O   UNL     1       0.409  -1.330  -1.173  0.00  0.00    -0.393 OA
ATOM     16  H   UNL     1       0.546  -1.361  -0.216  0.00  0.00    +0.210 HD
ENDBRANCH  11  15
ENDBRANCH  10  11
ENDBRANCH   5  10
ENDBRANCH   4   5
ENDBRANCH   1   4
BRANCH   3  17
ATOM     17  C   UNL     1       7.027   0.604  -2.755  0.00  0.00    +0.113 C 
BRANCH  17  18
ATOM     18  C   UNL     1       7.583  -0.378  -1.722  0.00  0.00    +0.056 C 
BRANCH  18  19
ATOM     19  C   UNL     1       8.325   0.383  -0.653  0.00  0.00    -0.021 A 
ATOM     20  C   UNL     1       9.645   0.624  -0.616  0.00  0.00    +0.087 A 
ATOM     21  N   UNL     1       9.956   1.344   0.505  0.00  0.00    -0.360 N 
ATOM     22  H   UNL     1      10.848   1.638   0.749  0.00  0.00    +0.165 HD
ATOM     23  C   UNL     1       8.815   1.590   1.235  0.00  0.00    +0.047 A 
ATOM     24  C   UNL     1       7.742   1.004   0.538  0.00  0.00    +0.003 A 
ATOM     25  C   UNL     1       6.445   1.101   1.046  0.00  0.00    +0.010 A 
ATOM     26  C   UNL     1       6.224   1.768   2.218  0.00  0.00    +0.001 A 
ATOM     27  C   UNL     1       7.278   2.352   2.907  0.00  0.00    +0.002 A 
ATOM     28  C   UNL     1       8.567   2.260   2.428  0.00  0.00    +0.026 A 
ENDBRANCH  18  19
ENDBRANCH  17  18
ENDBRANCH   3  17
BRANCH   3  29
ATOM     29  C   UNL     1       7.016  -0.606  -4.985  0.00  0.00    +0.142 C 
BRANCH  29  30
ATOM     30  C   UNL     1       6.960   0.454  -6.055  0.00  0.00    -0.030 A 
ATOM     31  C   UNL     1       5.916   0.468  -6.960  0.00  0.00    +0.005 A 
ATOM     32  C   UNL     1       5.864   1.440  -7.942  0.00  0.00    +0.004 A 
ATOM     33  C   UNL     1       6.858   2.398  -8.018  0.00  0.00    -0.042 A 
ATOM     34  C   UNL     1       7.902   2.385  -7.112  0.00  0.00    +0.004 A 
ATOM     35  C   UNL     1       7.951   1.415  -6.128  0.00  0.00    +0.005 A 
BRANCH  33  36
ATOM     36  C   UNL     1       6.802   3.458  -9.088  0.00  0.00    -0.013 C 
ATOM     37  C   UNL     1       5.515   4.270  -8.935  0.00  0.00    +0.015 C 
ATOM     38  C   UNL     1       8.011   4.386  -8.950  0.00  0.00    +0.015 C 
ATOM     39  C   UNL     1       6.825   2.792 -10.466  0.00  0.00    +0.015 C 
ENDBRANCH  33  36
ENDBRANCH  29  30
ENDBRANCH   3  29
TORSDOF 13
