REMARK  Name = ZINC12494076
REMARK  4 active torsions:
REMARK  status: ('A' for Active; 'I' for Inactive)
REMARK    1  A    between atoms: C_2  and  N_11
REMARK    2  A    between atoms: C_12  and  C_14
REMARK    3  A    between atoms: C_14  and  S_15
REMARK    4  A    between atoms: S_15  and  C_16
REMARK                            x       y       z     vdW  Elec       q    Type
REMARK                         _______ _______ _______ _____ _____    ______ ____
ROOT
ATOM      1  S   UNL     1       4.769   4.482  -0.054  0.00  0.00    -0.078 S 
ENDROOT
BRANCH   1   2
ATOM      2  C   UNL     1       3.769   3.031  -0.059  0.00  0.00    +0.170 A 
ATOM      3  N   UNL     1       4.383   1.815  -0.084  0.00  0.00    -0.301 N 
ATOM      4  H   UNL     1       5.352   1.786  -0.099  0.00  0.00    +0.171 HD
ATOM      5  C   UNL     1       3.701   0.646  -0.089  0.00  0.00    +0.261 A 
ATOM      6  O   UNL     1       4.268  -0.433  -0.110  0.00  0.00    -0.267 OA
ATOM      7  C   UNL     1       2.272   0.754  -0.066  0.00  0.00    +0.075 A 
ATOM      8  C   UNL     1       1.317  -0.342  -0.067  0.00  0.00    -0.023 A 
ATOM      9  C   UNL     1       0.008  -0.006  -0.044  0.00  0.00    -0.004 A 
ATOM     10  S   UNL     1      -0.018   1.769  -0.021  0.00  0.00    -0.073 S 
ATOM     11  C   UNL     1       1.724   2.057  -0.042  0.00  0.00    +0.117 A 
ATOM     12  N   UNL     1       2.450   3.167  -0.038  0.00  0.00    -0.216 NA
ATOM     13  C   UNL     1      -1.167  -0.935  -0.041  0.00  0.00    +0.043 C 
ATOM     14  C   UNL     1      -0.682  -2.336  -0.440  0.00  0.00    +0.005 C 
ATOM     15  C   UNL     1       0.570  -2.671   0.377  0.00  0.00    +0.005 C 
ATOM     16  C   UNL     1       1.742  -1.808  -0.091  0.00  0.00    +0.037 C 
ENDBRANCH   1   2
BRANCH   1  17
ATOM     17  C   UNL     1       3.480   5.752  -0.019  0.00  0.00    +0.173 C 
BRANCH  17  19
ATOM     18  N   UNL     1       3.348   8.222   0.016  0.00  0.00    -0.279 N 
ATOM     19  C   UNL     1       4.119   7.117  -0.010  0.00  0.00    +0.228 C 
ATOM     20  O   UNL     1       5.327   7.220  -0.026  0.00  0.00    -0.275 OA
ATOM     21  H   UNL     1       2.383   8.141  -0.040  0.00  0.00    +0.155 HD
BRANCH  18  23
ATOM     22  C   UNL     1       3.643  10.304   1.164  0.00  0.00    +0.116 A 
ATOM     23  C   UNL     1       3.942   9.492   0.123  0.00  0.00    +0.115 A 
ATOM     24  C   UNL     1       4.862   9.943  -0.861  0.00  0.00    +0.275 A 
ATOM     25  O   UNL     1       5.144   9.233  -1.810  0.00  0.00    -0.266 OA
ATOM     26  N   UNL     1       5.418  11.165  -0.736  0.00  0.00    -0.274 N 
ATOM     27  H   UNL     1       6.066  11.489  -1.425  0.00  0.00    +0.173 HD
ATOM     28  C   UNL     1       5.106  11.950   0.312  0.00  0.00    +0.327 A 
ATOM     29  O   UNL     1       5.617  13.049   0.410  0.00  0.00    -0.247 OA
ATOM     30  N   UNL     1       4.237  11.537   1.253  0.00  0.00    -0.313 N 
ATOM     31  H   UNL     1       4.023  12.136   2.025  0.00  0.00    +0.170 HD
ENDBRANCH  18  23
ENDBRANCH  17  19
ENDBRANCH   1  17
TORSDOF 4
