REMARK  Name = ZINC17062007
REMARK  2 active torsions:
REMARK  status: ('A' for Active; 'I' for Inactive)
REMARK    1  A    between atoms: C_6  and  C_7
REMARK    2  A    between atoms: C_8  and  C_9
REMARK                            x       y       z     vdW  Elec       q    Type
REMARK                         _______ _______ _______ _____ _____    ______ ____
ROOT
ATOM      1  C   UNL     1      -3.423   3.670  -0.062  0.00  0.00    +0.084 A 
ATOM      2  C   UNL     1      -3.271   2.291   0.181  0.00  0.00    +0.139 A 
ATOM      3  N   UNL     1      -2.126   1.695  -0.056  0.00  0.00    -0.246 NA
ATOM      4  C   UNL     1      -1.100   2.398  -0.535  0.00  0.00    +0.147 A 
ATOM      5  C   UNL     1       0.157   1.796  -0.800  0.00  0.00    +0.149 A 
ATOM      6  N   UNL     1       1.134   2.557  -1.271  0.00  0.00    -0.198 NA
ATOM      7  C   UNL     1       0.956   3.856  -1.490  0.00  0.00    +0.216 A 
ATOM      8  N   UNL     1      -0.190   4.468  -1.257  0.00  0.00    -0.193 NA
ATOM      9  C   UNL     1      -1.241   3.787  -0.779  0.00  0.00    +0.186 A 
ATOM     10  N   UNL     1      -2.408   4.385  -0.535  0.00  0.00    -0.225 NA
ATOM     11  N   UNL     1       2.014   4.596  -1.983  0.00  0.00    -0.327 N 
ATOM     12  N   UNL     1       0.356   0.450  -0.578  0.00  0.00    -0.341 N 
ATOM     13  H   UNL     1       2.892   4.192  -2.065  0.00  0.00    +0.145 HD
ATOM     14  H   UNL     1       1.879   5.520  -2.246  0.00  0.00    +0.145 HD
ATOM     15  H   UNL     1       1.219   0.049  -0.767  0.00  0.00    +0.144 HD
ATOM     16  H   UNL     1      -0.368  -0.097  -0.233  0.00  0.00    +0.144 HD
ENDROOT
BRANCH   1  18
ATOM     17  C   UNL     1      -4.751   5.480   0.893  0.00  0.00    +0.010 C 
ATOM     18  C   UNL     1      -4.713   4.323   0.209  0.00  0.00    +0.030 C 
BRANCH  17  24
ATOM     19  C   UNL     1      -2.560   5.136   2.022  0.00  0.00    +0.009 A 
ATOM     20  C   UNL     1      -1.413   5.639   2.599  0.00  0.00    +0.022 A 
ATOM     21  C   UNL     1      -1.214   7.008   2.673  0.00  0.00    +0.059 A 
ATOM     22  C   UNL     1      -2.165   7.881   2.168  0.00  0.00    +0.060 A 
ATOM     23  C   UNL     1      -3.314   7.391   1.582  0.00  0.00    +0.029 A 
ATOM     24  C   UNL     1      -3.523   6.011   1.510  0.00  0.00    -0.024 A 
ATOM     25 CL   UNL     1      -1.906   9.595   2.266  0.00  0.00    -0.082 Cl
ATOM     26 CL   UNL     1       0.233   7.632   3.401  0.00  0.00    -0.082 Cl
ENDBRANCH  17  24
ENDBRANCH   1  18
TORSDOF 2
