REMARK  Name = ZINC64225106
REMARK  9 active torsions:
REMARK  status: ('A' for Active; 'I' for Inactive)
REMARK    1  A    between atoms: C_1  and  N_2
REMARK    2  A    between atoms: N_2  and  C_3
REMARK    3  A    between atoms: N_2  and  C_4
REMARK    4  A    between atoms: C_4  and  C_5
REMARK    5  A    between atoms: C_4  and  C_21
REMARK    6  A    between atoms: C_5  and  N_6
REMARK    7  A    between atoms: N_9  and  N_10
REMARK    8  A    between atoms: C_11  and  C_13
REMARK    9  A    between atoms: C_16  and  C_19
REMARK                            x       y       z     vdW  Elec       q    Type
REMARK                         _______ _______ _______ _____ _____    ______ ____
ROOT
ATOM      1  N   UNL     1      -1.766   1.531  -1.169  0.00  0.00    -0.299 N 
ATOM      2  C   UNL     1      -2.260   2.263  -2.188  0.00  0.00    +0.316 C 
ATOM      3  O   UNL     1      -2.936   1.731  -3.047  0.00  0.00    -0.251 OA
ATOM      4  N   UNL     1      -2.004   3.585  -2.254  0.00  0.00    -0.218 N 
ATOM      5  H   UNL     1      -1.227   1.956  -0.484  0.00  0.00    +0.150 HD
ATOM      6  H   UNL     1      -2.360   4.111  -2.987  0.00  0.00    +0.174 HD
ENDROOT
BRANCH   4   7
ATOM      7  N   UNL     1      -1.225   4.198  -1.264  0.00  0.00    -0.229 N 
ATOM      8  C   UNL     1      -0.969   5.519  -1.330  0.00  0.00    +0.260 C 
ATOM      9  O   UNL     1      -1.415   6.179  -2.248  0.00  0.00    -0.269 OA
ATOM     10  H   UNL     1      -0.870   3.671  -0.531  0.00  0.00    +0.173 HD
BRANCH   8  11
ATOM     11  C   UNL     1      -0.146   6.167  -0.285  0.00  0.00    +0.038 A 
ATOM     12  C   UNL     1       0.370   5.407   0.767  0.00  0.00    +0.014 A 
ATOM     13  C   UNL     1       1.136   6.010   1.740  0.00  0.00    +0.019 A 
ATOM     14  C   UNL     1       1.397   7.380   1.674  0.00  0.00    +0.052 A 
ATOM     15  C   UNL     1       0.880   8.140   0.622  0.00  0.00    +0.019 A 
ATOM     16  C   UNL     1       0.118   7.536  -0.354  0.00  0.00    +0.014 A 
BRANCH  14  17
ATOM     17  C   UNL     1       2.193   8.007   2.686  0.00  0.00    +0.099 C 
ATOM     18  N   UNL     1       2.824   8.504   3.489  0.00  0.00    -0.191 NA
ENDBRANCH  14  17
ENDBRANCH   8  11
ENDBRANCH   4   7
BRANCH   1  19
ATOM     19  C   UNL     1      -2.044   0.095  -1.098  0.00  0.00    +0.095 C 
BRANCH  19  20
ATOM     20  C   UNL     1      -1.282  -0.514   0.081  0.00  0.00    -0.021 C 
BRANCH  20  21
ATOM     21  C   UNL     1      -1.800   0.069   1.370  0.00  0.00    -0.059 A 
ATOM     22  C   UNL     1      -2.969  -0.416   1.927  0.00  0.00    +0.005 A 
ATOM     23  C   UNL     1      -3.445   0.118   3.109  0.00  0.00    +0.038 A 
ATOM     24  C   UNL     1      -2.751   1.140   3.736  0.00  0.00    +0.123 A 
ATOM     25  C   UNL     1      -1.581   1.625   3.177  0.00  0.00    +0.038 A 
ATOM     26  C   UNL     1      -1.103   1.085   1.998  0.00  0.00    +0.005 A 
ATOM     27  F   UNL     1      -3.216   1.663   4.892  0.00  0.00    -0.205 F 
ENDBRANCH  20  21
BRANCH  20  29
ATOM     28  C   UNL     1      -0.968  -2.539  -1.166  0.00  0.00    -0.096 C 
ATOM     29  N   UNL     1      -1.475  -1.970   0.090  0.00  0.00    +0.382 N 
ATOM     30  C   UNL     1      -0.744  -2.555   1.222  0.00  0.00    -0.096 C 
ATOM     31  H   UNL     1      -2.458  -2.178   0.181  0.00  0.00    -0.082 HD
ENDBRANCH  20  29
ENDBRANCH  19  20
ENDBRANCH   1  19
TORSDOF 7
