REMARK  Name = ZINC63098847
REMARK  7 active torsions:
REMARK  status: ('A' for Active; 'I' for Inactive)
REMARK    1  A    between atoms: C_1  and  C_2
REMARK    2  A    between atoms: C_6  and  C_29
REMARK    3  A    between atoms: C_7  and  N_8
REMARK    4  A    between atoms: C_9  and  C_11
REMARK    5  A    between atoms: C_11  and  C_13
REMARK    6  A    between atoms: C_11  and  N_14
REMARK    7  A    between atoms: C_17  and  C_20
REMARK                            x       y       z     vdW  Elec       q    Type
REMARK                         _______ _______ _______ _____ _____    ______ ____
ROOT
ATOM      1  N   UNL     1      -0.979  -0.878   5.915  0.00  0.00    +0.387 N 
ATOM      2  C   UNL     1       0.205  -1.711   6.158  0.00  0.00    -0.077 C 
ATOM      3  C   UNL     1      -0.122  -2.773   7.210  0.00  0.00    -0.011 C 
ATOM      4  C   UNL     1      -0.538  -2.083   8.512  0.00  0.00    +0.014 C 
ATOM      5  C   UNL     1      -1.727  -1.159   8.231  0.00  0.00    -0.011 C 
ATOM      6  C   UNL     1      -1.341  -0.157   7.141  0.00  0.00    -0.077 C 
ATOM      7  H   UNL     1      -1.749  -1.465   5.631  0.00  0.00    -0.081 HD
ENDROOT
BRANCH   4   8
ATOM      8  C   UNL     1      -0.937  -3.122   9.528  0.00  0.00    -0.039 C 
ATOM      9  C   UNL     1      -0.376  -3.330  10.742  0.00  0.00    -0.001 A 
ATOM     10  C   UNL     1       0.730  -2.676  11.451  0.00  0.00    +0.010 A 
ATOM     11  C   UNL     1       1.070  -3.116  12.683  0.00  0.00    +0.001 A 
ATOM     12  C   UNL     1       0.395  -4.179  13.299  0.00  0.00    +0.002 A 
ATOM     13  C   UNL     1      -0.632  -4.829  12.710  0.00  0.00    +0.026 A 
ATOM     14  C   UNL     1      -1.074  -4.449  11.413  0.00  0.00    +0.043 A 
ATOM     15  N   UNL     1      -2.029  -4.916  10.645  0.00  0.00    -0.380 N 
ATOM     16  C   UNL     1      -2.048  -4.140   9.400  0.00  0.00    +0.145 C 
ATOM     17  H   UNL     1      -2.625  -5.649  10.865  0.00  0.00    +0.160 HD
ENDBRANCH   4   8
BRANCH   1  18
ATOM     18  C   UNL     1      -0.684   0.090   4.849  0.00  0.00    +0.016 C 
ATOM     19  C   UNL     1      -1.913   0.968   4.604  0.00  0.00    -0.004 C 
BRANCH  18  21
ATOM     20  N   UNL     1       0.483  -0.080   2.675  0.00  0.00    -0.286 N 
ATOM     21  C   UNL     1      -0.334  -0.649   3.583  0.00  0.00    +0.203 C 
ATOM     22  O   UNL     1      -0.787  -1.756   3.381  0.00  0.00    -0.277 OA
ATOM     23  H   UNL     1       0.883   0.785   2.857  0.00  0.00    +0.155 HD
BRANCH  20  30
ATOM     24  C   UNL     1       3.184  -0.198   1.788  0.00  0.00    +0.045 C 
ATOM     25  C   UNL     1       2.059  -0.817   1.000  0.00  0.00    -0.029 A 
ATOM     26  C   UNL     1       2.324  -1.471  -0.188  0.00  0.00    +0.005 A 
ATOM     27  C   UNL     1       1.292  -2.039  -0.911  0.00  0.00    +0.001 A 
ATOM     28  C   UNL     1      -0.009  -1.955  -0.449  0.00  0.00    +0.005 A 
ATOM     29  C   UNL     1      -0.281  -1.303   0.738  0.00  0.00    -0.029 A 
ATOM     30  C   UNL     1       0.755  -0.736   1.470  0.00  0.00    +0.039 A 
ATOM     31  C   UNL     1      -1.698  -1.211   1.240  0.00  0.00    +0.045 C 
ENDBRANCH  20  30
ENDBRANCH  18  21
ENDBRANCH   1  18
TORSDOF 4
