REMARK  Name = ZINC20176004
REMARK  10 active torsions:
REMARK  status: ('A' for Active; 'I' for Inactive)
REMARK    1  A    between atoms: C_1  and  C_2
REMARK    2  A    between atoms: C_2  and  O_3
REMARK    3  A    between atoms: O_3  and  C_4
REMARK    4  A    between atoms: C_6  and  C_19
REMARK    5  A    between atoms: C_9  and  O_10
REMARK    6  A    between atoms: O_10  and  C_11
REMARK    7  A    between atoms: C_11  and  C_12
REMARK    8  A    between atoms: C_22  and  C_33
REMARK    9  A    between atoms: C_28  and  N_32
REMARK   10  A    between atoms: C_29  and  C_30
REMARK                            x       y       z     vdW  Elec       q    Type
REMARK                         _______ _______ _______ _____ _____    ______ ____
ROOT
ATOM      1  C   UNL     1      -0.217  -4.963  -0.535  0.00  0.00    +0.102 C 
ATOM      2  C   UNL     1       0.868  -5.826  -1.124  0.00  0.00    +0.054 A 
ATOM      3  C   UNL     1       1.897  -5.477  -2.004  0.00  0.00    +0.100 A 
ATOM      4  N   UNL     1       2.610  -6.561  -2.247  0.00  0.00    -0.171 NA
ATOM      5  N   UNL     1       2.051  -7.628  -1.526  0.00  0.00    -0.246 N 
ATOM      6  H   UNL     1       2.374  -8.542  -1.518  0.00  0.00    +0.192 HD
ATOM      7  C   UNL     1       0.985  -7.157  -0.846  0.00  0.00    +0.223 A 
ATOM      8  O   UNL     1       0.131  -7.810  -0.018  0.00  0.00    -0.423 OA
ATOM      9  C   UNL     1      -1.013  -7.181   0.321  0.00  0.00    +0.200 C 
ATOM     10  C   UNL     1      -1.241  -5.865   0.108  0.00  0.00    +0.098 C 
ENDROOT
BRANCH   1  13
ATOM     11  C   UNL     1       0.802  -1.825   1.306  0.00  0.00    +0.162 A 
ATOM     12  C   UNL     1       0.261  -2.673   0.353  0.00  0.00    +0.054 A 
ATOM     13  C   UNL     1       0.372  -4.043   0.502  0.00  0.00    -0.031 A 
ATOM     14  C   UNL     1       1.024  -4.570   1.602  0.00  0.00    +0.008 A 
ATOM     15  C   UNL     1       1.566  -3.730   2.557  0.00  0.00    +0.050 A 
ATOM     16  C   UNL     1       1.462  -2.356   2.410  0.00  0.00    +0.162 A 
BRANCH  11  17
ATOM     17  O   UNL     1       0.693  -0.477   1.160  0.00  0.00    -0.489 OA
BRANCH  17  19
ATOM     18  C   UNL     1      -0.019   1.526   0.010  0.00  0.00    +0.048 C 
ATOM     19  C   UNL     1       0.002  -0.004   0.002  0.00  0.00    +0.226 C 
ENDBRANCH  17  19
ENDBRANCH  11  17
BRANCH  16  20
ATOM     20  O   UNL     1       2.000  -1.528   3.345  0.00  0.00    -0.484 OA
BRANCH  20  21
ATOM     21  C   UNL     1       2.664  -2.143   4.451  0.00  0.00    +0.264 C 
BRANCH  21  22
ATOM     22  C   UNL     1       3.191  -1.077   5.376  0.00  0.00    -0.008 A 
ATOM     23  C   UNL     1       4.463  -0.566   5.189  0.00  0.00    +0.007 A 
ATOM     24  C   UNL     1       4.948   0.411   6.036  0.00  0.00    +0.003 A 
ATOM     25  C   UNL     1       4.163   0.880   7.073  0.00  0.00    +0.038 A 
ATOM     26  C   UNL     1       2.890   0.370   7.262  0.00  0.00    +0.124 A 
ATOM     27  C   UNL     1       2.403  -0.606   6.408  0.00  0.00    +0.045 A 
ATOM     28  F   UNL     1       2.123   0.827   8.275  0.00  0.00    -0.205 F 
ENDBRANCH  21  22
ENDBRANCH  20  21
ENDBRANCH  16  20
ENDBRANCH   1  13
BRANCH   3  29
ATOM     29  C   UNL     1       2.143  -4.126  -2.567  0.00  0.00    +0.003 A 
ATOM     30  C   UNL     1       1.071  -3.288  -2.868  0.00  0.00    +0.010 A 
ATOM     31  C   UNL     1       1.306  -2.032  -3.391  0.00  0.00    +0.001 A 
ATOM     32  C   UNL     1       2.603  -1.606  -3.617  0.00  0.00    +0.000 A 
ATOM     33  C   UNL     1       3.670  -2.434  -3.321  0.00  0.00    +0.001 A 
ATOM     34  C   UNL     1       3.447  -3.689  -2.791  0.00  0.00    +0.010 A 
ENDBRANCH   3  29
BRANCH   9  35
ATOM     35  N   UNL     1      -2.005  -7.920   0.917  0.00  0.00    -0.328 N 
ATOM     36  H   UNL     1      -1.872  -8.866   1.083  0.00  0.00    +0.145 HD
ATOM     37  H   UNL     1      -2.839  -7.495   1.172  0.00  0.00    +0.145 HD
ENDBRANCH   9  35
BRANCH  10  38
ATOM     38  C   UNL     1      -2.498  -5.308   0.506  0.00  0.00    +0.101 C 
ATOM     39  N   UNL     1      -3.496  -4.865   0.822  0.00  0.00    -0.191 NA
ENDBRANCH  10  38
TORSDOF 9
