REMARK  Name = ZINC17044478
REMARK  4 active torsions:
REMARK  status: ('A' for Active; 'I' for Inactive)
REMARK    1  A    between atoms: C_1  and  C_2
REMARK    2  A    between atoms: C_15  and  C_37
REMARK    3  A    between atoms: N_27  and  C_30
REMARK    4  A    between atoms: C_30  and  C_31
REMARK                            x       y       z     vdW  Elec       q    Type
REMARK                         _______ _______ _______ _____ _____    ______ ____
ROOT
ATOM      1  C   UNL     1      -0.018   1.503   0.010  0.00  0.00    +0.044 C 
ATOM      2  C   UNL     1       0.002  -0.004   0.002  0.00  0.00    -0.050 A 
ATOM      3  C   UNL     1       0.023  -0.698   1.210  0.00  0.00    +0.005 A 
ATOM      4  C   UNL     1       0.041  -2.059   1.237  0.00  0.00    +0.026 A 
ATOM      5  C   UNL     1       0.040  -2.781   0.031  0.00  0.00    +0.048 A 
ATOM      6  C   UNL     1       0.017  -2.073  -1.195  0.00  0.00    -0.001 A 
ATOM      7  C   UNL     1      -0.006  -0.670  -1.186  0.00  0.00    +0.013 A 
ATOM      8  C   UNL     1       0.015  -2.801  -2.399  0.00  0.00    +0.017 A 
ATOM      9  C   UNL     1       0.037  -4.167  -2.341  0.00  0.00    -0.007 A 
ATOM     10  C   UNL     1       0.056  -4.815  -1.102  0.00  0.00    +0.103 A 
ATOM     11  N   UNL     1       0.059  -4.115   0.025  0.00  0.00    -0.343 N 
ATOM     12  N   UNL     1       0.068  -6.195  -0.981  0.00  0.00    -0.312 N 
ATOM     13  C   UNL     1       0.854  -6.613   0.188  0.00  0.00    +0.107 C 
ATOM     14  C   UNL     1       0.660  -8.113   0.423  0.00  0.00    +0.022 C 
ATOM     15  C   UNL     1       1.108  -8.883  -0.822  0.00  0.00    -0.011 C 
ATOM     16  C   UNL     1       0.304  -8.395  -2.031  0.00  0.00    +0.027 C 
ATOM     17  C   UNL     1       0.504  -6.886  -2.193  0.00  0.00    +0.099 C 
ATOM     18  C   UNL     1      -0.330  -6.390  -3.380  0.00  0.00    +0.146 C 
ATOM     19  C   UNL     1       0.046  -4.929  -3.642  0.00  0.00    +0.066 C 
ATOM     20  C   UNL     1      -0.015  -7.217  -4.594  0.00  0.00    +0.238 C 
ATOM     21  O   UNL     1       1.126  -7.252  -5.003  0.00  0.00    -0.274 OA
ATOM     22  N   UNL     1      -0.960  -7.916  -5.239  0.00  0.00    -0.239 N 
ATOM     23  C   UNL     1      -2.240  -7.918  -4.837  0.00  0.00    +0.315 C 
ATOM     24  O   UNL     1      -3.055  -8.570  -5.459  0.00  0.00    -0.252 OA
ATOM     25  N   UNL     1      -2.642  -7.219  -3.765  0.00  0.00    -0.220 N 
ATOM     26  C   UNL     1      -1.790  -6.481  -3.039  0.00  0.00    +0.240 C 
ATOM     27  O   UNL     1      -2.210  -5.869  -2.081  0.00  0.00    -0.274 OA
ATOM     28  C   UNL     1       2.598  -8.636  -1.067  0.00  0.00    +0.007 C 
ATOM     29  H   UNL     1      -0.695  -8.511  -6.126  0.00  0.00    +0.159 HD
ATOM     30  H   UNL     1       0.079  -4.669   0.976  0.00  0.00    +0.167 HD
ENDROOT
BRANCH  25  31
ATOM     31  C   UNL     1      -4.054  -7.263  -3.376  0.00  0.00    +0.153 C 
BRANCH  31  32
ATOM     32  C   UNL     1      -4.802  -6.157  -4.074  0.00  0.00    -0.030 A 
ATOM     33  C   UNL     1      -4.920  -4.917  -3.474  0.00  0.00    +0.005 A 
ATOM     34  C   UNL     1      -5.603  -3.901  -4.117  0.00  0.00    +0.000 A 
ATOM     35  C   UNL     1      -6.175  -4.127  -5.355  0.00  0.00    +0.000 A 
ATOM     36  C   UNL     1      -6.061  -5.369  -5.952  0.00  0.00    +0.000 A 
ATOM     37  C   UNL     1      -5.375  -6.383  -5.312  0.00  0.00    +0.005 A 
ENDBRANCH  31  32
ENDBRANCH  25  31
TORSDOF 2
