REMARK  Name = ZINC15675209
REMARK  8 active torsions:
REMARK  status: ('A' for Active; 'I' for Inactive)
REMARK    1  A    between atoms: C_10  and  C_12
REMARK    2  A    between atoms: C_12  and  C_13
REMARK    3  A    between atoms: C_15  and  O_32
REMARK    4  A    between atoms: C_17  and  O_31
REMARK    5  A    between atoms: C_19  and  C_22
REMARK    6  A    between atoms: C_22  and  N_53
REMARK    7  A    between atoms: C_23  and  C_24
REMARK    8  A    between atoms: C_23  and  N_53
REMARK                            x       y       z     vdW  Elec       q    Type
REMARK                         _______ _______ _______ _____ _____    ______ ____
ROOT
ATOM      1  C   UNL     1       4.219   7.319  -4.660  0.00  0.00    +0.158 C 
ATOM      2  C   UNL     1       5.730   7.318  -4.355  0.00  0.00    +0.174 C 
ATOM      3  C   UNL     1       5.837   6.635  -2.970  0.00  0.00    +0.172 C 
ATOM      4  C   UNL     1       4.502   5.853  -2.889  0.00  0.00    +0.133 C 
ATOM      5  O   UNL     1       3.554   6.738  -3.526  0.00  0.00    -0.369 OA
ENDROOT
BRANCH   3   6
ATOM      6  O   UNL     1       6.953   5.743  -2.927  0.00  0.00    -0.387 OA
ATOM      7  H   UNL     1       7.812   6.185  -2.974  0.00  0.00    +0.210 HD
ENDBRANCH   3   6
BRANCH   2   8
ATOM      8  O   UNL     1       6.439   6.565  -5.341  0.00  0.00    -0.387 OA
ATOM      9  H   UNL     1       7.394   6.531  -5.198  0.00  0.00    +0.210 HD
ENDBRANCH   2   8
BRANCH   1  10
ATOM     10  C   UNL     1       3.732   8.754  -4.870  0.00  0.00    +0.130 C 
BRANCH  10  20
ATOM     11  C   UNL     1       2.960  13.840  -5.352  0.00  0.00    +0.000 A 
ATOM     12  C   UNL     1       3.880  12.854  -5.045  0.00  0.00    +0.002 A 
ATOM     13  C   UNL     1       3.511  11.527  -5.078  0.00  0.00    +0.024 A 
ATOM     14  C   UNL     1       2.206  11.167  -5.419  0.00  0.00    +0.039 A 
ATOM     15  C   UNL     1       1.292  12.162  -5.725  0.00  0.00    -0.024 A 
ATOM     16  C   UNL     1       1.667  13.492  -5.691  0.00  0.00    +0.005 A 
ATOM     17  C   UNL     1      -0.033  11.513  -6.056  0.00  0.00    +0.056 C 
ATOM     18  C   UNL     1       0.227  10.005  -5.910  0.00  0.00    +0.118 C 
ATOM     19  N   UNL     1       1.632   9.895  -5.510  0.00  0.00    -0.271 N 
ATOM     20  C   UNL     1       2.279   8.737  -5.271  0.00  0.00    +0.222 C 
ATOM     21  O   UNL     1       1.691   7.681  -5.377  0.00  0.00    -0.275 OA
ENDBRANCH  10  20
ENDBRANCH   1  10
BRANCH   4  22
ATOM     22  C   UNL     1       4.111   5.604  -1.431  0.00  0.00    -0.048 C 
BRANCH  22  23
ATOM     23  N   UNL     1       2.844   4.848  -1.393  0.00  0.00    +0.383 N 
ATOM     24  H   UNL     1       2.969   3.953  -1.878  0.00  0.00    -0.085 HD
ATOM     25  H   UNL     1       2.111   5.393  -1.862  0.00  0.00    -0.085 HD
BRANCH  23  26
ATOM     26  C   UNL     1       2.442   4.593   0.004  0.00  0.00    -0.047 C 
BRANCH  26  27
ATOM     27  C   UNL     1       1.148   3.822   0.012  0.00  0.00    -0.063 A 
ATOM     28  C   UNL     1      -0.059   4.497   0.027  0.00  0.00    +0.002 A 
ATOM     29  C   UNL     1      -1.247   3.789   0.035  0.00  0.00    +0.002 A 
ATOM     30  C   UNL     1      -1.229   2.407   0.021  0.00  0.00    +0.020 A 
ATOM     31  C   UNL     1      -0.021   1.732   0.012  0.00  0.00    +0.041 A 
ATOM     32  C   UNL     1       1.167   2.440   0.004  0.00  0.00    +0.021 A 
ATOM     33 CL   UNL     1       0.002  -0.004   0.002  0.00  0.00    -0.084 Cl
ENDBRANCH  26  27
ENDBRANCH  23  26
ENDBRANCH  22  23
ENDBRANCH   4  22
TORSDOF 8
