REMARK  Name = ZINC36203179
REMARK  11 active torsions:
REMARK  status: ('A' for Active; 'I' for Inactive)
REMARK    1  A    between atoms: C_1  and  C_2
REMARK    2  A    between atoms: C_7  and  C_8
REMARK    3  A    between atoms: C_8  and  N_9
REMARK    4  A    between atoms: N_9  and  C_10
REMARK    5  A    between atoms: N_9  and  C_16
REMARK    6  A    between atoms: C_10  and  C_11
REMARK    7  A    between atoms: C_16  and  C_17
REMARK    8  A    between atoms: C_20  and  C_22
REMARK    9  A    between atoms: C_22  and  C_23
REMARK   10  A    between atoms: C_22  and  C_28
REMARK   11  A    between atoms: C_22  and  O_33
REMARK                            x       y       z     vdW  Elec       q    Type
REMARK                         _______ _______ _______ _____ _____    ______ ____
ROOT
ATOM      1  C   UNL     1      -0.745   2.755   3.817  0.00  0.00    +0.089 A 
ATOM      2  C   UNL     1      -1.460   3.829   3.436  0.00  0.00    +0.043 A 
ATOM      3  C   UNL     1      -0.542   4.887   3.248  0.00  0.00    +0.048 A 
ATOM      4  C   UNL     1       0.680   4.397   3.525  0.00  0.00    +0.147 A 
ATOM      5  O   UNL     1       0.550   3.107   3.874  0.00  0.00    -0.463 OA
ENDROOT
BRANCH   1   6
ATOM      6  C   UNL     1      -1.302   1.391   4.132  0.00  0.00    -0.002 C 
BRANCH   6   7
ATOM      7  N   UNL     1      -1.450   0.623   2.888  0.00  0.00    +0.392 N 
ATOM      8  H   UNL     1      -2.016   1.146   2.236  0.00  0.00    -0.080 HD
BRANCH   7   9
ATOM      9  C   UNL     1      -0.125   0.380   2.302  0.00  0.00    -0.042 C 
BRANCH   9  16
ATOM     10  C   UNL     1      -0.795   1.936  -0.039  0.00  0.00    +0.044 C 
ATOM     11  C   UNL     1      -0.604   0.445  -0.154  0.00  0.00    -0.049 A 
ATOM     12  C   UNL     1      -0.744  -0.177  -1.380  0.00  0.00    +0.003 A 
ATOM     13  C   UNL     1      -0.569  -1.544  -1.486  0.00  0.00    +0.000 A 
ATOM     14  C   UNL     1      -0.253  -2.289  -0.365  0.00  0.00    +0.000 A 
ATOM     15  C   UNL     1      -0.113  -1.667   0.861  0.00  0.00    +0.002 A 
ATOM     16  C   UNL     1      -0.284  -0.299   0.966  0.00  0.00    -0.061 A 
ENDBRANCH   9  16
ENDBRANCH   7   9
BRANCH   7  17
ATOM     17  C   UNL     1      -2.100  -0.661   3.180  0.00  0.00    -0.002 C 
BRANCH  17  18
ATOM     18  C   UNL     1      -3.513  -0.416   3.642  0.00  0.00    +0.089 A 
ATOM     19  C   UNL     1      -4.607  -0.413   2.859  0.00  0.00    +0.042 A 
ATOM     20  C   UNL     1      -5.712  -0.143   3.700  0.00  0.00    +0.041 A 
ATOM     21  C   UNL     1      -5.226   0.003   4.946  0.00  0.00    +0.195 A 
ATOM     22  O   UNL     1      -3.895  -0.170   4.906  0.00  0.00    -0.470 OA
ENDBRANCH  17  18
ENDBRANCH   7  17
ENDBRANCH   6   7
ENDBRANCH   1   6
BRANCH   4  23
ATOM     23  C   UNL     1       1.974   5.167   3.459  0.00  0.00    +0.186 C 
BRANCH  23  24
ATOM     24  C   UNL     1       2.943   4.607   4.468  0.00  0.00    +0.034 A 
ATOM     25  C   UNL     1       3.930   5.241   5.147  0.00  0.00    +0.015 A 
ATOM     26  C   UNL     1       4.705   4.518   6.035  0.00  0.00    +0.008 A 
ATOM     27  C   UNL     1       4.455   3.196   6.200  0.00  0.00    +0.045 A 
ATOM     28  S   UNL     1       3.084   2.938   5.085  0.00  0.00    -0.098 S 
ENDBRANCH  23  24
BRANCH  23  29
ATOM     29  C   UNL     1       2.561   5.044   2.077  0.00  0.00    +0.034 A 
ATOM     30  C   UNL     1       3.340   5.923   1.399  0.00  0.00    +0.015 A 
ATOM     31  C   UNL     1       3.769   5.596   0.127  0.00  0.00    +0.008 A 
ATOM     32  C   UNL     1       3.399   4.406  -0.406  0.00  0.00    +0.045 A 
ATOM     33  S   UNL     1       2.419   3.701   0.909  0.00  0.00    -0.098 S 
ENDBRANCH  23  29
BRANCH  23  34
ATOM     34  O   UNL     1       1.725   6.543   3.751  0.00  0.00    -0.371 OA
ATOM     35  H   UNL     1       1.108   6.969   3.140  0.00  0.00    +0.212 HD
ENDBRANCH  23  34
ENDBRANCH   4  23
TORSDOF 10
