REMARK  Name = ZINC18029738
REMARK  3 active torsions:
REMARK  status: ('A' for Active; 'I' for Inactive)
REMARK    1  A    between atoms: C_1  and  C_2
REMARK    2  A    between atoms: C_2  and  C_3
REMARK    3  A    between atoms: C_3  and  C_4
REMARK                            x       y       z     vdW  Elec       q    Type
REMARK                         _______ _______ _______ _____ _____    ______ ____
ROOT
ATOM      1  C   UNL     1       0.739  -2.004  -1.265  0.00  0.00    +0.021 A 
ATOM      2  C   UNL     1      -0.222  -2.663  -1.940  0.00  0.00    +0.072 A 
ATOM      3  C   UNL     1      -0.216  -4.083  -1.958  0.00  0.00    +0.196 A 
ATOM      4  O   UNL     1      -1.073  -4.710  -2.562  0.00  0.00    -0.287 OA
ATOM      5  C   UNL     1       0.849  -4.769  -1.231  0.00  0.00    +0.129 A 
ATOM      6  C   UNL     1       1.806  -4.005  -0.556  0.00  0.00    +0.140 A 
ATOM      7  N   UNL     1       1.729  -2.651  -0.595  0.00  0.00    -0.343 N 
ATOM      8  H   UNL     1       2.399  -2.128  -0.128  0.00  0.00    +0.167 HD
ATOM      9  N   UNL     1       2.680  -4.871   0.036  0.00  0.00    -0.273 N 
ATOM     10  H   UNL     1       3.446  -4.611   0.571  0.00  0.00    +0.189 HD
ATOM     11  N   UNL     1       2.303  -6.188  -0.245  0.00  0.00    -0.193 N 
ATOM     12  C   UNL     1       1.194  -6.174  -1.014  0.00  0.00    +0.286 A 
ATOM     13  O   UNL     1       0.595  -7.143  -1.442  0.00  0.00    -0.265 OA
ATOM     14  C   UNL     1       2.962  -7.323   0.194  0.00  0.00    +0.196 A 
ATOM     15  N   UNL     1       4.036  -7.414   0.943  0.00  0.00    -0.221 NA
ATOM     16  C   UNL     1       4.576  -8.601   1.298  0.00  0.00    +0.081 A 
ATOM     17  C   UNL     1       5.721  -8.836   2.094  0.00  0.00    +0.029 A 
ATOM     18  C   UNL     1       6.138 -10.114   2.360  0.00  0.00    +0.002 A 
ATOM     19  C   UNL     1       5.458 -11.217   1.863  0.00  0.00    +0.001 A 
ATOM     20  C   UNL     1       4.334 -11.023   1.081  0.00  0.00    +0.017 A 
ATOM     21  C   UNL     1       3.909  -9.747   0.809  0.00  0.00    +0.041 A 
ATOM     22  S   UNL     1       2.563  -9.039  -0.109  0.00  0.00    -0.048 S 
ENDROOT
BRANCH   1  23
ATOM     23  C   UNL     1       0.718  -0.497  -1.257  0.00  0.00    +0.053 C 
BRANCH  23  25
ATOM     24  C   UNL     1      -0.019   1.526   0.010  0.00  0.00    +0.004 C 
ATOM     25  C   UNL     1       0.002  -0.004   0.002  0.00  0.00    +0.003 C 
ENDBRANCH  23  25
ENDBRANCH   1  23
TORSDOF 2
