REMARK  Name = ZINC21263352
REMARK  11 active torsions:
REMARK  status: ('A' for Active; 'I' for Inactive)
REMARK    1  A    between atoms: C_1  and  C_2
REMARK    2  A    between atoms: C_2  and  C_28
REMARK    3  A    between atoms: C_4  and  N_10
REMARK    4  A    between atoms: C_6  and  C_8
REMARK    5  A    between atoms: C_6  and  C_9
REMARK    6  A    between atoms: N_10  and  C_11
REMARK    7  A    between atoms: C_11  and  N_13
REMARK    8  A    between atoms: N_13  and  C_14
REMARK    9  A    between atoms: N_13  and  C_21
REMARK   10  A    between atoms: C_14  and  C_15
REMARK   11  A    between atoms: N_24  and  C_27
REMARK                            x       y       z     vdW  Elec       q    Type
REMARK                         _______ _______ _______ _____ _____    ______ ____
ROOT
ATOM      1  C   UNL     1      -0.772   3.679   3.860  0.00  0.00    +0.133 C 
ATOM      2  S   UNL     1      -1.282   4.111   5.437  0.00  0.00    -0.019 S 
ENDROOT
BRANCH   1   3
ATOM      3  N   UNL     1      -0.571   4.635   2.932  0.00  0.00    -0.324 N 
ATOM      4  H   UNL     1      -0.244   4.358   1.919  0.00  0.00    +0.148 HD
BRANCH   3   8
ATOM      5  C   UNL     1       0.571   8.764   3.959  0.00  0.00    -0.010 C 
ATOM      6  C   UNL     1      -0.168   8.400   2.666  0.00  0.00    -0.072 C 
ATOM      7  C   UNL     1       0.056   6.924   2.349  0.00  0.00    +0.009 C 
ATOM      8  C   UNL     1      -0.789   6.047   3.272  0.00  0.00    +0.069 C 
ATOM      9  C   UNL     1      -2.262   6.395   3.059  0.00  0.00    +0.009 C 
ATOM     10  C   UNL     1      -2.513   7.865   3.387  0.00  0.00    -0.072 C 
ATOM     11  N   UNL     1      -1.569   8.756   2.745  0.00  0.00    +0.386 N 
ATOM     12  C   UNL     1      -2.511   8.058   4.908  0.00  0.00    -0.010 C 
ATOM     13  C   UNL     1      -3.930   8.218   2.883  0.00  0.00    -0.010 C 
ATOM     14  C   UNL     1       0.474   9.223   1.526  0.00  0.00    -0.010 C 
ATOM     15  H   UNL     1      -1.677   9.698   3.302  0.00  0.00    -0.084 HD
ATOM     16  H   UNL     1      -1.974   8.881   1.730  0.00  0.00    -0.084 HD
ENDBRANCH   3   8
ENDBRANCH   1   3
BRANCH   1  17
ATOM     17  N   UNL     1      -0.573   2.384   3.547  0.00  0.00    -0.307 N 
BRANCH  17  18
ATOM     18  C   UNL     1      -0.894   1.337   4.521  0.00  0.00    +0.072 C 
ATOM     19  C   UNL     1       0.392   0.625   4.949  0.00  0.00    +0.004 C 
ATOM     20  C   UNL     1       0.044  -0.506   5.920  0.00  0.00    -0.077 C 
ATOM     21  N   UNL     1      -0.866  -1.454   5.263  0.00  0.00    +0.378 N 
ATOM     22  C   UNL     1      -2.127  -0.803   4.884  0.00  0.00    -0.077 C 
ATOM     23  C   UNL     1      -1.844   0.319   3.883  0.00  0.00    +0.004 C 
ATOM     24  C   UNL     1      -1.112  -2.624   6.115  0.00  0.00    -0.096 C 
ATOM     25  H   UNL     1      -0.378  -1.802   4.340  0.00  0.00    -0.082 HD
ENDBRANCH  17  18
BRANCH  17  26
ATOM     26  C   UNL     1      -0.035   2.022   2.234  0.00  0.00    +0.138 C 
BRANCH  26  27
ATOM     27  C   UNL     1      -1.187   1.816   1.249  0.00  0.00    +0.136 C 
ATOM     28  C   UNL     1      -0.651   1.313  -0.109  0.00  0.00    +0.035 C 
ATOM     29  C   UNL     1      -1.543   2.020  -1.154  0.00  0.00    +0.031 C 
ATOM     30  C   UNL     1      -2.516   2.868  -0.305  0.00  0.00    +0.160 C 
ATOM     31  O   UNL     1      -1.826   3.078   0.946  0.00  0.00    -0.375 OA
ENDBRANCH  26  27
ENDBRANCH  17  26
ENDBRANCH   1  17
TORSDOF 6
