REMARK  Name = ZINC46633433
REMARK  4 active torsions:
REMARK  status: ('A' for Active; 'I' for Inactive)
REMARK    1  A    between atoms: C_1  and  N_2
REMARK    2  A    between atoms: C_6  and  C_7
REMARK    3  A    between atoms: N_9  and  N_10
REMARK    4  A    between atoms: C_11  and  C_13
REMARK                            x       y       z     vdW  Elec       q    Type
REMARK                         _______ _______ _______ _____ _____    ______ ____
ROOT
ATOM      1  N   UNL     1       0.357   1.417   4.108  0.00  0.00    -0.234 N 
ATOM      2  C   UNL     1      -0.507   2.380   4.487  0.00  0.00    +0.237 C 
ATOM      3  O   UNL     1      -1.205   2.928   3.660  0.00  0.00    -0.274 OA
ATOM      4  H   UNL     1       0.964   1.027   4.756  0.00  0.00    +0.173 HD
ENDROOT
BRANCH   2   5
ATOM      5  C   UNL     1      -0.605   2.775   5.938  0.00  0.00    +0.107 C 
ATOM      6  C   UNL     1      -0.937   4.263   6.033  0.00  0.00    +0.018 C 
ATOM      7  C   UNL     1      -1.246   4.597   7.497  0.00  0.00    +0.006 C 
ATOM      8  C   UNL     1      -2.578   3.947   7.868  0.00  0.00    +0.035 C 
ATOM      9  C   UNL     1      -2.577   2.487   7.496  0.00  0.00    -0.043 A 
ATOM     10  C   UNL     1      -1.674   1.951   6.606  0.00  0.00    -0.032 A 
ATOM     11  C   UNL     1      -1.732   0.597   6.301  0.00  0.00    +0.004 A 
ATOM     12  C   UNL     1      -2.685  -0.213   6.883  0.00  0.00    +0.000 A 
ATOM     13  C   UNL     1      -3.589   0.326   7.779  0.00  0.00    +0.000 A 
ATOM     14  C   UNL     1      -3.533   1.670   8.083  0.00  0.00    +0.004 A 
ENDBRANCH   2   5
BRANCH   1  17
ATOM     15  C   UNL     1       1.241   0.017   2.398  0.00  0.00    +0.277 C 
ATOM     16  O   UNL     1       1.939  -0.536   3.227  0.00  0.00    -0.267 OA
ATOM     17  N   UNL     1       0.378   0.980   2.777  0.00  0.00    -0.229 N 
ATOM     18  H   UNL     1      -0.229   1.370   2.128  0.00  0.00    +0.173 HD
BRANCH  15  24
ATOM     19  C   UNL     1       2.963  -2.286   1.245  0.00  0.00    +0.149 C 
ATOM     20  N   UNL     1       2.104  -1.387   0.470  0.00  0.00    -0.345 N 
ATOM     21  C   UNL     1       1.925  -1.428  -0.874  0.00  0.00    +0.101 A 
ATOM     22  C   UNL     1       1.063  -0.446  -1.231  0.00  0.00    +0.036 A 
ATOM     23  C   UNL     1       0.687   0.238  -0.070  0.00  0.00    +0.047 A 
ATOM     24  C   UNL     1       1.340  -0.365   0.985  0.00  0.00    +0.107 A 
ATOM     25 BR   UNL     1       0.473  -0.065  -2.987  0.00  0.00    -0.049 Br
ENDBRANCH  15  24
ENDBRANCH   1  17
TORSDOF 3
