REMARK  Name = ZINC09522303
REMARK  8 active torsions:
REMARK  status: ('A' for Active; 'I' for Inactive)
REMARK    1  A    between atoms: C_1  and  C_2
REMARK    2  A    between atoms: C_7  and  N_8
REMARK    3  A    between atoms: C_13  and  O_31
REMARK    4  A    between atoms: C_15  and  S_17
REMARK    5  A    between atoms: S_17  and  C_18
REMARK    6  A    between atoms: C_18  and  C_19
REMARK    7  A    between atoms: C_23  and  C_30
REMARK    8  A    between atoms: C_26  and  C_29
REMARK                            x       y       z     vdW  Elec       q    Type
REMARK                         _______ _______ _______ _____ _____    ______ ____
ROOT
ATOM      1  N   UNL     1       3.949  -0.416   0.224  0.00  0.00    -0.214 N 
ATOM      2  C   UNL     1       2.725   0.140   0.469  0.00  0.00    +0.171 A 
ATOM      3  C   UNL     1       2.924   1.534   0.534  0.00  0.00    +0.100 A 
ATOM      4  C   UNL     1       4.301   1.765   0.319  0.00  0.00    +0.150 A 
ATOM      5  N   UNL     1       4.890   0.618   0.140  0.00  0.00    -0.172 NA
ATOM      6  C   UNL     1       1.810   2.358   0.778  0.00  0.00    +0.227 A 
ATOM      7  N   UNL     1       0.624   1.789   0.937  0.00  0.00    -0.187 NA
ATOM      8  C   UNL     1       0.479   0.470   0.868  0.00  0.00    +0.194 A 
ATOM      9  N   UNL     1       1.497  -0.344   0.640  0.00  0.00    -0.202 NA
ENDROOT
BRANCH   1  16
ATOM     10  C   UNL     1       5.532  -1.255  -1.986  0.00  0.00    +0.046 C 
ATOM     11  C   UNL     1       4.984  -2.236  -0.982  0.00  0.00    -0.025 A 
ATOM     12  C   UNL     1       5.251  -3.584  -1.115  0.00  0.00    +0.005 A 
ATOM     13  C   UNL     1       4.743  -4.485  -0.197  0.00  0.00    +0.000 A 
ATOM     14  C   UNL     1       3.973  -4.038   0.861  0.00  0.00    +0.002 A 
ATOM     15  C   UNL     1       3.708  -2.691   1.004  0.00  0.00    +0.028 A 
ATOM     16  C   UNL     1       4.216  -1.783   0.083  0.00  0.00    +0.071 A 
ENDBRANCH   1  16
BRANCH   6  17
ATOM     17  O   UNL     1       1.947   3.703   0.850  0.00  0.00    -0.492 OA
ATOM     18  H   UNL     1       2.132   4.032   1.740  0.00  0.00    +0.294 HD
ENDBRANCH   6  17
BRANCH   8  19
ATOM     19  S   UNL     1      -1.127  -0.221   1.088  0.00  0.00    -0.077 S 
BRANCH  19  20
ATOM     20  C   UNL     1      -2.085   1.291   1.355  0.00  0.00    +0.173 C 
BRANCH  20  21
ATOM     21  C   UNL     1      -3.534   0.936   1.573  0.00  0.00    +0.226 C 
ATOM     22  O   UNL     1      -3.883  -0.226   1.549  0.00  0.00    -0.275 OA
ATOM     23  N   UNL     1      -4.440   1.908   1.793  0.00  0.00    -0.296 N 
ATOM     24  C   UNL     1      -4.039   3.323   1.832  0.00  0.00    +0.139 C 
ATOM     25  C   UNL     1      -4.970   4.111   0.897  0.00  0.00    +0.133 C 
ATOM     26  O   UNL     1      -6.328   3.828   1.240  0.00  0.00    -0.371 OA
ATOM     27  C   UNL     1      -6.701   2.458   1.070  0.00  0.00    +0.133 C 
ATOM     28  C   UNL     1      -5.860   1.586   2.008  0.00  0.00    +0.139 C 
ATOM     29  C   UNL     1      -6.453   2.036  -0.380  0.00  0.00    +0.039 C 
ATOM     30  C   UNL     1      -4.705   5.610   1.057  0.00  0.00    +0.039 C 
ENDBRANCH  20  21
ENDBRANCH  19  20
ENDBRANCH   8  19
TORSDOF 5
