REMARK  Name = ZINC24891827
REMARK  6 active torsions:
REMARK  status: ('A' for Active; 'I' for Inactive)
REMARK    1  A    between atoms: C_1  and  C_2
REMARK    2  A    between atoms: C_5  and  N_9
REMARK    3  A    between atoms: C_18  and  S_19
REMARK    4  A    between atoms: S_19  and  C_20
REMARK    5  A    between atoms: C_20  and  C_21
REMARK    6  A    between atoms: C_21  and  C_22
REMARK                            x       y       z     vdW  Elec       q    Type
REMARK                         _______ _______ _______ _____ _____    ______ ____
ROOT
ATOM      1  N   UNL     1       1.304  -4.546  -0.364  0.00  0.00    -0.255 N 
ATOM      2  C   UNL     1       1.815  -3.352   0.017  0.00  0.00    +0.268 A 
ATOM      3  O   UNL     1       3.014  -3.174   0.151  0.00  0.00    -0.267 OA
ATOM      4  C   UNL     1       0.861  -2.309   0.252  0.00  0.00    +0.076 A 
ATOM      5  C   UNL     1       1.149  -0.946   0.665  0.00  0.00    -0.023 A 
ATOM      6  C   UNL     1       0.087  -0.124   0.829  0.00  0.00    -0.004 A 
ATOM      7  S   UNL     1      -1.333  -1.116   0.444  0.00  0.00    -0.073 S 
ATOM      8  C   UNL     1      -0.504  -2.627   0.066  0.00  0.00    +0.117 A 
ATOM      9  N   UNL     1      -0.942  -3.822  -0.310  0.00  0.00    -0.216 NA
ATOM     10  C   UNL     1      -0.033  -4.765  -0.520  0.00  0.00    +0.177 A 
ATOM     11  C   UNL     1       0.109   1.315   1.246  0.00  0.00    +0.043 C 
ATOM     12  C   UNL     1       1.496   1.633   1.821  0.00  0.00    +0.005 C 
ATOM     13  C   UNL     1       2.561   1.091   0.865  0.00  0.00    +0.005 C 
ATOM     14  C   UNL     1       2.568  -0.438   0.909  0.00  0.00    +0.037 C 
ENDROOT
BRANCH   1  19
ATOM     15  C   UNL     1       4.885  -8.836  -1.358  0.00  0.00    +0.045 C 
ATOM     16  C   UNL     1       3.934  -7.697  -1.094  0.00  0.00    -0.032 A 
ATOM     17  C   UNL     1       3.580  -6.841  -2.121  0.00  0.00    +0.007 A 
ATOM     18  C   UNL     1       2.705  -5.799  -1.883  0.00  0.00    +0.026 A 
ATOM     19  C   UNL     1       2.188  -5.605  -0.609  0.00  0.00    +0.053 A 
ATOM     20  C   UNL     1       2.545  -6.465   0.421  0.00  0.00    +0.046 A 
ATOM     21  C   UNL     1       3.418  -7.509   0.176  0.00  0.00    +0.046 A 
ATOM     22 CL   UNL     1       3.865  -8.586   1.462  0.00  0.00    -0.083 Cl
ENDBRANCH   1  19
BRANCH  10  23
ATOM     23  S   UNL     1      -0.575  -6.365  -1.021  0.00  0.00    -0.087 S 
BRANCH  23  24
ATOM     24  C   UNL     1      -2.363  -6.092  -1.066  0.00  0.00    +0.086 C 
BRANCH  24  25
ATOM     25  C   UNL     1      -3.066  -7.383  -1.489  0.00  0.00    +0.107 C 
BRANCH  25  26
ATOM     26  C   UNL     1      -4.555  -7.155  -1.527  0.00  0.00    +0.221 C 
ATOM     27  O   UNL     1      -5.010  -6.068  -1.244  0.00  0.00    -0.275 OA
ATOM     28  N   UNL     1      -5.382  -8.161  -1.876  0.00  0.00    -0.240 N 
ATOM     29  C   UNL     1      -6.714  -7.957  -1.909  0.00  0.00    +0.303 C 
ATOM     30  O   UNL     1      -7.169  -6.867  -1.625  0.00  0.00    -0.253 OA
ATOM     31  N   UNL     1      -7.541  -8.963  -2.258  0.00  0.00    -0.313 N 
ATOM     32  H   UNL     1      -4.970  -9.148  -2.133  0.00  0.00    +0.159 HD
ATOM     33  H   UNL     1      -8.628  -8.797  -2.286  0.00  0.00    +0.146 HD
ATOM     34  H   UNL     1      -7.129  -9.950  -2.515  0.00  0.00    +0.146 HD
ENDBRANCH  25  26
ENDBRANCH  24  25
ENDBRANCH  23  24
ENDBRANCH  10  23
TORSDOF 5
