REMARK  Name = ZINC03482758
REMARK  8 active torsions:
REMARK  status: ('A' for Active; 'I' for Inactive)
REMARK    1  A    between atoms: C_1  and  C_2
REMARK    2  A    between atoms: C_4  and  C_27
REMARK    3  A    between atoms: C_6  and  N_8
REMARK    4  A    between atoms: C_9  and  C_20
REMARK    5  A    between atoms: C_12  and  S_13
REMARK    6  A    between atoms: S_13  and  C_14
REMARK    7  A    between atoms: C_14  and  C_16
REMARK    8  A    between atoms: C_14  and  C_17
REMARK                            x       y       z     vdW  Elec       q    Type
REMARK                         _______ _______ _______ _____ _____    ______ ____
ROOT
ATOM      1  N   UNL     1       2.749   1.772   3.394  0.00  0.00    -0.270 N 
ATOM      2  C   UNL     1       3.702   2.603   2.846  0.00  0.00    +0.169 A 
ATOM      3  N   UNL     1       3.184   3.114   1.753  0.00  0.00    -0.128 NA
ATOM      4  N   UNL     1       1.993   2.665   1.579  0.00  0.00    -0.122 NA
ATOM      5  C   UNL     1       1.675   1.838   2.550  0.00  0.00    +0.197 A 
ENDROOT
BRANCH   1  11
ATOM      6  C   UNL     1       3.223   1.597   8.286  0.00  0.00    +0.044 C 
ATOM      7  C   UNL     1       3.090   0.906   6.954  0.00  0.00    -0.048 A 
ATOM      8  C   UNL     1       3.074  -0.475   6.890  0.00  0.00    +0.006 A 
ATOM      9  C   UNL     1       2.951  -1.112   5.669  0.00  0.00    -0.048 A 
ATOM     10  C   UNL     1       2.843  -0.370   4.509  0.00  0.00    +0.029 A 
ATOM     11  C   UNL     1       2.858   1.017   4.570  0.00  0.00    +0.051 A 
ATOM     12  C   UNL     1       2.988   1.654   5.796  0.00  0.00    +0.029 A 
ATOM     13  C   UNL     1       2.934  -2.618   5.604  0.00  0.00    +0.044 C 
ENDBRANCH   1  11
BRANCH   2  14
ATOM     14  C   UNL     1       5.051   2.871   3.388  0.00  0.00    +0.020 A 
ATOM     15  C   UNL     1       5.588   2.041   4.373  0.00  0.00    +0.012 A 
ATOM     16  C   UNL     1       6.849   2.294   4.872  0.00  0.00    +0.016 A 
ATOM     17  C   UNL     1       7.577   3.375   4.404  0.00  0.00    +0.018 A 
ATOM     18  C   UNL     1       7.048   4.205   3.431  0.00  0.00    +0.016 A 
ATOM     19  C   UNL     1       5.790   3.959   2.921  0.00  0.00    +0.012 A 
ATOM     20 BR   UNL     1       9.302   3.719   5.098  0.00  0.00    -0.050 Br
ENDBRANCH   2  14
BRANCH   5  21
ATOM     21  S   UNL     1       0.147   0.980   2.733  0.00  0.00    -0.073 S 
BRANCH  21  22
ATOM     22  C   UNL     1      -0.729   1.579   1.267  0.00  0.00    +0.137 C 
ATOM     23  C   UNL     1      -0.013   1.086   0.008  0.00  0.00    +0.029 C 
BRANCH  22  24
ATOM     24  C   UNL     1      -2.143   1.058   1.278  0.00  0.00    +0.224 C 
ATOM     25  O   UNL     1      -2.427   0.089   1.950  0.00  0.00    -0.275 OA
ATOM     26  N   UNL     1      -3.091   1.667   0.539  0.00  0.00    -0.328 N 
ATOM     27  H   UNL     1      -4.123   1.286   0.547  0.00  0.00    +0.145 HD
ATOM     28  H   UNL     1      -2.834   2.546  -0.071  0.00  0.00    +0.145 HD
ENDBRANCH  22  24
ENDBRANCH  21  22
ENDBRANCH   5  21
TORSDOF 5
