REMARK  Name = ZINC39505240
REMARK  7 active torsions:
REMARK  status: ('A' for Active; 'I' for Inactive)
REMARK    1  A    between atoms: C_4  and  O_7
REMARK    2  A    between atoms: O_7  and  S_8
REMARK    3  A    between atoms: S_8  and  C_11
REMARK    4  A    between atoms: C_18  and  S_23
REMARK    5  A    between atoms: N_21  and  O_22
REMARK    6  A    between atoms: S_23  and  O_26
REMARK    7  A    between atoms: O_26  and  C_27
REMARK                            x       y       z     vdW  Elec       q    Type
REMARK                         _______ _______ _______ _____ _____    ______ ____
ROOT
ATOM      1  C   UNL     1       2.599  -2.176   2.000  0.00  0.00    +0.173 C 
ATOM      2  C   UNL     1       1.072  -1.953   1.859  0.00  0.00    +0.032 C 
ATOM      3  C   UNL     1       0.447  -3.014   2.791  0.00  0.00    +0.027 C 
ATOM      4  C   UNL     1       1.519  -3.364   3.829  0.00  0.00    +0.051 C 
ATOM      5  C   UNL     1       2.764  -2.518   3.503  0.00  0.00    +0.054 C 
ATOM      6  C   UNL     1       1.868  -4.859   3.755  0.00  0.00    +0.056 C 
ATOM      7  C   UNL     1       2.099  -5.235   5.243  0.00  0.00    +0.189 C 
ATOM      8  C   UNL     1       1.053  -4.344   5.959  0.00  0.00    +0.145 C 
ATOM      9  N   UNL     1       1.042  -3.080   5.189  0.00  0.00    -0.183 NA
ENDROOT
BRANCH   1  10
ATOM     10  S   UNL     1       3.510  -0.664   1.582  0.00  0.00    +0.124 S 
ATOM     11  O   UNL     1       4.909  -0.915   1.597  0.00  0.00    -0.136 OA
ATOM     12  O   UNL     1       2.967   0.445   2.285  0.00  0.00    -0.136 OA
BRANCH  10  13
ATOM     13  O   UNL     1       3.178  -0.398   0.121  0.00  0.00    -0.346 OA
BRANCH  13  17
ATOM     14  C   UNL     1       5.073  -2.938  -2.520  0.00  0.00    +0.000 A 
ATOM     15  C   UNL     1       3.864  -3.304  -1.958  0.00  0.00    +0.004 A 
ATOM     16  C   UNL     1       3.227  -2.455  -1.073  0.00  0.00    +0.048 A 
ATOM     17  C   UNL     1       3.802  -1.235  -0.749  0.00  0.00    +0.156 A 
ATOM     18  C   UNL     1       5.016  -0.871  -1.314  0.00  0.00    +0.048 A 
ATOM     19  C   UNL     1       5.648  -1.723  -2.199  0.00  0.00    +0.004 A 
ENDBRANCH  13  17
ENDBRANCH  10  13
ENDBRANCH   1  10
BRANCH   7  20
ATOM     20  S   UNL     1       1.761  -6.994   5.530  0.00  0.00    +0.125 S 
ATOM     21  O   UNL     1       0.379  -7.263   5.341  0.00  0.00    -0.136 OA
ATOM     22  O   UNL     1       2.748  -7.793   4.891  0.00  0.00    -0.136 OA
BRANCH  20  23
ATOM     23  O   UNL     1       1.998  -7.201   7.019  0.00  0.00    -0.346 OA
BRANCH  23  24
ATOM     24  C   UNL     1       3.310  -7.211   7.374  0.00  0.00    +0.156 A 
ATOM     25  C   UNL     1       4.040  -8.388   7.304  0.00  0.00    +0.048 A 
ATOM     26  C   UNL     1       5.373  -8.396   7.665  0.00  0.00    +0.004 A 
ATOM     27  C   UNL     1       5.980  -7.231   8.096  0.00  0.00    +0.000 A 
ATOM     28  C   UNL     1       5.255  -6.056   8.167  0.00  0.00    +0.004 A 
ATOM     29  C   UNL     1       3.923  -6.042   7.801  0.00  0.00    +0.048 A 
ENDBRANCH  23  24
ENDBRANCH  20  23
ENDBRANCH   7  20
BRANCH   9  30
ATOM     30  O   UNL     1      -0.298  -2.494   5.163  0.00  0.00    -0.312 OA
ATOM     31  H   UNL     1      -0.655  -2.290   6.038  0.00  0.00    +0.237 HD
ENDBRANCH   9  30
TORSDOF 7
