REMARK  Name = ZINC02106279
REMARK  5 active torsions:
REMARK  status: ('A' for Active; 'I' for Inactive)
REMARK    1  A    between atoms: C_1  and  C_2
REMARK    2  A    between atoms: C_7  and  N_8
REMARK    3  A    between atoms: C_9  and  C_10
REMARK    4  A    between atoms: C_11  and  C_25
REMARK    5  A    between atoms: C_14  and  O_15
REMARK                            x       y       z     vdW  Elec       q    Type
REMARK                         _______ _______ _______ _____ _____    ______ ____
ROOT
ATOM      1  C   UNL     1      -0.161   0.026   4.792  0.00  0.00    +0.086 A 
ATOM      2  C   UNL     1      -0.248  -0.549   6.084  0.00  0.00    +0.178 A 
ATOM      3  N   UNL     1      -0.330   0.415   6.957  0.00  0.00    -0.157 NA
ATOM      4  N   UNL     1      -0.301   1.645   6.290  0.00  0.00    -0.175 N 
ATOM      5  C   UNL     1      -0.191   1.406   4.957  0.00  0.00    +0.227 A 
ATOM      6  C   UNL     1      -0.368   2.897   6.889  0.00  0.00    +0.198 A 
ATOM      7  N   UNL     1      -0.352   4.082   6.325  0.00  0.00    -0.221 NA
ATOM      8  C   UNL     1      -0.425   5.226   7.036  0.00  0.00    +0.081 A 
ATOM      9  C   UNL     1      -0.417   6.556   6.555  0.00  0.00    +0.029 A 
ATOM     10  C   UNL     1      -0.499   7.615   7.421  0.00  0.00    +0.002 A 
ATOM     11  C   UNL     1      -0.592   7.424   8.792  0.00  0.00    +0.001 A 
ATOM     12  C   UNL     1      -0.602   6.138   9.298  0.00  0.00    +0.017 A 
ATOM     13  C   UNL     1      -0.520   5.071   8.438  0.00  0.00    +0.041 A 
ATOM     14  S   UNL     1      -0.505   3.304   8.624  0.00  0.00    -0.048 S 
ENDROOT
BRANCH   2  15
ATOM     15  C   UNL     1      -0.247  -2.023   6.395  0.00  0.00    +0.437 C 
ATOM     16  F   UNL     1       1.068  -2.458   6.590  0.00  0.00    -0.164 F 
ATOM     17  F   UNL     1      -0.992  -2.255   7.557  0.00  0.00    -0.164 F 
ATOM     18  F   UNL     1      -0.817  -2.726   5.328  0.00  0.00    -0.164 F 
ENDBRANCH   2  15
BRANCH   1  20
ATOM     19  N   UNL     1       0.026  -0.037   2.398  0.00  0.00    -0.254 NA
ATOM     20  C   UNL     1      -0.053  -0.698   3.522  0.00  0.00    +0.126 C 
BRANCH  19  27
ATOM     21  C   UNL     1       1.993   0.659   0.469  0.00  0.00    +0.046 C 
ATOM     22  C   UNL     1       0.959  -0.409   0.222  0.00  0.00    -0.025 A 
ATOM     23  C   UNL     1       0.945  -1.095  -0.975  0.00  0.00    +0.005 A 
ATOM     24  C   UNL     1      -0.004  -2.075  -1.203  0.00  0.00    +0.000 A 
ATOM     25  C   UNL     1      -0.946  -2.374  -0.235  0.00  0.00    +0.002 A 
ATOM     26  C   UNL     1      -0.945  -1.696   0.966  0.00  0.00    +0.028 A 
ATOM     27  C   UNL     1       0.015  -0.710   1.206  0.00  0.00    +0.067 A 
ENDBRANCH  19  27
ENDBRANCH   1  20
BRANCH   5  28
ATOM     28  O   UNL     1      -0.125   2.336   3.976  0.00  0.00    -0.492 OA
ATOM     29  H   UNL     1      -0.986   2.595   3.621  0.00  0.00    +0.294 HD
ENDBRANCH   5  28
TORSDOF 4
