REMARK  Name = ZINC50594644
REMARK  5 active torsions:
REMARK  status: ('A' for Active; 'I' for Inactive)
REMARK    1  A    between atoms: C_1  and  C_2
REMARK    2  A    between atoms: C_4  and  N_16
REMARK    3  A    between atoms: C_7  and  N_8
REMARK    4  A    between atoms: C_9  and  C_15
REMARK    5  A    between atoms: C_11  and  C_13
REMARK                            x       y       z     vdW  Elec       q    Type
REMARK                         _______ _______ _______ _____ _____    ______ ____
ROOT
ATOM      1  C   UNL     1      -0.358   1.456   0.049  0.00  0.00    +0.046 C 
ATOM      2  C   UNL     1      -0.146  -0.036   0.025  0.00  0.00    -0.023 A 
ATOM      3  C   UNL     1      -0.237  -0.728  -1.167  0.00  0.00    +0.038 A 
ATOM      4  C   UNL     1      -0.043  -2.097  -1.190  0.00  0.00    +0.127 A 
ATOM      5  C   UNL     1       0.242  -2.777  -0.021  0.00  0.00    +0.035 A 
ATOM      6  C   UNL     1       0.334  -2.091   1.174  0.00  0.00    +0.030 A 
ATOM      7  C   UNL     1       0.145  -0.716   1.200  0.00  0.00    +0.069 A 
ENDROOT
BRANCH   7   8
ATOM      8  N   UNL     1       0.243  -0.015   2.410  0.00  0.00    -0.235 N 
ATOM      9  C   UNL     1      -0.350  -0.358   3.583  0.00  0.00    +0.056 A 
ATOM     10  C   UNL     1      -0.006   0.574   4.503  0.00  0.00    +0.062 A 
ATOM     11  C   UNL     1       0.821   1.513   3.877  0.00  0.00    +0.075 A 
ATOM     12  N   UNL     1       0.976   1.159   2.627  0.00  0.00    -0.170 NA
ATOM     13  C   UNL     1       1.435   2.723   4.533  0.00  0.00    +0.069 C 
ATOM     14 BR   UNL     1      -0.548   0.601   6.314  0.00  0.00    -0.047 Br
ATOM     15  C   UNL     1      -1.231  -1.557   3.818  0.00  0.00    +0.067 C 
ENDBRANCH   7   8
BRANCH   4  16
ATOM     16  N   UNL     1      -0.142  -2.835  -2.469  0.00  0.00    +0.056 N 
ATOM     17  O   UNL     1      -0.391  -2.241  -3.493  0.00  0.00    -0.126 OA
ATOM     18  O   UNL     1       0.028  -4.032  -2.491  0.00  0.00    -0.126 OA
ENDBRANCH   4  16
TORSDOF 2
