REMARK  Name = ZINC17300012
REMARK  6 active torsions:
REMARK  status: ('A' for Active; 'I' for Inactive)
REMARK    1  A    between atoms: C_1  and  O_2
REMARK    2  A    between atoms: O_2  and  C_3
REMARK    3  A    between atoms: C_3  and  C_5
REMARK    4  A    between atoms: N_13  and  C_16
REMARK    5  A    between atoms: C_23  and  C_25
REMARK    6  A    between atoms: C_23  and  C_32
REMARK                            x       y       z     vdW  Elec       q    Type
REMARK                         _______ _______ _______ _____ _____    ______ ____
ROOT
ATOM      1  C   UNL     1      -1.085  -2.262   0.212  0.00  0.00    +0.177 C 
ATOM      2  C   UNL     1      -0.991  -2.972   1.559  0.00  0.00    +0.118 C 
ATOM      3  C   UNL     1      -1.694  -4.313   1.123  0.00  0.00    +0.119 C 
ATOM      4  C   UNL     1      -1.298  -5.215   2.178  0.00  0.00    +0.233 C 
ATOM      5  O   UNL     1      -1.939  -6.132   2.645  0.00  0.00    -0.274 OA
ATOM      6  N   UNL     1      -0.037  -4.809   2.538  0.00  0.00    -0.210 N 
ATOM      7  C   UNL     1       0.298  -3.571   2.028  0.00  0.00    +0.232 C 
ATOM      8  O   UNL     1       1.400  -3.070   1.964  0.00  0.00    -0.274 OA
ATOM      9  C   UNL     1      -2.903  -3.855   0.428  0.00  0.00    +0.083 C 
ATOM     10  N   UNL     1      -2.482  -2.567  -0.239  0.00  0.00    -0.290 NA
ATOM     11  H   UNL     1      -3.112  -1.818   0.007  0.00  0.00    +0.124 HD
ENDROOT
BRANCH   6  12
ATOM     12  C   UNL     1       0.820  -5.565   3.351  0.00  0.00    +0.044 A 
ATOM     13  C   UNL     1       0.410  -6.800   3.833  0.00  0.00    +0.027 A 
ATOM     14  C   UNL     1       1.256  -7.543   4.634  0.00  0.00    +0.040 A 
ATOM     15  C   UNL     1       2.512  -7.057   4.955  0.00  0.00    +0.124 A 
ATOM     16  C   UNL     1       2.923  -5.825   4.474  0.00  0.00    +0.040 A 
ATOM     17  C   UNL     1       2.082  -5.081   3.669  0.00  0.00    +0.027 A 
ATOM     18  F   UNL     1       3.337  -7.785   5.738  0.00  0.00    -0.205 F 
ENDBRANCH   6  12
BRANCH   9  19
ATOM     19  C   UNL     1      -4.020  -3.625   1.413  0.00  0.00    -0.022 A 
ATOM     20  C   UNL     1      -4.222  -2.366   1.948  0.00  0.00    +0.008 A 
ATOM     21  C   UNL     1      -5.246  -2.153   2.851  0.00  0.00    +0.038 A 
ATOM     22  C   UNL     1      -6.071  -3.202   3.221  0.00  0.00    +0.123 A 
ATOM     23  C   UNL     1      -5.868  -4.463   2.685  0.00  0.00    +0.038 A 
ATOM     24  C   UNL     1      -4.846  -4.672   1.778  0.00  0.00    +0.008 A 
ATOM     25  F   UNL     1      -7.072  -2.996   4.104  0.00  0.00    -0.205 F 
ENDBRANCH   9  19
BRANCH   9  26
ATOM     26  C   UNL     1      -3.321  -4.858  -0.616  0.00  0.00    -0.022 A 
ATOM     27  C   UNL     1      -3.052  -6.201  -0.431  0.00  0.00    +0.008 A 
ATOM     28  C   UNL     1      -3.434  -7.122  -1.388  0.00  0.00    +0.038 A 
ATOM     29  C   UNL     1      -4.087  -6.698  -2.533  0.00  0.00    +0.123 A 
ATOM     30  C   UNL     1      -4.356  -5.353  -2.718  0.00  0.00    +0.038 A 
ATOM     31  C   UNL     1      -3.977  -4.434  -1.757  0.00  0.00    +0.008 A 
ATOM     32  F   UNL     1      -4.461  -7.597  -3.469  0.00  0.00    -0.205 F 
ENDBRANCH   9  26
BRANCH   1  33
ATOM     33  C   UNL     1      -0.891  -0.777   0.379  0.00  0.00    +0.325 C 
ATOM     34  O   UNL     1      -1.850  -0.045   0.442  0.00  0.00    -0.249 OA
BRANCH  33  36
ATOM     35  C   UNL     1       0.458   1.150   0.613  0.00  0.00    +0.280 C 
ATOM     36  O   UNL     1       0.348  -0.266   0.456  0.00  0.00    -0.467 OA
ENDBRANCH  33  36
ENDBRANCH   1  33
TORSDOF 5
