REMARK  Name = ZINC13031246
REMARK  14 active torsions:
REMARK  status: ('A' for Active; 'I' for Inactive)
REMARK    1  A    between atoms: C_1  and  C_2
REMARK    2  A    between atoms: C_7  and  C_8
REMARK    3  A    between atoms: C_8  and  C_10
REMARK    4  A    between atoms: C_8  and  N_18
REMARK    5  A    between atoms: N_12  and  C_13
REMARK    6  A    between atoms: C_13  and  C_14
REMARK    7  A    between atoms: C_14  and  C_15
REMARK    8  A    between atoms: C_15  and  C_16
REMARK    9  A    between atoms: C_15  and  C_17
REMARK   10  A    between atoms: N_18  and  C_19
REMARK   11  A    between atoms: C_22  and  N_25
REMARK   12  A    between atoms: C_26  and  C_28
REMARK   13  A    between atoms: C_29  and  C_31
REMARK   14  A    between atoms: C_31  and  N_32
REMARK                            x       y       z     vdW  Elec       q    Type
REMARK                         _______ _______ _______ _____ _____    ______ ____
ROOT
ATOM      1  N   UNL     1      -5.528   3.966  -2.251  0.00  0.00    -0.254 N 
ATOM      2  C   UNL     1      -4.191   4.015  -2.092  0.00  0.00    +0.242 C 
ATOM      3  O   UNL     1      -3.466   4.067  -3.063  0.00  0.00    -0.273 OA
ENDROOT
BRANCH   1   4
ATOM      4  C   UNL     1      -6.369   4.010  -1.131  0.00  0.00    +0.038 A 
ATOM      5  C   UNL     1      -6.295   5.080  -0.249  0.00  0.00    +0.025 A 
ATOM      6  C   UNL     1      -7.126   5.125   0.852  0.00  0.00    +0.025 A 
ATOM      7  C   UNL     1      -8.030   4.096   1.083  0.00  0.00    +0.033 A 
ATOM      8  C   UNL     1      -8.100   3.023   0.204  0.00  0.00    +0.025 A 
ATOM      9  C   UNL     1      -7.272   2.980  -0.900  0.00  0.00    +0.025 A 
BRANCH   7  10
ATOM     10  N   UNL     1      -8.870   4.140   2.203  0.00  0.00    -0.286 N 
ATOM     11  C   UNL     1      -9.337   5.323   2.649  0.00  0.00    +0.214 C 
ATOM     12  O   UNL     1      -9.097   6.341   2.034  0.00  0.00    -0.276 OA
ATOM     13  C   UNL     1     -10.157   5.382   3.912  0.00  0.00    +0.109 C 
ATOM     14  H   UNL     1      -9.116   3.319   2.657  0.00  0.00    +0.155 HD
ENDBRANCH   7  10
ENDBRANCH   1   4
BRANCH   1  15
ATOM     15  C   UNL     1      -6.103   3.866  -3.595  0.00  0.00    +0.197 C 
BRANCH  15  22
ATOM     16  C   UNL     1      -7.196   6.522  -3.278  0.00  0.00    +0.044 C 
ATOM     17  C   UNL     1      -6.112   6.269  -4.294  0.00  0.00    -0.045 A 
ATOM     18  C   UNL     1      -5.640   7.308  -5.075  0.00  0.00    +0.004 A 
ATOM     19  C   UNL     1      -4.646   7.077  -6.006  0.00  0.00    +0.000 A 
ATOM     20  C   UNL     1      -4.122   5.806  -6.157  0.00  0.00    +0.000 A 
ATOM     21  C   UNL     1      -4.591   4.768  -5.374  0.00  0.00    +0.006 A 
ATOM     22  C   UNL     1      -5.589   4.999  -4.446  0.00  0.00    -0.015 A 
ENDBRANCH  15  22
BRANCH  15  23
ATOM     23  C   UNL     1      -5.706   2.552  -4.215  0.00  0.00    +0.238 C 
ATOM     24  O   UNL     1      -5.022   1.768  -3.590  0.00  0.00    -0.273 OA
ATOM     25  N   UNL     1      -6.110   2.246  -5.464  0.00  0.00    -0.313 N 
ATOM     26  H   UNL     1      -6.595   2.901  -5.990  0.00  0.00    +0.149 HD
BRANCH  25  27
ATOM     27  C   UNL     1      -5.817   0.926  -6.026  0.00  0.00    +0.104 C 
BRANCH  27  28
ATOM     28  C   UNL     1      -6.381   0.839  -7.446  0.00  0.00    +0.022 C 
BRANCH  28  29
ATOM     29  C   UNL     1      -6.076  -0.540  -8.033  0.00  0.00    -0.016 C 
ATOM     30  C   UNL     1      -6.822  -1.611  -7.235  0.00  0.00    +0.007 C 
ATOM     31  C   UNL     1      -6.529  -0.584  -9.494  0.00  0.00    +0.007 C 
ENDBRANCH  28  29
ENDBRANCH  27  28
ENDBRANCH  25  27
ENDBRANCH  15  23
ENDBRANCH   1  15
BRANCH   2  32
ATOM     32  C   UNL     1      -3.596   4.004  -0.707  0.00  0.00    +0.242 C 
BRANCH  32  33
ATOM     33  N   UNL     1      -2.136   3.930  -0.804  0.00  0.00    -0.235 N 
ATOM     34  C   UNL     1      -1.370   2.789  -0.844  0.00  0.00    +0.090 A 
ATOM     35  C   UNL     1      -1.661   1.430  -0.816  0.00  0.00    +0.029 A 
ATOM     36  C   UNL     1      -0.645   0.517  -0.870  0.00  0.00    +0.002 A 
ATOM     37  C   UNL     1       0.677   0.935  -0.962  0.00  0.00    +0.002 A 
ATOM     38  C   UNL     1       0.988   2.263  -0.995  0.00  0.00    +0.032 A 
ATOM     39  C   UNL     1      -0.035   3.219  -0.936  0.00  0.00    +0.113 A 
ATOM     40  N   UNL     1      -0.039   4.567  -0.949  0.00  0.00    -0.129 NA
ATOM     41  N   UNL     1      -1.244   5.011  -0.873  0.00  0.00    -0.064 NA
ENDBRANCH  32  33
ENDBRANCH   2  32
TORSDOF 10
