REMARK  Name = ZINC08745935
REMARK  4 active torsions:
REMARK  status: ('A' for Active; 'I' for Inactive)
REMARK    1  A    between atoms: C_1  and  C_2
REMARK    2  A    between atoms: N_14  and  C_15
REMARK    3  A    between atoms: C_15  and  C_17
REMARK    4  A    between atoms: C_17  and  N_18
REMARK                            x       y       z     vdW  Elec       q    Type
REMARK                         _______ _______ _______ _____ _____    ______ ____
ROOT
ATOM      1  C   UNL     1       0.250 -10.435   4.109  0.00  0.00    +0.255 C 
ATOM      2  O   UNL     1       0.238  -9.575   4.972  0.00  0.00    -0.272 OA
ENDROOT
BRANCH   1  16
ATOM      3  C   UNL     1      -0.440   1.494   0.030  0.00  0.00    +0.044 C 
ATOM      4  C   UNL     1      -0.279  -0.004   0.029  0.00  0.00    -0.049 A 
ATOM      5  C   UNL     1       0.065  -0.670  -1.137  0.00  0.00    +0.005 A 
ATOM      6  C   UNL     1       0.217  -2.036  -1.159  0.00  0.00    +0.024 A 
ATOM      7  C   UNL     1       0.027  -2.795   0.005  0.00  0.00    +0.046 A 
ATOM      8  C   UNL     1      -0.319  -2.095   1.172  0.00  0.00    +0.035 A 
ATOM      9  C   UNL     1      -0.466  -0.728   1.193  0.00  0.00    +0.020 A 
ATOM     10  S   UNL     1      -0.463  -3.385   2.381  0.00  0.00    -0.072 S 
ATOM     11  C   UNL     1      -0.094  -4.698   1.398  0.00  0.00    +0.077 C 
ATOM     12  C   UNL     1      -0.031  -6.113   1.776  0.00  0.00    +0.003 C 
ATOM     13  C   UNL     1       0.302  -7.081   0.817  0.00  0.00    +0.012 C 
ATOM     14  C   UNL     1       0.360  -8.396   1.169  0.00  0.00    +0.026 C 
ATOM     15  C   UNL     1       0.087  -8.782   2.488  0.00  0.00    +0.057 C 
ATOM     16  N   UNL     1       0.146 -10.096   2.839  0.00  0.00    -0.180 NA
ATOM     17  C   UNL     1      -0.245  -7.815   3.447  0.00  0.00    +0.026 C 
ATOM     18  C   UNL     1      -0.297  -6.499   3.098  0.00  0.00    +0.012 C 
ATOM     19  N   UNL     1       0.131  -4.157   0.187  0.00  0.00    -0.308 N 
ATOM     20  H   UNL     1       0.365  -4.728  -0.561  0.00  0.00    +0.153 HD
ENDBRANCH   1  16
BRANCH   1  21
ATOM     21  C   UNL     1       0.384 -11.886   4.493  0.00  0.00    +0.215 C 
BRANCH  21  22
ATOM     22  N   UNL     1       0.482 -11.999   5.950  0.00  0.00    -0.215 N 
ATOM     23  C   UNL     1       1.643 -11.968   6.636  0.00  0.00    +0.252 C 
ATOM     24  O   UNL     1       2.761 -11.846   6.183  0.00  0.00    -0.272 OA
ATOM     25  C   UNL     1       1.256 -12.117   8.090  0.00  0.00    +0.144 C 
ATOM     26  C   UNL     1       1.875 -13.382   8.677  0.00  0.00    +0.081 C 
ATOM     27  C   UNL     1       1.686 -13.351  10.200  0.00  0.00    +0.232 C 
ATOM     28  O   UNL     1       2.411 -12.237  10.723  0.00  0.00    -0.492 OA
ATOM     29  C   UNL     1       2.229 -11.025  10.138  0.00  0.00    +0.126 A 
ATOM     30  C   UNL     1       1.680 -10.905   8.871  0.00  0.00    +0.027 A 
ATOM     31  C   UNL     1       1.516  -9.650   8.309  0.00  0.00    +0.010 A 
ATOM     32  C   UNL     1       1.894  -8.519   9.005  0.00  0.00    +0.001 A 
ATOM     33  C   UNL     1       2.439  -8.635  10.271  0.00  0.00    +0.004 A 
ATOM     34  C   UNL     1       2.606  -9.883  10.836  0.00  0.00    +0.046 A 
ATOM     35  N   UNL     1      -0.207 -12.225   8.061  0.00  0.00    -0.281 N 
ATOM     36  C   UNL     1      -0.570 -12.140   6.766  0.00  0.00    +0.310 C 
ATOM     37  O   UNL     1      -1.722 -12.189   6.383  0.00  0.00    -0.252 OA
ATOM     38  H   UNL     1      -0.797 -12.333   8.823  0.00  0.00    +0.152 HD
ENDBRANCH  21  22
ENDBRANCH   1  21
TORSDOF 3
