REMARK  Name = ZINC09210325
REMARK  7 active torsions:
REMARK  status: ('A' for Active; 'I' for Inactive)
REMARK    1  A    between atoms: C_1  and  C_2
REMARK    2  A    between atoms: C_4  and  C_34
REMARK    3  A    between atoms: C_6  and  N_8
REMARK    4  A    between atoms: C_9  and  C_33
REMARK    5  A    between atoms: C_11  and  C_14
REMARK    6  A    between atoms: C_12  and  C_13
REMARK    7  A    between atoms: C_24  and  C_26
REMARK                            x       y       z     vdW  Elec       q    Type
REMARK                         _______ _______ _______ _____ _____    ______ ____
ROOT
ATOM      1  C   UNL     1       1.579  -3.905   5.512  0.00  0.00    +0.026 C 
ATOM      2  C   UNL     1       1.333  -5.065   6.218  0.00  0.00    +0.081 C 
ATOM      3  C   UNL     1       0.380  -6.097   5.724  0.00  0.00    +0.153 C 
ATOM      4  N   UNL     1       0.194  -6.353   4.455  0.00  0.00    -0.283 NA
ATOM      5  N   UNL     1      -0.301  -6.772   6.759  0.00  0.00    -0.152 N 
ATOM      6  C   UNL     1       0.293  -6.794   8.003  0.00  0.00    +0.181 C 
ATOM      7  N   UNL     1       1.385  -6.176   8.376  0.00  0.00    -0.152 NA
ATOM      8  C   UNL     1       2.008  -5.353   7.506  0.00  0.00    +0.273 C 
ATOM      9  O   UNL     1       3.092  -4.857   7.772  0.00  0.00    -0.268 OA
ATOM     10  S   UNL     1      -0.806  -7.836   8.925  0.00  0.00    -0.033 S 
ATOM     11  C   UNL     1      -2.024  -8.089   7.642  0.00  0.00    +0.130 C 
ATOM     12  N   UNL     1      -1.509  -7.425   6.635  0.00  0.00    -0.164 NA
ATOM     13  H   UNL     1      -0.465  -7.012   4.185  0.00  0.00    +0.188 HD
ENDROOT
BRANCH   1  17
ATOM     14  N   UNL     1       0.016  -2.632   2.541  0.00  0.00    -0.317 N 
ATOM     15  C   UNL     1      -0.968  -3.483   2.961  0.00  0.00    +0.022 A 
ATOM     16  C   UNL     1      -0.578  -4.085   4.097  0.00  0.00    +0.031 A 
ATOM     17  C   UNL     1       0.761  -3.562   4.405  0.00  0.00    -0.003 A 
ATOM     18  C   UNL     1       1.062  -2.669   3.390  0.00  0.00    +0.028 A 
ATOM     19  C   UNL     1       2.336  -1.874   3.259  0.00  0.00    +0.064 C 
ATOM     20  C   UNL     1      -2.283  -3.711   2.261  0.00  0.00    +0.064 C 
BRANCH  14  26
ATOM     21  C   UNL     1      -0.147   1.827   0.472  0.00  0.00    +0.044 C 
ATOM     22  C   UNL     1      -0.132   0.324   0.356  0.00  0.00    -0.048 A 
ATOM     23  C   UNL     1      -0.184  -0.273  -0.890  0.00  0.00    +0.006 A 
ATOM     24  C   UNL     1      -0.171  -1.651  -1.000  0.00  0.00    -0.048 A 
ATOM     25  C   UNL     1      -0.104  -2.436   0.135  0.00  0.00    +0.029 A 
ATOM     26  C   UNL     1      -0.051  -1.839   1.387  0.00  0.00    +0.047 A 
ATOM     27  C   UNL     1      -0.059  -0.455   1.495  0.00  0.00    +0.029 A 
ATOM     28  C   UNL     1      -0.229  -2.298  -2.360  0.00  0.00    +0.044 C 
ENDBRANCH  14  26
ENDBRANCH   1  17
BRANCH  11  29
ATOM     29  C   UNL     1      -3.289  -8.853   7.700  0.00  0.00    +0.009 A 
ATOM     30  C   UNL     1      -4.109  -8.937   6.574  0.00  0.00    +0.013 A 
ATOM     31  C   UNL     1      -5.288  -9.650   6.633  0.00  0.00    +0.039 A 
ATOM     32  C   UNL     1      -5.659 -10.283   7.809  0.00  0.00    +0.123 A 
ATOM     33  C   UNL     1      -4.849 -10.203   8.930  0.00  0.00    +0.039 A 
ATOM     34  C   UNL     1      -3.665  -9.497   8.879  0.00  0.00    +0.013 A 
ATOM     35  F   UNL     1      -6.815 -10.980   7.862  0.00  0.00    -0.205 F 
ENDBRANCH  11  29
TORSDOF 3
