REMARK  Name = ZINC09836151
REMARK  7 active torsions:
REMARK  status: ('A' for Active; 'I' for Inactive)
REMARK    1  A    between atoms: C_1  and  C_2
REMARK    2  A    between atoms: C_2  and  N_55
REMARK    3  A    between atoms: C_6  and  C_8
REMARK    4  A    between atoms: C_8  and  N_9
REMARK    5  A    between atoms: C_10  and  C_12
REMARK    6  A    between atoms: C_12  and  O_31
REMARK    7  A    between atoms: N_22  and  C_23
REMARK                            x       y       z     vdW  Elec       q    Type
REMARK                         _______ _______ _______ _____ _____    ______ ____
ROOT
ATOM      1  C   UNL     1      -1.437   2.232  -0.399  0.00  0.00    +0.247 C 
ATOM      2  C   UNL     1      -0.137   1.472  -0.279  0.00  0.00    +0.033 A 
ATOM      3  C   UNL     1       1.068   2.065  -0.578  0.00  0.00    +0.010 A 
ATOM      4  C   UNL     1       2.241   1.339  -0.453  0.00  0.00    +0.001 A 
ATOM      5  C   UNL     1       2.198   0.023  -0.027  0.00  0.00    +0.002 A 
ATOM      6  C   UNL     1       0.989  -0.574   0.274  0.00  0.00    +0.024 A 
ATOM      7  C   UNL     1      -0.189   0.150   0.149  0.00  0.00    +0.043 A 
ATOM      8  N   UNL     1      -1.420  -0.435   0.449  0.00  0.00    -0.269 N 
ATOM      9  C   UNL     1      -2.583   0.221   0.345  0.00  0.00    +0.314 C 
ATOM     10  O   UNL     1      -3.608  -0.369   0.628  0.00  0.00    -0.252 OA
ATOM     11  N   UNL     1      -2.670   1.502  -0.058  0.00  0.00    -0.214 N 
ATOM     12  H   UNL     1      -1.434  -1.358   0.746  0.00  0.00    +0.156 HD
ENDROOT
BRANCH  11  13
ATOM     13  C   UNL     1      -3.916   2.134  -0.146  0.00  0.00    +0.043 A 
ATOM     14  C   UNL     1      -4.717   1.939  -1.264  0.00  0.00    +0.025 A 
ATOM     15  C   UNL     1      -5.946   2.563  -1.349  0.00  0.00    +0.023 A 
ATOM     16  C   UNL     1      -6.380   3.383  -0.323  0.00  0.00    +0.059 A 
ATOM     17  C   UNL     1      -5.584   3.579   0.793  0.00  0.00    +0.061 A 
ATOM     18  C   UNL     1      -4.355   2.951   0.886  0.00  0.00    +0.045 A 
ATOM     19 CL   UNL     1      -6.132   4.607   2.080  0.00  0.00    -0.082 Cl
ATOM     20 CL   UNL     1      -7.925   4.165  -0.433  0.00  0.00    -0.082 Cl
ENDBRANCH  11  13
BRANCH   1  22
ATOM     21  N   UNL     1      -1.695   1.815  -2.823  0.00  0.00    -0.313 N 
ATOM     22  C   UNL     1      -1.568   2.709  -1.822  0.00  0.00    +0.269 C 
ATOM     23  O   UNL     1      -1.559   3.897  -2.068  0.00  0.00    -0.270 OA
ATOM     24  H   UNL     1      -1.702   0.865  -2.627  0.00  0.00    +0.149 HD
BRANCH  21  25
ATOM     25  C   UNL     1      -1.822   2.278  -4.207  0.00  0.00    +0.089 C 
BRANCH  25  29
ATOM     26  C   UNL     1      -1.805   0.301  -7.328  0.00  0.00    -0.078 C 
ATOM     27  C   UNL     1      -0.664  -0.374  -6.538  0.00  0.00    -0.020 C 
ATOM     28  C   UNL     1      -0.821   0.136  -5.091  0.00  0.00    -0.016 C 
ATOM     29  C   UNL     1      -2.044   1.077  -5.128  0.00  0.00    -0.051 C 
ATOM     30  N   UNL     1      -2.116   1.488  -6.535  0.00  0.00    +0.382 N 
ATOM     31  H   UNL     1      -1.427   2.225  -6.722  0.00  0.00    -0.081 HD
BRANCH  30  33
ATOM     32  C   UNL     1      -3.442   2.827  -8.148  0.00  0.00    -0.017 C 
ATOM     33  C   UNL     1      -3.485   2.001  -6.861  0.00  0.00    -0.082 C 
ENDBRANCH  30  33
ENDBRANCH  25  29
ENDBRANCH  21  25
ENDBRANCH   1  22
BRANCH   1  34
ATOM     34  O   UNL     1      -1.352   3.385   0.441  0.00  0.00    -0.360 OA
ATOM     35  H   UNL     1      -0.632   3.988   0.210  0.00  0.00    +0.213 HD
ENDBRANCH   1  34
TORSDOF 6
