REMARK  Name = ZINC24992203
REMARK  6 active torsions:
REMARK  status: ('A' for Active; 'I' for Inactive)
REMARK    1  A    between atoms: C_3  and  N_26
REMARK    2  A    between atoms: C_6  and  N_7
REMARK    3  A    between atoms: N_10  and  C_13
REMARK    4  A    between atoms: C_13  and  N_14
REMARK    5  A    between atoms: C_18  and  C_20
REMARK    6  A    between atoms: C_20  and  N_21
REMARK                            x       y       z     vdW  Elec       q    Type
REMARK                         _______ _______ _______ _____ _____    ______ ____
ROOT
ATOM      1  N   UNL     1       1.162   3.483   0.009  0.00  0.00    -0.333 N 
ATOM      2  C   UNL     1       0.383   4.007  -1.121  0.00  0.00    +0.086 C 
ATOM      3  C   UNL     1       0.324   5.534  -1.032  0.00  0.00    -0.057 C 
ATOM      4  N   UNL     1       1.690   6.075  -1.042  0.00  0.00    +0.395 N 
ATOM      5  C   UNL     1       2.470   5.551   0.088  0.00  0.00    -0.057 C 
ATOM      6  C   UNL     1       2.529   4.024  -0.001  0.00  0.00    +0.086 C 
ATOM      7  H   UNL     1       2.178   5.748  -1.973  0.00  0.00    -0.079 HD
ENDROOT
BRANCH   1  13
ATOM      8  C   UNL     1      -0.017   1.377   0.010  0.00  0.00    +0.025 A 
ATOM      9  C   UNL     1       0.002  -0.004   0.002  0.00  0.00    +0.034 A 
ATOM     10  C   UNL     1       1.208  -0.681  -0.014  0.00  0.00    +0.126 A 
ATOM     11  C   UNL     1       2.399   0.022  -0.021  0.00  0.00    +0.034 A 
ATOM     12  C   UNL     1       2.387   1.403  -0.012  0.00  0.00    +0.025 A 
ATOM     13  C   UNL     1       1.178   2.086   0.002  0.00  0.00    +0.030 A 
BRANCH  10  14
ATOM     14  N   UNL     1       1.224  -2.161  -0.022  0.00  0.00    +0.056 N 
ATOM     15  O   UNL     1       0.176  -2.781  -0.015  0.00  0.00    -0.126 OA
ATOM     16  O   UNL     1       2.286  -2.758  -0.036  0.00  0.00    -0.126 OA
ENDBRANCH  10  14
ENDBRANCH   1  13
BRANCH   4  17
ATOM     17  C   UNL     1       1.674   7.544  -1.035  0.00  0.00    +0.073 C 
BRANCH  17  18
ATOM     18  N   UNL     1       0.703   8.027  -2.020  0.00  0.00    -0.240 N 
ATOM     19  C   UNL     1      -0.605   8.280  -1.805  0.00  0.00    +0.265 A 
ATOM     20  S   UNL     1      -1.445   8.097  -0.324  0.00  0.00    +0.011 S 
ATOM     21  O   UNL     1      -1.126   8.703  -2.970  0.00  0.00    -0.418 OA
ATOM     22  C   UNL     1      -0.154   8.714  -3.903  0.00  0.00    +0.200 A 
ATOM     23  N   UNL     1       0.955   8.321  -3.369  0.00  0.00    -0.138 NA
BRANCH  22  24
ATOM     24  C   UNL     1      -0.330   9.127  -5.341  0.00  0.00    +0.021 C 
BRANCH  24  25
ATOM     25  N   UNL     1      -0.696   7.953  -6.146  0.00  0.00    +0.386 N 
ATOM     26  C   UNL     1      -1.865   7.249  -5.559  0.00  0.00    -0.078 C 
ATOM     27  C   UNL     1      -2.416   6.424  -6.749  0.00  0.00    -0.020 C 
ATOM     28  C   UNL     1      -2.213   7.375  -7.952  0.00  0.00    -0.020 C 
ATOM     29  C   UNL     1      -1.109   8.353  -7.509  0.00  0.00    -0.078 C 
ATOM     30  H   UNL     1       0.199   7.314  -6.168  0.00  0.00    -0.081 HD
ENDBRANCH  24  25
ENDBRANCH  22  24
ENDBRANCH  17  18
ENDBRANCH   4  17
TORSDOF 6
