REMARK  Name = ZINC63234743
REMARK  5 active torsions:
REMARK  status: ('A' for Active; 'I' for Inactive)
REMARK    1  A    between atoms: C_1  and  C_2
REMARK    2  A    between atoms: C_2  and  C_4
REMARK    3  A    between atoms: C_2  and  N_10
REMARK    4  A    between atoms: N_10  and  C_11
REMARK    5  A    between atoms: C_19  and  C_26
REMARK                            x       y       z     vdW  Elec       q    Type
REMARK                         _______ _______ _______ _____ _____    ______ ____
ROOT
ATOM      1  C   UNL     1       2.100  -0.070  -1.159  0.00  0.00    -0.044 C 
ATOM      2  C   UNL     1       2.804  -0.784   0.000  0.00  0.00    -0.013 C 
ATOM      3  C   UNL     1       2.630  -2.298  -0.095  0.00  0.00    +0.003 C 
ATOM      4  C   UNL     1       3.306  -2.829  -1.371  0.00  0.00    +0.033 C 
ATOM      5  C   UNL     1       2.790  -1.990  -2.513  0.00  0.00    -0.040 C 
ATOM      6  C   UNL     1       2.254  -2.322  -3.682  0.00  0.00    -0.000 A 
ATOM      7  C   UNL     1       2.073  -3.620  -4.345  0.00  0.00    +0.018 A 
ATOM      8  C   UNL     1       1.448  -3.606  -5.562  0.00  0.00    -0.017 A 
ATOM      9  C   UNL     1       0.984  -2.434  -6.191  0.00  0.00    +0.010 A 
ATOM     10  C   UNL     1       1.111  -1.189  -5.669  0.00  0.00    +0.026 A 
ATOM     11  C   UNL     1       1.775  -1.079  -4.363  0.00  0.00    +0.043 A 
ATOM     12  N   UNL     1       2.052  -0.032  -3.647  0.00  0.00    -0.379 N 
ATOM     13  C   UNL     1       2.793  -0.461  -2.466  0.00  0.00    +0.092 C 
ATOM     14  H   UNL     1       1.808   0.883  -3.860  0.00  0.00    +0.160 HD
ENDROOT
BRANCH   8  15
ATOM     15  C   UNL     1       1.249  -4.899  -6.260  0.00  0.00    -0.018 A 
ATOM     16  C   UNL     1       1.687  -6.085  -5.674  0.00  0.00    +0.008 A 
ATOM     17  C   UNL     1       1.498  -7.285  -6.328  0.00  0.00    +0.001 A 
ATOM     18  C   UNL     1       0.875  -7.313  -7.563  0.00  0.00    +0.000 A 
ATOM     19  C   UNL     1       0.438  -6.139  -8.150  0.00  0.00    +0.001 A 
ATOM     20  C   UNL     1       0.617  -4.933  -7.503  0.00  0.00    +0.008 A 
ENDBRANCH   8  15
BRANCH   1  21
ATOM     21  N   UNL     1       0.690  -0.478  -1.207  0.00  0.00    +0.387 N 
ATOM     22  H   UNL     1       0.632  -1.484  -1.254  0.00  0.00    -0.085 HD
ATOM     23  H   UNL     1       0.251  -0.077  -2.022  0.00  0.00    -0.085 HD
BRANCH  21  25
ATOM     24  C   UNL     1      -0.019   1.526   0.010  0.00  0.00    -0.009 C 
ATOM     25  C   UNL     1       0.002  -0.004   0.002  0.00  0.00    -0.044 C 
BRANCH  25  26
ATOM     26  C   UNL     1      -1.412  -0.526   0.013  0.00  0.00    -0.062 A 
ATOM     27  C   UNL     1      -2.141  -0.569  -1.161  0.00  0.00    +0.002 A 
ATOM     28  C   UNL     1      -3.438  -1.047  -1.151  0.00  0.00    +0.000 A 
ATOM     29  C   UNL     1      -4.005  -1.483   0.032  0.00  0.00    +0.000 A 
ATOM     30  C   UNL     1      -3.275  -1.441   1.205  0.00  0.00    +0.000 A 
ATOM     31  C   UNL     1      -1.977  -0.966   1.195  0.00  0.00    +0.002 A 
ENDBRANCH  25  26
ENDBRANCH  21  25
ENDBRANCH   1  21
TORSDOF 4
