REMARK  Name = ZINC09510674
REMARK  12 active torsions:
REMARK  status: ('A' for Active; 'I' for Inactive)
REMARK    1  A    between atoms: C_1  and  C_2
REMARK    2  A    between atoms: C_2  and  O_3
REMARK    3  A    between atoms: O_3  and  C_4
REMARK    4  A    between atoms: C_4  and  C_5
REMARK    5  A    between atoms: C_5  and  N_6
REMARK    6  A    between atoms: C_9  and  C_36
REMARK    7  A    between atoms: C_10  and  C_35
REMARK    8  A    between atoms: N_15  and  C_16
REMARK    9  A    between atoms: C_16  and  C_18
REMARK   10  A    between atoms: C_21  and  S_24
REMARK   11  A    between atoms: S_24  and  N_27
REMARK   12  A    between atoms: C_31  and  C_34
REMARK                            x       y       z     vdW  Elec       q    Type
REMARK                         _______ _______ _______ _____ _____    ______ ____
ROOT
ATOM      1  C   UNL     1       2.161   3.800   5.706  0.00  0.00    +0.269 C 
ATOM      2  O   UNL     1       2.579   3.300   6.736  0.00  0.00    -0.268 OA
ENDROOT
BRANCH   1  12
ATOM      3  N   UNL     1      -0.235   1.244   4.841  0.00  0.00    -0.319 N 
ATOM      4  C   UNL     1      -0.620   0.056   5.435  0.00  0.00    +0.058 A 
ATOM      5  C   UNL     1      -1.578  -0.869   4.990  0.00  0.00    +0.030 A 
ATOM      6  C   UNL     1      -1.836  -2.013   5.707  0.00  0.00    -0.046 A 
ATOM      7  C   UNL     1      -1.159  -2.292   6.882  0.00  0.00    -0.046 A 
ATOM      8  C   UNL     1      -0.205  -1.400   7.341  0.00  0.00    +0.020 A 
ATOM      9  C   UNL     1       0.053  -0.255   6.625  0.00  0.00    +0.039 A 
ATOM     10  S   UNL     1       1.157   1.119   6.840  0.00  0.00    -0.052 S 
ATOM     11  C   UNL     1       0.724   2.016   5.420  0.00  0.00    +0.167 A 
ATOM     12  N   UNL     1       1.212   3.178   4.999  0.00  0.00    -0.152 NA
ATOM     13  C   UNL     1      -1.456  -3.552   7.653  0.00  0.00    +0.044 C 
ATOM     14  C   UNL     1      -2.874  -2.982   5.204  0.00  0.00    +0.044 C 
BRANCH   3  15
ATOM     15  C   UNL     1      -0.864   1.675   3.590  0.00  0.00    +0.152 C 
BRANCH  15  16
ATOM     16  C   UNL     1      -0.068   1.127   2.404  0.00  0.00    +0.181 C 
BRANCH  16  17
ATOM     17  O   UNL     1      -0.682   1.547   1.184  0.00  0.00    -0.378 OA
BRANCH  17  19
ATOM     18  C   UNL     1      -0.753   1.593  -1.232  0.00  0.00    +0.034 C 
ATOM     19  C   UNL     1      -0.013   1.086   0.008  0.00  0.00    +0.156 C 
ENDBRANCH  17  19
ENDBRANCH  16  17
ENDBRANCH  15  16
ENDBRANCH   3  15
ENDBRANCH   1  12
BRANCH   1  20
ATOM     20  C   UNL     1       2.705   5.095   5.236  0.00  0.00    +0.039 A 
ATOM     21  C   UNL     1       2.233   5.666   4.054  0.00  0.00    +0.015 A 
ATOM     22  C   UNL     1       2.741   6.875   3.625  0.00  0.00    +0.029 A 
ATOM     23  C   UNL     1       3.723   7.516   4.359  0.00  0.00    +0.106 A 
ATOM     24  C   UNL     1       4.199   6.952   5.529  0.00  0.00    +0.029 A 
ATOM     25  C   UNL     1       3.696   5.746   5.971  0.00  0.00    +0.015 A 
BRANCH  23  26
ATOM     26  S   UNL     1       4.371   9.056   3.800  0.00  0.00    +0.061 S 
ATOM     27  O   UNL     1       3.375   9.638   2.969  0.00  0.00    -0.153 OA
ATOM     28  O   UNL     1       4.889   9.718   4.945  0.00  0.00    -0.153 OA
BRANCH  26  29
ATOM     29  N   UNL     1       5.664   8.718   2.822  0.00  0.00    -0.176 NA
ATOM     30  C   UNL     1       7.018   8.612   3.383  0.00  0.00    +0.109 C 
ATOM     31  C   UNL     1       7.617   7.261   2.962  0.00  0.00    +0.017 C 
ATOM     32  C   UNL     1       7.556   7.136   1.437  0.00  0.00    +0.006 C 
ATOM     33  C   UNL     1       6.097   7.180   0.978  0.00  0.00    +0.002 C 
ATOM     34  C   UNL     1       5.480   8.524   1.378  0.00  0.00    +0.112 C 
ATOM     35  C   UNL     1       6.035   7.022  -0.543  0.00  0.00    +0.009 C 
ENDBRANCH  26  29
ENDBRANCH  23  26
ENDBRANCH   1  20
TORSDOF 8
