REMARK  Name = ZINC63098917
REMARK  6 active torsions:
REMARK  status: ('A' for Active; 'I' for Inactive)
REMARK    1  A    between atoms: C_1  and  S_2
REMARK    2  A    between atoms: S_2  and  C_3
REMARK    3  A    between atoms: C_8  and  N_9
REMARK    4  A    between atoms: C_10  and  C_12
REMARK    5  A    between atoms: C_12  and  N_13
REMARK    6  A    between atoms: C_16  and  C_19
REMARK                            x       y       z     vdW  Elec       q    Type
REMARK                         _______ _______ _______ _____ _____    ______ ____
ROOT
ATOM      1  N   UNL     1      -1.019  -6.479   0.290  0.00  0.00    +0.385 N 
ATOM      2  C   UNL     1      -1.749  -6.759  -0.952  0.00  0.00    -0.078 C 
ATOM      3  C   UNL     1      -2.483  -8.096  -0.826  0.00  0.00    -0.011 C 
ATOM      4  C   UNL     1      -1.463  -9.210  -0.569  0.00  0.00    +0.014 C 
ATOM      5  C   UNL     1      -0.657  -8.870   0.688  0.00  0.00    -0.011 C 
ATOM      6  C   UNL     1       0.009  -7.504   0.506  0.00  0.00    -0.078 C 
ATOM      7  H   UNL     1      -1.665  -6.483   1.066  0.00  0.00    -0.081 HD
ENDROOT
BRANCH   4   8
ATOM      8  C   UNL     1      -2.185 -10.517  -0.366  0.00  0.00    -0.039 C 
ATOM      9  C   UNL     1      -2.050 -11.643  -1.102  0.00  0.00    -0.001 A 
ATOM     10  C   UNL     1      -1.222 -11.976  -2.268  0.00  0.00    +0.010 A 
ATOM     11  C   UNL     1      -1.306 -13.216  -2.800  0.00  0.00    +0.001 A 
ATOM     12  C   UNL     1      -2.161 -14.191  -2.267  0.00  0.00    +0.002 A 
ATOM     13  C   UNL     1      -2.952 -13.960  -1.197  0.00  0.00    +0.026 A 
ATOM     14  C   UNL     1      -2.944 -12.690  -0.558  0.00  0.00    +0.043 A 
ATOM     15  N   UNL     1      -3.607 -12.228   0.474  0.00  0.00    -0.380 N 
ATOM     16  C   UNL     1      -3.203 -10.837   0.706  0.00  0.00    +0.145 C 
ATOM     17  H   UNL     1      -4.254 -12.725   1.000  0.00  0.00    +0.160 HD
ENDBRANCH   4   8
BRANCH   1  18
ATOM     18  C   UNL     1      -0.380  -5.160   0.194  0.00  0.00    +0.019 C 
BRANCH  18  20
ATOM     19  N   UNL     1      -1.087  -2.797  -0.002  0.00  0.00    -0.286 N 
ATOM     20  C   UNL     1      -1.441  -4.094   0.096  0.00  0.00    +0.201 C 
ATOM     21  O   UNL     1      -2.614  -4.403   0.105  0.00  0.00    -0.278 OA
ATOM     22  H   UNL     1      -0.152  -2.555  -0.090  0.00  0.00    +0.155 HD
BRANCH  19  28
ATOM     23  C   UNL     1      -1.822  -0.559  -0.567  0.00  0.00    +0.029 A 
ATOM     24  C   UNL     1      -2.802   0.424  -0.543  0.00  0.00    +0.016 A 
ATOM     25  C   UNL     1      -4.016   0.175   0.069  0.00  0.00    +0.001 A 
ATOM     26  C   UNL     1      -4.258  -1.052   0.659  0.00  0.00    +0.002 A 
ATOM     27  C   UNL     1      -3.288  -2.037   0.640  0.00  0.00    +0.024 A 
ATOM     28  C   UNL     1      -2.070  -1.798   0.023  0.00  0.00    +0.047 A 
BRANCH  23  30
ATOM     29  C   UNL     1      -0.425   1.460  -1.950  0.00  0.00    +0.090 C 
ATOM     30  S   UNL     1      -0.274  -0.244  -1.347  0.00  0.00    -0.127 S 
ENDBRANCH  23  30
ENDBRANCH  19  28
ENDBRANCH  18  20
ENDBRANCH   1  18
TORSDOF 5
