REMARK  Name = ZINC51123277
REMARK  7 active torsions:
REMARK  status: ('A' for Active; 'I' for Inactive)
REMARK    1  A    between atoms: C_1  and  C_2
REMARK    2  A    between atoms: C_2  and  C_3
REMARK    3  A    between atoms: C_2  and  C_4
REMARK    4  A    between atoms: C_4  and  N_5
REMARK    5  A    between atoms: N_8  and  N_9
REMARK    6  A    between atoms: C_10  and  C_12
REMARK    7  A    between atoms: C_14  and  C_22
REMARK                            x       y       z     vdW  Elec       q    Type
REMARK                         _______ _______ _______ _____ _____    ______ ____
ROOT
ATOM      1  C   UNL     1      -0.035  -6.764  -0.588  0.00  0.00    +0.049 A 
ATOM      2  C   UNL     1       1.167  -6.078  -0.674  0.00  0.00    +0.042 A 
ATOM      3  C   UNL     1       2.368  -6.800  -0.781  0.00  0.00    +0.079 A 
ATOM      4  N   UNL     1       2.395  -8.119  -0.804  0.00  0.00    -0.246 NA
ATOM      5  C   UNL     1       1.286  -8.857  -0.726  0.00  0.00    +0.072 A 
ATOM      6  C   UNL     1       0.022  -8.226  -0.609  0.00  0.00    +0.013 A 
ATOM      7  C   UNL     1      -1.138  -9.004  -0.522  0.00  0.00    +0.011 A 
ATOM      8  C   UNL     1      -1.040 -10.364  -0.545  0.00  0.00    +0.001 A 
ATOM      9  C   UNL     1       0.200 -10.989  -0.654  0.00  0.00    +0.002 A 
ATOM     10  C   UNL     1       1.347 -10.262  -0.753  0.00  0.00    +0.028 A 
ENDROOT
BRANCH   3  11
ATOM     11  C   UNL     1       3.640  -6.059  -0.872  0.00  0.00    +0.038 A 
ATOM     12  C   UNL     1       4.917  -6.545  -0.987  0.00  0.00    +0.017 A 
ATOM     13  C   UNL     1       5.961  -5.652  -1.056  0.00  0.00    +0.008 A 
ATOM     14  C   UNL     1       5.697  -4.319  -1.009  0.00  0.00    +0.046 A 
ATOM     15  S   UNL     1       3.917  -4.295  -0.868  0.00  0.00    -0.095 S 
ENDBRANCH   3  11
BRANCH   1  17
ATOM     16  N   UNL     1      -1.338  -4.706  -0.336  0.00  0.00    -0.229 N 
ATOM     17  C   UNL     1      -1.323  -6.046  -0.474  0.00  0.00    +0.261 C 
ATOM     18  O   UNL     1      -2.369  -6.665  -0.505  0.00  0.00    -0.269 OA
ATOM     19  H   UNL     1      -0.504  -4.211  -0.311  0.00  0.00    +0.173 HD
BRANCH  16  23
ATOM     20  N   UNL     1      -1.414  -1.999  -0.055  0.00  0.00    -0.298 N 
ATOM     21  C   UNL     1      -2.573  -2.686  -0.089  0.00  0.00    +0.316 C 
ATOM     22  O   UNL     1      -3.632  -2.096   0.005  0.00  0.00    -0.251 OA
ATOM     23  N   UNL     1      -2.559  -4.026  -0.228  0.00  0.00    -0.218 N 
ATOM     24  H   UNL     1      -0.569  -2.469  -0.130  0.00  0.00    +0.150 HD
ATOM     25  H   UNL     1      -3.393  -4.520  -0.252  0.00  0.00    +0.174 HD
BRANCH  20  26
ATOM     26  C   UNL     1      -1.430  -0.541   0.096  0.00  0.00    +0.108 C 
BRANCH  26  28
ATOM     27  C   UNL     1      -0.013   1.516   0.136  0.00  0.00    +0.009 C 
ATOM     28  C   UNL     1       0.006  -0.014   0.105  0.00  0.00    -0.000 C 
ATOM     29  C   UNL     1       0.735  -0.540   1.343  0.00  0.00    +0.009 C 
ENDBRANCH  26  28
ENDBRANCH  20  26
ENDBRANCH  16  23
ENDBRANCH   1  17
TORSDOF 5
