REMARK  Name = ZINC59807129
REMARK  11 active torsions:
REMARK  status: ('A' for Active; 'I' for Inactive)
REMARK    1  A    between atoms: C_1  and  C_2
REMARK    2  A    between atoms: C_2  and  N_3
REMARK    3  A    between atoms: C_6  and  C_19
REMARK    4  A    between atoms: C_7  and  N_18
REMARK    5  A    between atoms: N_8  and  C_11
REMARK    6  A    between atoms: C_11  and  C_12
REMARK    7  A    between atoms: C_19  and  C_21
REMARK    8  A    between atoms: C_21  and  N_22
REMARK    9  A    between atoms: N_22  and  C_23
REMARK   10  A    between atoms: C_28  and  N_29
REMARK   11  A    between atoms: C_32  and  O_35
REMARK                            x       y       z     vdW  Elec       q    Type
REMARK                         _______ _______ _______ _____ _____    ______ ____
ROOT
ATOM      1  N   UNL     1      -1.393  -0.484  -0.116  0.00  0.00    -0.260 N 
ATOM      2  C   UNL     1      -1.843  -0.684   1.140  0.00  0.00    +0.269 A 
ATOM      3  O   UNL     1      -1.138  -0.433   2.100  0.00  0.00    -0.267 OA
ATOM      4  C   UNL     1      -3.201  -1.212   1.325  0.00  0.00    +0.121 A 
ATOM      5  C   UNL     1      -3.963  -1.481   0.175  0.00  0.00    +0.116 A 
ATOM      6  N   UNL     1      -3.414  -1.243  -1.052  0.00  0.00    -0.277 N 
ATOM      7  C   UNL     1      -2.170  -0.755  -1.177  0.00  0.00    +0.334 A 
ATOM      8  O   UNL     1      -1.728  -0.555  -2.292  0.00  0.00    -0.246 OA
ENDROOT
BRANCH   5   9
ATOM      9  N   UNL     1      -5.228  -1.971   0.283  0.00  0.00    -0.344 N 
ATOM     10  H   UNL     1      -5.641  -2.061   1.156  0.00  0.00    +0.144 HD
ATOM     11  H   UNL     1      -5.717  -2.232  -0.513  0.00  0.00    +0.144 HD
ENDBRANCH   5   9
BRANCH   1  13
ATOM     12  C   UNL     1      -0.089   1.571  -0.361  0.00  0.00    +0.027 C 
ATOM     13  C   UNL     1      -0.042   0.042  -0.324  0.00  0.00    +0.126 C 
ENDBRANCH   1  13
BRANCH   4  14
ATOM     14  C   UNL     1      -3.724  -1.442   2.615  0.00  0.00    +0.188 C 
ATOM     15  O   UNL     1      -4.884  -1.776   2.750  0.00  0.00    -0.290 OA
BRANCH  14  16
ATOM     16  C   UNL     1      -2.843  -1.272   3.826  0.00  0.00    +0.181 C 
BRANCH  16  17
ATOM     17  N   UNL     1      -3.614  -1.567   5.037  0.00  0.00    -0.335 N 
ATOM     18  H   UNL     1      -4.547  -1.824   4.967  0.00  0.00    +0.147 HD
BRANCH  17  19
ATOM     19  C   UNL     1      -3.007  -1.477   6.291  0.00  0.00    +0.047 A 
ATOM     20  C   UNL     1      -1.704  -1.006   6.402  0.00  0.00    +0.025 A 
ATOM     21  C   UNL     1      -1.107  -0.919   7.644  0.00  0.00    +0.002 A 
ATOM     22  C   UNL     1      -1.803  -1.299   8.776  0.00  0.00    +0.002 A 
ATOM     23  C   UNL     1      -3.099  -1.769   8.670  0.00  0.00    +0.023 A 
ATOM     24  C   UNL     1      -3.705  -1.853   7.431  0.00  0.00    +0.035 A 
BRANCH  24  25
ATOM     25  N   UNL     1      -5.018  -2.322   7.325  0.00  0.00    -0.392 NA
ATOM     26  C   UNL     1      -5.068  -3.729   7.739  0.00  0.00    +0.087 C 
ATOM     27  C   UNL     1      -6.487  -4.271   7.547  0.00  0.00    +0.048 C 
ATOM     28  C   UNL     1      -7.459  -3.451   8.400  0.00  0.00    +0.117 C 
ATOM     29  C   UNL     1      -7.344  -1.974   8.011  0.00  0.00    +0.048 C 
ATOM     30  C   UNL     1      -5.894  -1.518   8.185  0.00  0.00    +0.087 C 
ATOM     31  H   UNL     1      -5.325  -2.244   6.367  0.00  0.00    +0.126 HD
BRANCH  28  32
ATOM     32  O   UNL     1      -8.795  -3.904   8.169  0.00  0.00    -0.392 OA
ATOM     33  H   UNL     1      -9.465  -3.427   8.678  0.00  0.00    +0.210 HD
ENDBRANCH  28  32
ENDBRANCH  24  25
ENDBRANCH  17  19
ENDBRANCH  16  17
ENDBRANCH  14  16
ENDBRANCH   4  14
BRANCH   6  34
ATOM     34  C   UNL     1      -4.200  -1.520  -2.257  0.00  0.00    +0.163 C 
BRANCH  34  35
ATOM     35  C   UNL     1      -4.981  -0.290  -2.642  0.00  0.00    -0.028 A 
ATOM     36  C   UNL     1      -6.250  -0.090  -2.132  0.00  0.00    +0.005 A 
ATOM     37  C   UNL     1      -6.967   1.039  -2.485  0.00  0.00    +0.000 A 
ATOM     38  C   UNL     1      -6.413   1.967  -3.347  0.00  0.00    +0.000 A 
ATOM     39  C   UNL     1      -5.143   1.768  -3.855  0.00  0.00    +0.000 A 
ATOM     40  C   UNL     1      -4.425   0.641  -3.499  0.00  0.00    +0.005 A 
ENDBRANCH  34  35
ENDBRANCH   6  34
TORSDOF 10
