REMARK  Name = ZINC16186754
REMARK  8 active torsions:
REMARK  status: ('A' for Active; 'I' for Inactive)
REMARK    1  A    between atoms: C_1  and  N_2
REMARK    2  A    between atoms: N_2  and  C_3
REMARK    3  A    between atoms: N_2  and  S_20
REMARK    4  A    between atoms: C_3  and  C_4
REMARK    5  A    between atoms: N_6  and  N_7
REMARK    6  A    between atoms: C_8  and  C_9
REMARK    7  A    between atoms: C_18  and  O_19
REMARK    8  A    between atoms: S_20  and  C_23
REMARK                            x       y       z     vdW  Elec       q    Type
REMARK                         _______ _______ _______ _____ _____    ______ ____
ROOT
ATOM      1  C   UNL     1      -2.606   9.268   0.533  0.00  0.00    +0.248 C 
ATOM      2  O   UNL     1      -1.549   9.864   0.519  0.00  0.00    -0.273 OA
ATOM      3  N   UNL     1      -2.623   7.931   0.702  0.00  0.00    -0.206 N 
ATOM      4  H   UNL     1      -3.468   7.455   0.712  0.00  0.00    +0.177 HD
ENDROOT
BRANCH   3   5
ATOM      5  N   UNL     1      -1.421   7.230   0.861  0.00  0.00    -0.188 NA
ATOM      6  C   UNL     1      -1.437   5.940   1.024  0.00  0.00    +0.142 C 
BRANCH   6   7
ATOM      7  C   UNL     1      -0.176   5.204   1.191  0.00  0.00    +0.044 A 
ATOM      8  C   UNL     1      -0.177   3.754   1.375  0.00  0.00    -0.006 A 
ATOM      9  C   UNL     1      -1.369   3.021   1.397  0.00  0.00    +0.009 A 
ATOM     10  C   UNL     1      -1.326   1.669   1.564  0.00  0.00    +0.001 A 
ATOM     11  C   UNL     1      -0.111   1.007   1.724  0.00  0.00    +0.001 A 
ATOM     12  C   UNL     1       1.067   1.689   1.707  0.00  0.00    +0.008 A 
ATOM     13  C   UNL     1       1.061   3.083   1.531  0.00  0.00    -0.017 A 
ATOM     14  C   UNL     1       2.257   3.821   1.508  0.00  0.00    +0.012 A 
ATOM     15  C   UNL     1       2.239   5.170   1.337  0.00  0.00    +0.046 A 
ATOM     16  C   UNL     1       1.047   5.874   1.178  0.00  0.00    +0.126 A 
BRANCH  16  17
ATOM     17  O   UNL     1       1.076   7.221   1.009  0.00  0.00    -0.506 OA
ATOM     18  H   UNL     1       1.136   7.500   0.085  0.00  0.00    +0.292 HD
ENDBRANCH  16  17
ENDBRANCH   6   7
ENDBRANCH   3   5
BRANCH   1  19
ATOM     19  C   UNL     1      -3.899  10.023   0.361  0.00  0.00    +0.206 C 
BRANCH  19  21
ATOM     20  C   UNL     1      -3.285  11.984  -1.127  0.00  0.00    +0.132 C 
ATOM     21  N   UNL     1      -3.613  11.450   0.197  0.00  0.00    -0.171 NA
BRANCH  21  22
ATOM     22  S   UNL     1      -3.660  12.460   1.508  0.00  0.00    +0.062 S 
ATOM     23  O   UNL     1      -3.285  11.681   2.635  0.00  0.00    -0.153 OA
ATOM     24  O   UNL     1      -2.966  13.643   1.135  0.00  0.00    -0.153 OA
BRANCH  22  25
ATOM     25  C   UNL     1      -5.343  12.920   1.752  0.00  0.00    +0.125 A 
ATOM     26  C   UNL     1      -6.021  12.490   2.877  0.00  0.00    +0.050 A 
ATOM     27  C   UNL     1      -7.342  12.856   3.070  0.00  0.00    +0.043 A 
ATOM     28  C   UNL     1      -7.986  13.643   2.132  0.00  0.00    +0.021 A 
ATOM     29  C   UNL     1      -7.310  14.068   1.005  0.00  0.00    +0.023 A 
ATOM     30  C   UNL     1      -5.988  13.707   0.814  0.00  0.00    +0.067 A 
ATOM     31 CL   UNL     1      -5.138  14.242  -0.602  0.00  0.00    -0.082 Cl
ATOM     32 CL   UNL     1      -8.191  12.321   4.486  0.00  0.00    -0.083 Cl
ENDBRANCH  22  25
ENDBRANCH  21  22
ENDBRANCH  19  21
ENDBRANCH   1  19
TORSDOF 7
